#------------------------------------------------------------------------------
#$Date: 2019-11-17 10:17:56 +0200 (Sun, 17 Nov 2019) $
#$Revision: 229305 $
#$URL: file:///home/coder/svn-repositories/cod/cif/7/04/72/7047279.cif $
#------------------------------------------------------------------------------
#
# This file is available in the Crystallography Open Database (COD),
# http://www.crystallography.net/
#
# All data on this site have been placed in the public domain by the
# contributors.
#
data_7047279
loop_
_publ_author_name
'Yang, Wu'
'Chen, Chen'
'Chan, Kin Shing'
_publ_section_title
;
 Hydrodebromination of allylic and benzylic bromides with water catalyzed
 by a rhodium porphyrin complex.
;
_journal_issue                   37
_journal_name_full
'Dalton transactions (Cambridge, England : 2003)'
_journal_page_first              12879
_journal_page_last               12883
_journal_paper_doi               10.1039/c8dt02168f
_journal_volume                  47
_journal_year                    2018
_chemical_formula_moiety
'2(C48.72 H38.16 Br N4 O0.72 Rh), C49 H39 Br N4 O Rh'
_chemical_formula_sum            'C146.44 H115.31 Br3 N12 O2.44 Rh3'
_chemical_formula_weight         2630.59
_space_group_crystal_system      triclinic
_space_group_IT_number           2
_space_group_name_Hall           '-P 1'
_space_group_name_H-M_alt        'P -1'
_symmetry_space_group_name_Hall  '-P 1'
_symmetry_space_group_name_H-M   'P -1'
_atom_sites_solution_hydrogens   geom
_audit_creation_date             2018-07-11
_audit_creation_method
;
Olex2 1.2
(compiled 2018.05.29 svn.r3508 for OlexSys, GUI svn.r5506)
;
_audit_update_record
;
2018-07-16 deposited with the CCDC.
2018-08-16 downloaded from the CCDC.
;
_cell_angle_alpha                97.727(2)
_cell_angle_beta                 102.976(2)
_cell_angle_gamma                97.590(2)
_cell_formula_units_Z            1
_cell_length_a                   11.4853(8)
_cell_length_b                   12.4928(9)
_cell_length_c                   23.5322(17)
_cell_measurement_reflns_used    9759
_cell_measurement_temperature    302(2)
_cell_measurement_theta_max      27.521
_cell_measurement_theta_min      2.379
_cell_volume                     3214.0(4)
_computing_cell_refinement       'SAINT v8.34A (Bruker, 2013)'
_computing_data_reduction        'SAINT v8.34A (Bruker, 2013)'
_computing_molecular_graphics    'Olex2 (Dolomanov et al., 2009)'
_computing_publication_material  'Olex2 (Dolomanov et al., 2009)'
_computing_structure_refinement  'ShelXL (Sheldrick, 2015)'
_diffrn_ambient_temperature      301.91
_diffrn_measured_fraction_theta_full 0.997
_diffrn_measured_fraction_theta_max 0.997
_diffrn_measurement_device_type  'BRUKER D8VENTURE DIFFRACTOMETER'
_diffrn_measurement_method       'PHI & OMEGA SCAN'
_diffrn_radiation_type           MoK\a
_diffrn_radiation_wavelength     0.71073
_diffrn_reflns_av_R_equivalents  0.0379
_diffrn_reflns_av_unetI/netI     0.0198
_diffrn_reflns_Laue_measured_fraction_full 0.997
_diffrn_reflns_Laue_measured_fraction_max 0.997
_diffrn_reflns_limit_h_max       13
_diffrn_reflns_limit_h_min       -13
_diffrn_reflns_limit_k_max       14
_diffrn_reflns_limit_k_min       -14
_diffrn_reflns_limit_l_max       28
_diffrn_reflns_limit_l_min       -28
_diffrn_reflns_number            117626
_diffrn_reflns_point_group_measured_fraction_full 0.997
_diffrn_reflns_point_group_measured_fraction_max 0.997
_diffrn_reflns_theta_full        25.242
_diffrn_reflns_theta_max         25.248
_diffrn_reflns_theta_min         2.657
_exptl_absorpt_coefficient_mu    1.370
_exptl_absorpt_correction_T_max  0.7456
_exptl_absorpt_correction_T_min  0.5843
_exptl_absorpt_correction_type   multi-scan
_exptl_absorpt_process_details
;
SADABS-2014/4 (Bruker,2014/4) was used for absorption correction.
wR2(int) was 0.0933 before and 0.0572 after correction.
The Ratio of minimum to maximum transmission is 0.7837.
The \l/2 correction factor is 0.00150.
;
_exptl_crystal_colour            red
_exptl_crystal_density_diffrn    1.359
_exptl_crystal_description       block
_exptl_crystal_F_000             1337
_exptl_crystal_size_max          0.5
_exptl_crystal_size_mid          0.4
_exptl_crystal_size_min          0.3
_refine_diff_density_max         0.522
_refine_diff_density_min         -1.096
_refine_diff_density_rms         0.079
_refine_ls_extinction_method     none
_refine_ls_goodness_of_fit_ref   1.216
_refine_ls_hydrogen_treatment    constr
_refine_ls_matrix_type           full
_refine_ls_number_parameters     784
_refine_ls_number_reflns         11583
_refine_ls_number_restraints     0
_refine_ls_restrained_S_all      1.216
_refine_ls_R_factor_all          0.0645
_refine_ls_R_factor_gt           0.0577
_refine_ls_shift/su_max          0.000
_refine_ls_shift/su_mean         0.000
_refine_ls_structure_factor_coef Fsqd
_refine_ls_weighting_details
'w=1/[\s^2^(Fo^2^)+(0.0252P)^2^+11.1970P] where P=(Fo^2^+2Fc^2^)/3'
_refine_ls_weighting_scheme      calc
_refine_ls_wR_factor_gt          0.1373
_refine_ls_wR_factor_ref         0.1404
_reflns_Friedel_coverage         0.000
_reflns_number_gt                10354
_reflns_number_total             11583
_reflns_threshold_expression     'I > 2\s(I)'
_cod_data_source_file            c8dt02168f2.cif
_cod_data_source_block           p_sq
_cod_depositor_comments
'Adding full bibliography for 7047279--7047280.cif.'
_cod_database_code               7047279
_shelx_shelxl_version_number     2017/1
_shelx_space_group_comment
;
The symmetry employed for this shelxl refinement is uniquely defined
by the following loop, which should always be used as a source of
symmetry information in preference to the above space-group names.
They are only intended as comments.
;
_shelx_estimated_absorpt_t_max   0.684
_shelx_estimated_absorpt_t_min   0.547
_olex2_refinement_description
;
1. Fixed Uiso
 At 1.2 times of:
  All C(H) groups
 At 1.5 times of:
  All C(H,H,H) groups
2. Others
 Sof(Br1)=1-FVAR(1)
 Sof(Br1')=FVAR(1)
 Fixed Sof: Br2(0.5) C88(0.5) H88A(0.5) H88B(0.5) H88C(0.5) O1(0.5)
 C0AA(0.71901) H0AA(0.71901) H0AB(0.71901) H0AC(0.71901) O2(0.71901)
3.a Me refined with riding coordinates:
 C27(H27A,H27B,H27C), C37(H37A,H37B,H37C), C47(H47A,H47B,H47C), C57(H57A,H57B,
 H57C), C77(H77A,H77B,H77C), C87(H87A,H87B,H87C)
3.b Aromatic/amide H refined with riding coordinates:
 C2(H2), C3(H3), C7(H7), C8(H8), C12(H12), C13(H13), C17(H17), C18(H18),
 C22(H22), C23(H23), C25(H25), C26(H26), C32(H32), C33(H33), C35(H35), C36(H36),
  C42(H42), C43(H43), C45(H45), C46(H46), C52(H52), C53(H53), C55(H55),
 C56(H56), C62(H62), C63(H63), C67(H67), C68(H68), C72(H72), C73(H73), C75(H75),
  C76(H76), C82(H82), C83(H83), C85(H85), C86(H86)
3.c Idealised Me refined as rotating group:
 C88(H88A,H88B,H88C), C0AA(H0AA,H0AB,H0AC)
;
_shelx_res_file
;
TITL P in P-1
    p_sq.res
    created by SHELXL-2017/1 at 16:53:11 on 11-Jul-2018
REM C145 H112 Br3 N12 O Rh3
REM D8VENTURE BLOCK RED
CELL 0.71073 11.4853 12.4928 23.5322 97.7268 102.9756 97.5901
ZERR 1 0.0008 0.0009 0.0017 0.0022 0.002 0.0021
LATT 1
SFAC C H Br N O Rh
UNIT 146.44 115.31 3 12 2.44 3

L.S. 5 0 65
PLAN  20
SIZE 0.5 0.4 0.3
TEMP 28.76
ABIN
fmap 2
ACTA
OMIT -3 50.5
OMIT -1 1 0
OMIT -1 -1 1
OMIT 1 0 1
OMIT -1 0 2
OMIT 0 -1 2
OMIT 1 -1 1
OMIT -1 1 1
OMIT -2 1 2
OMIT -2 1 1
OMIT 0 2 0
OMIT -2 0 1
OMIT 1 1 1
OMIT 1 -1 2
OMIT -4 0 1
OMIT -2 -3 3
REM <olex2.extras>
REM <HklSrc "%.\\p_sq.hkl">
REM </olex2.extras>

WGHT    0.025200   11.197001
FVAR       0.12124   0.72041
RH1   6    0.076399    0.786018    0.326893    11.00000    0.03301    0.03798 =
         0.04864    0.00781    0.01024   -0.00053
RH2   6    0.500000    1.000000    0.000000    10.50000    0.04113    0.04076 =
         0.03706   -0.00029    0.01185   -0.00001
PART 1
BR1'  3    0.041530    0.875534    0.415013    21.00000    0.06119    0.06656 =
         0.05386   -0.00038    0.01782    0.00751
PART 0
PART 2
BR1   3    0.114797    0.701410    0.241582   -21.00000    0.06104    0.05168 =
         0.05229    0.00051    0.00893    0.00968
PART 0
PART -1
BR2   3    0.296558    1.048470   -0.031422    10.50000    0.04909    0.06893 =
         0.06139    0.01002    0.00820    0.01235
PART 0
N1    4    0.230854    0.744516    0.374217    11.00000    0.03102    0.04395 =
         0.05620    0.01006    0.01143    0.00273
N2    4   -0.019955    0.644408    0.337137    11.00000    0.03834    0.03892 =
         0.05776    0.01070    0.01318   -0.00173
N3    4   -0.076962    0.826288    0.278328    11.00000    0.03481    0.04022 =
         0.05693    0.00968    0.00915    0.00268
N4    4    0.173087    0.925211    0.315868    11.00000    0.03413    0.04001 =
         0.05985    0.01114    0.01010   -0.00269
N5    4    0.556898    1.154142    0.046916    11.00000    0.04627    0.04386 =
         0.04305    0.00152    0.01383    0.00002
N6    4    0.460609    0.946969    0.072907    11.00000    0.05008    0.04084 =
         0.04142    0.00243    0.01344    0.00033
C1    1    0.344727    0.806909    0.389173    11.00000    0.03782    0.04842 =
         0.04785    0.00465    0.00618   -0.00088
C2    1    0.425406    0.752952    0.426958    11.00000    0.04107    0.05365 =
         0.05510    0.00717    0.00551    0.00260
AFIX  43
H2    2    0.507622    0.777949    0.443477    11.00000   -1.20000
AFIX   0
C3    1    0.361113    0.659702    0.434301    11.00000    0.04946    0.05199 =
         0.05104    0.01127    0.00913    0.00659
AFIX  43
H3    2    0.390768    0.608604    0.456551    11.00000   -1.20000
AFIX   0
C4    1    0.238408    0.653922    0.401407    11.00000    0.04383    0.04262 =
         0.04679    0.00894    0.01264    0.00538
C5    1    0.143073    0.569231    0.397454    11.00000    0.04511    0.04499 =
         0.04970    0.00720    0.01153    0.00392
C6    1    0.024921    0.566628    0.367675    11.00000    0.04851    0.04060 =
         0.05907    0.01177    0.01969    0.00476
C7    1   -0.073903    0.479302    0.363192    11.00000    0.05062    0.04036 =
         0.07663    0.01611    0.01878   -0.00062
AFIX  43
H7    2   -0.068212    0.415344    0.379047    11.00000   -1.20000
AFIX   0
C8    1   -0.175769    0.506526    0.332064    11.00000    0.04045    0.04720 =
         0.06966    0.01413    0.01422   -0.00554
AFIX  43
H8    2   -0.253153    0.465239    0.322691    11.00000   -1.20000
AFIX   0
C9    1   -0.142908    0.611097    0.315997    11.00000    0.03853    0.04223 =
         0.05806    0.00774    0.01307   -0.00367
C10   1   -0.223637    0.667745    0.284596    11.00000    0.03611    0.04221 =
         0.05626    0.00381    0.01063   -0.00121
C11   1   -0.193157    0.767313    0.266518    11.00000    0.03422    0.04298 =
         0.05258    0.00230    0.00762    0.00063
C12   1   -0.275278    0.825136    0.233394    11.00000    0.03394    0.05230 =
         0.06391    0.00946    0.00604   -0.00021
AFIX  43
H12   2   -0.358468    0.802470    0.219081    11.00000   -1.20000
AFIX   0
C13   1   -0.211341    0.918144    0.226490    11.00000    0.04494    0.04695 =
         0.06412    0.01368    0.00673    0.00766
AFIX  43
H13   2   -0.242542    0.971821    0.206816    11.00000   -1.20000
AFIX   0
C14   1   -0.086470    0.920521    0.254708    11.00000    0.04506    0.04426 =
         0.05033    0.00903    0.01260    0.00415
C15   1    0.008760    1.003719    0.258191    11.00000    0.04475    0.04630 =
         0.04695    0.01047    0.01110    0.00353
C16   1    0.129137    1.002870    0.285034    11.00000    0.04549    0.04005 =
         0.05900    0.00665    0.01459   -0.00205
C17   1    0.229688    1.083095    0.284004    11.00000    0.04865    0.04845 =
         0.08189    0.01949    0.01988   -0.00417
AFIX  43
H17   2    0.224905    1.143729    0.265117    11.00000   -1.20000
AFIX   0
C18   1    0.329707    1.056959    0.314104    11.00000    0.04130    0.04847 =
         0.08174    0.01865    0.01333   -0.00171
AFIX  43
H18   2    0.407709    1.095528    0.320217    11.00000   -1.20000
AFIX   0
C19   1    0.296711    0.957127    0.336114    11.00000    0.03722    0.04332 =
         0.05977    0.00788    0.01332   -0.00467
C20   1    0.377396    0.904253    0.370833    11.00000    0.03966    0.04612 =
         0.05545    0.00516    0.01259    0.00034
C21   1    0.171862    0.472693    0.426640    11.00000    0.04349    0.04903 =
         0.05289    0.01280    0.00948    0.00147
C22   1    0.220649    0.391143    0.399591    11.00000    0.08748    0.07197 =
         0.07830    0.02388    0.03557    0.03122
AFIX  43
H22   2    0.240299    0.397262    0.363785    11.00000   -1.20000
AFIX   0
C23   1    0.240739    0.298987    0.425897    11.00000    0.09527    0.06700 =
         0.09921    0.02564    0.02744    0.03793
AFIX  43
H23   2    0.275415    0.245408    0.407457    11.00000   -1.20000
AFIX   0
C24   1    0.211286    0.285417    0.477319    11.00000    0.04980    0.06409 =
         0.09098    0.03234   -0.00379   -0.00194
C25   1    0.164554    0.367732    0.504332    11.00000    0.09950    0.08737 =
         0.07053    0.03788    0.02759    0.02325
AFIX  43
H25   2    0.143838    0.361005    0.539844    11.00000   -1.20000
AFIX   0
C26   1    0.147713    0.460083    0.479925    11.00000    0.09558    0.07123 =
         0.06160    0.01343    0.03150    0.01784
AFIX  43
H26   2    0.118979    0.515827    0.500261    11.00000   -1.20000
AFIX   0
C27   1    0.227987    0.181046    0.503092    11.00000    0.07066    0.09439 =
         0.17103    0.07921   -0.01606    0.00351
AFIX  33
H27A  2    0.202681    0.185401    0.539423    11.00000   -1.50000
H27B  2    0.179923    0.118877    0.475405    11.00000   -1.50000
H27C  2    0.311857    0.173236    0.510654    11.00000   -1.50000
AFIX   0
C31   1   -0.355228    0.620019    0.269779    11.00000    0.03689    0.03851 =
         0.05501    0.00468    0.00878   -0.00124
C32   1   -0.420003    0.623606    0.312145    11.00000    0.05345    0.07698 =
         0.06281   -0.02080    0.01981   -0.01568
AFIX  43
H32   2   -0.381162    0.656599    0.350805    11.00000   -1.20000
AFIX   0
C33   1   -0.542600    0.578991    0.298624    11.00000    0.05448    0.08249 =
         0.07812   -0.01747    0.03108   -0.00790
AFIX  43
H33   2   -0.584055    0.583435    0.328342    11.00000   -1.20000
AFIX   0
C34   1   -0.602813    0.529183    0.243005    11.00000    0.04173    0.05235 =
         0.08215    0.00890    0.00352   -0.00038
C35   1   -0.539607    0.524618    0.200173    11.00000    0.05926    0.08946 =
         0.05423    0.00276   -0.00225   -0.01790
AFIX  43
H35   2   -0.578666    0.490122    0.161796    11.00000   -1.20000
AFIX   0
C36   1   -0.417797    0.570839    0.213233    11.00000    0.06268    0.08885 =
         0.05302   -0.00141    0.01745   -0.02075
AFIX  43
H36   2   -0.377499    0.568522    0.183058    11.00000   -1.20000
AFIX   0
C37   1   -0.734375    0.478533    0.228312    11.00000    0.04379    0.08453 =
         0.13663    0.00894    0.00896   -0.00744
AFIX  33
H37A  2   -0.760651    0.447527    0.187018    11.00000   -1.50000
H37B  2   -0.745003    0.421990    0.251474    11.00000   -1.50000
H37C  2   -0.781538    0.533718    0.237055    11.00000   -1.50000
AFIX   0
C41   1   -0.018787    1.104461    0.232740    11.00000    0.04039    0.04434 =
         0.05835    0.01285    0.01075    0.00080
C42   1   -0.066586    1.103856    0.173822    11.00000    0.07573    0.05223 =
         0.06665    0.01235    0.00702    0.00459
AFIX  43
H42   2   -0.087417    1.037715    0.147611    11.00000   -1.20000
AFIX   0
C43   1   -0.084484    1.200965    0.152553    11.00000    0.07866    0.07316 =
         0.08172    0.03292   -0.00188    0.00376
AFIX  43
H43   2   -0.116679    1.198558    0.112352    11.00000   -1.20000
AFIX   0
C44   1   -0.055542    1.299265    0.189747    11.00000    0.03740    0.05388 =
         0.11115    0.03145    0.00527    0.00261
C45   1   -0.011517    1.300837    0.248356    11.00000    0.06434    0.04916 =
         0.10165    0.00675    0.02076    0.00453
AFIX  43
H45   2    0.007652    1.367316    0.274251    11.00000   -1.20000
AFIX   0
C46   1    0.005555    1.204491    0.270530    11.00000    0.06874    0.05062 =
         0.07176    0.01362    0.01903    0.00819
AFIX  43
H46   2    0.033545    1.207270    0.311065    11.00000   -1.20000
AFIX   0
C47   1   -0.072141    1.406181    0.167658    11.00000    0.06563    0.06117 =
         0.18730    0.05811   -0.00031   -0.00275
AFIX  33
H47A  2   -0.103808    1.391794    0.125499    11.00000   -1.50000
H47B  2   -0.127734    1.440253    0.186011    11.00000   -1.50000
H47C  2    0.004613    1.454172    0.177483    11.00000   -1.50000
AFIX   0
C51   1    0.508031    0.958038    0.388360    11.00000    0.04264    0.04894 =
         0.05006    0.01192    0.00954   -0.00001
C52   1    0.587688    0.927786    0.356405    11.00000    0.04510    0.08524 =
         0.06292   -0.00564    0.01425   -0.00245
AFIX  43
H52   2    0.561841    0.869370    0.325044    11.00000   -1.20000
AFIX   0
C53   1    0.705554    0.982110    0.369721    11.00000    0.04361    0.11663 =
         0.06750    0.00397    0.02067   -0.00393
AFIX  43
H53   2    0.757817    0.959801    0.347243    11.00000   -1.20000
AFIX   0
C54   1    0.746705    1.068414    0.415563    11.00000    0.04013    0.07805 =
         0.06042    0.02076    0.00435   -0.00358
C55   1    0.669398    1.096663    0.448717    11.00000    0.05660    0.07448 =
         0.06851   -0.00182    0.00658   -0.00973
AFIX  43
H55   2    0.696478    1.152932    0.481155    11.00000   -1.20000
AFIX   0
C56   1    0.551457    1.043098    0.434941    11.00000    0.05123    0.06967 =
         0.07112   -0.00918    0.01800   -0.00609
AFIX  43
H56   2    0.499798    1.065162    0.457830    11.00000   -1.20000
AFIX   0
C57   1    0.874405    1.133810    0.427487    11.00000    0.05081    0.13693 =
         0.08793    0.02737    0.00322   -0.02139
AFIX  33
H57A  2    0.915860    1.102256    0.399945    11.00000   -1.50000
H57B  2    0.869444    1.208399    0.422891    11.00000   -1.50000
H57C  2    0.918150    1.131865    0.467116    11.00000   -1.50000
AFIX   0
C61   1    0.601896    1.245431    0.026613    11.00000    0.04633    0.04835 =
         0.04458    0.00469    0.01097    0.00207
C62   1    0.634296    1.337201    0.073667    11.00000    0.06098    0.04840 =
         0.04591    0.00031    0.01223    0.00039
AFIX  43
H62   2    0.667674    1.408154    0.071629    11.00000   -1.20000
AFIX   0
C63   1    0.607578    1.301911    0.121360    11.00000    0.06072    0.04805 =
         0.04501   -0.00412    0.01057   -0.00044
AFIX  43
H63   2    0.617293    1.344225    0.158302    11.00000   -1.20000
AFIX   0
C64   1    0.561003    1.186194    0.104695    11.00000    0.04685    0.04633 =
         0.04099   -0.00081    0.00934   -0.00030
C65   1    0.525865    1.120390    0.143344    11.00000    0.04903    0.05244 =
         0.03582   -0.00029    0.00915    0.00566
C66   1    0.480550    1.008643    0.127837    11.00000    0.05131    0.04059 =
         0.04102    0.00339    0.01306    0.00551
C67   1    0.446142    0.939100    0.167529    11.00000    0.06986    0.05504 =
         0.04034   -0.00067    0.01902    0.00137
AFIX  43
H67   2    0.449830    0.960976    0.207351    11.00000   -1.20000
AFIX   0
C68   1    0.407757    0.836951    0.136719    11.00000    0.06284    0.05310 =
         0.04951    0.01138    0.01821    0.00681
AFIX  43
H68   2    0.381467    0.775103    0.151416    11.00000   -1.20000
AFIX   0
C69   1    0.414962    0.841154    0.076466    11.00000    0.05109    0.04924 =
         0.04078    0.00459    0.01342    0.00413
C70   1    0.384409    0.752290    0.031074    11.00000    0.04991    0.04588 =
         0.05010    0.00331    0.01467   -0.00046
C71   1    0.539054    1.175324    0.205767    11.00000    0.05501    0.03950 =
         0.04555    0.00279    0.01881    0.00423
C72   1    0.448805    1.227073    0.220989    11.00000    0.04981    0.06610 =
         0.05236    0.00658    0.01593    0.00539
AFIX  43
H72   2    0.377243    1.224874    0.192610    11.00000   -1.20000
AFIX   0
C73   1    0.463231    1.282744    0.278382    11.00000    0.07478    0.05310 =
         0.05946   -0.00030    0.03738    0.00277
AFIX  43
H73   2    0.401680    1.317806    0.287674    11.00000   -1.20000
AFIX   0
C74   1    0.567265    1.286095    0.321060    11.00000    0.08139    0.04065 =
         0.04506    0.00154    0.02040   -0.01226
C75   1    0.656140    1.236143    0.306011    11.00000    0.07772    0.06017 =
         0.05501   -0.00366    0.00322    0.00321
AFIX  43
H75   2    0.727381    1.238104    0.334562    11.00000   -1.20000
AFIX   0
C76   1    0.643402    1.181948    0.248841    11.00000    0.06287    0.05990 =
         0.06234   -0.00586    0.01031    0.01731
AFIX  43
H76   2    0.706802    1.149617    0.239661    11.00000   -1.20000
AFIX   0
C77   1    0.580769    1.344862    0.383909    11.00000    0.11026    0.07248 =
         0.05388   -0.00622    0.02953   -0.00743
AFIX  33
H77A  2    0.508908    1.375036    0.386050    11.00000   -1.50000
H77B  2    0.592406    1.293734    0.410864    11.00000   -1.50000
H77C  2    0.649495    1.402811    0.394380    11.00000   -1.50000
AFIX   0
C81   1    0.327831    0.643300    0.041891    11.00000    0.05732    0.04852 =
         0.03859    0.00140    0.00969   -0.00540
C82   1    0.389452    0.555055    0.041486    11.00000    0.08100    0.05147 =
         0.06096    0.00622    0.02292    0.00543
AFIX  43
H82   2    0.468644    0.564540    0.037368    11.00000   -1.20000
AFIX   0
C83   1    0.334279    0.453049    0.047146    11.00000    0.11627    0.05018 =
         0.06540    0.00671    0.02434    0.00986
AFIX  43
H83   2    0.377594    0.395250    0.046215    11.00000   -1.20000
AFIX   0
C84   1    0.221045    0.434056    0.053914    11.00000    0.11109    0.05758 =
         0.07140    0.00002    0.03158   -0.00907
C85   1    0.157331    0.523898    0.055552    11.00000    0.07833    0.08940 =
         0.08468    0.01145    0.02843   -0.02642
AFIX  43
H85   2    0.078945    0.514177    0.060757    11.00000   -1.20000
AFIX   0
C86   1    0.211962    0.626478    0.049384    11.00000    0.07583    0.05819 =
         0.08199    0.00877    0.03202    0.00029
AFIX  43
H86   2    0.169281    0.684714    0.050349    11.00000   -1.20000
AFIX   0
C87   1    0.158965    0.322590    0.060129    11.00000    0.18052    0.06562 =
         0.11707    0.01800    0.04989   -0.03053
AFIX  33
H87A  2    0.078631    0.327615    0.064472    11.00000   -1.50000
H87B  2    0.154441    0.270399    0.025484    11.00000   -1.50000
H87C  2    0.204596    0.299325    0.094359    11.00000   -1.50000
AFIX   0
PART 1
C88   1    0.707804    0.890383    0.045333    10.50000    0.04370    0.12480 =
         0.09116    0.02061    0.00244    0.00866
AFIX 137
H88A  2    0.661036    0.825629    0.019345    10.50000   -1.50000
H88B  2    0.688361    0.894423    0.083084    10.50000   -1.50000
H88C  2    0.792571    0.887580    0.050328    10.50000   -1.50000
AFIX   0
O1    5    0.681741    0.979597    0.021795    10.50000    0.09820    0.07030 =
         0.07433    0.02892   -0.00187    0.03902
C0AA  1    0.197337    0.741443    0.220299    10.71901    0.09392    0.08836 =
         0.07742    0.00731    0.04495    0.01135
AFIX 137
H0AA  2    0.199638    0.695616    0.184523    10.71901   -1.50000
H0AB  2    0.270546    0.743651    0.250023    10.71901   -1.50000
H0AC  2    0.190233    0.814218    0.212728    10.71901   -1.50000
AFIX   0
O2    5    0.099609    0.699789    0.239758    10.71901    0.09547    0.09163 =
         0.09727    0.00401    0.03883    0.01426
HKLF 4




REM  P in P-1
REM R1 =  0.0577 for   10354 Fo > 4sig(Fo)  and  0.0645 for all   11583 data
REM    784 parameters refined using      0 restraints

END

WGHT      0.0252     11.1938

REM Highest difference peak  0.522,  deepest hole -1.096,  1-sigma level  0.079
Q1    1  -0.1285  0.9815  0.1489  11.00000  0.05    0.52
Q2    1   0.0287  0.9577  0.4276  11.00000  0.05    0.51
Q3    1   0.0625  0.8458  0.3085  11.00000  0.05    0.51
Q4    1   0.8086  1.1436  0.3033  11.00000  0.05    0.49
Q5    1   0.7702  1.2365  0.3972  11.00000  0.05    0.47
Q6    1   0.4268  0.3060  0.0106  11.00000  0.05    0.37
Q7    1   0.7776  1.0832  0.4622  11.00000  0.05    0.36
Q8    1   0.4067  0.4053  0.1098  11.00000  0.05    0.36
Q9    1  -0.0663  0.8582  0.4222  11.00000  0.05    0.35
Q10   1   0.2836  0.2324  0.5631  11.00000  0.05    0.34
Q11   1  -0.0795  0.5147  0.2822  11.00000  0.05    0.34
Q12   1   0.2816  0.4289  0.3321  11.00000  0.05    0.33
Q13   1   0.5166  0.9407  0.0092  11.00000  0.05    0.32
Q14   1  -0.0222  0.8470  0.3818  11.00000  0.05    0.32
Q15   1   0.0300  0.9124  0.3812  11.00000  0.05    0.32
Q16   1  -0.7627  0.5152  0.1827  11.00000  0.05    0.31
Q17   1   0.4608  1.0596  0.1305  11.00000  0.05    0.31
Q18   1  -0.0647  1.1792  0.0997  11.00000  0.05    0.30
Q19   1   0.0392  0.3064  0.0108  11.00000  0.05    0.29
Q20   1   0.1941  0.6783  0.3190  11.00000  0.05    0.29
;
_shelx_res_checksum              61615
_shelx_fab_file
;
    2    0    0     15.02      0.00
    3    0    0    -10.96      0.00
    4    0    0    -10.46      0.00
    5    0    0     -4.15      0.00
    6    0    0     -1.15      0.00
    7    0    0      1.12      0.00
    8    0    0      1.46      0.00
    9    0    0     -0.26      0.00
   10    0    0     -1.24      0.00
   11    0    0     -0.65      0.00
   12    0    0      0.45      0.00
   13    0    0      1.08      0.00
  -13    1    0      0.49      0.00
  -12    1    0      0.06      0.00
  -11    1    0     -0.68      0.00
  -10    1    0     -0.92      0.00
   -9    1    0      0.90      0.00
   -8    1    0      2.54      0.00
   -7    1    0      2.61      0.00
   -6    1    0      0.16      0.00
   -5    1    0     -1.77      0.00
   -4    1    0     -1.97      0.00
   -2    1    0     24.59      0.00
    1    1    0     11.61      0.00
    2    1    0     -4.86      0.00
    4    1    0     -7.09      0.00
    5    1    0     -4.59      0.00
    6    1    0     -1.16      0.00
    7    1    0      0.43      0.00
    8    1    0      0.94      0.00
    9    1    0      0.87      0.00
   10    1    0      0.48      0.00
   11    1    0      0.29      0.00
   12    1    0      0.52      0.00
   13    1    0      0.16      0.00
  -13    2    0      0.10      0.00
  -12    2    0      0.73      0.00
  -11    2    0      0.22      0.00
  -10    2    0      0.22      0.00
   -9    2    0      0.22      0.00
   -8    2    0      1.42      0.00
   -7    2    0      0.92      0.00
   -6    2    0     -0.19      0.00
   -5    2    0     -1.68      0.00
   -4    2    0     -8.74      0.00
   -3    2    0    -18.09      0.00
   -2    2    0    -23.23      0.00
   -1    2    0    -18.55      0.00
    0    2    0      4.96      0.00
    1    2    0     20.97      0.00
    2    2    0     13.32      0.00
    3    2    0     -0.29      0.00
    4    2    0     -5.11      0.00
    5    2    0     -1.77      0.00
    6    2    0      0.18      0.00
    7    2    0      1.12      0.00
    8    2    0      1.20      0.00
    9    2    0      0.57      0.00
   10    2    0      0.43      0.00
   11    2    0      0.13      0.00
   12    2    0      0.40      0.00
  -13    3    0      0.26      0.00
  -12    3    0     -0.10      0.00
  -11    3    0      0.47      0.00
  -10    3    0      0.04      0.00
   -9    3    0     -1.02      0.00
   -8    3    0     -1.12      0.00
   -7    3    0      0.38      0.00
   -6    3    0     -0.63      0.00
   -5    3    0     -6.55      0.00
   -4    3    0    -12.97      0.00
   -3    3    0    -19.34      0.00
   -2    3    0    -16.26      0.00
   -1    3    0      5.25      0.00
    0    3    0     23.79      0.00
    1    3    0     20.56      0.00
    2    3    0      5.63      0.00
    3    3    0     -2.03      0.00
    4    3    0     -1.72      0.00
    5    3    0     -1.17      0.00
    6    3    0     -0.14      0.00
    7    3    0     -0.04      0.00
    8    3    0     -1.02      0.00
    9    3    0     -0.39      0.00
   10    3    0     -0.47      0.00
   11    3    0     -0.42      0.00
   12    3    0     -0.19      0.00
  -13    4    0      0.08      0.00
  -12    4    0      0.36      0.00
  -11    4    0      1.23      0.00
  -10    4    0      0.86      0.00
   -9    4    0     -0.80      0.00
   -8    4    0     -0.72      0.00
   -7    4    0      0.69      0.00
   -6    4    0     -0.60      0.00
   -5    4    0     -1.87      0.00
   -4    4    0     -3.52      0.00
   -3    4    0     -2.79      0.00
   -2    4    0      1.96      0.00
   -1    4    0      5.77      0.00
    0    4    0      5.27      0.00
    1    4    0      1.07      0.00
    2    4    0      0.64      0.00
    3    4    0      0.21      0.00
    4    4    0     -1.67      0.00
    5    4    0     -1.60      0.00
    6    4    0     -0.77      0.00
    7    4    0     -0.94      0.00
    8    4    0     -0.04      0.00
    9    4    0     -0.05      0.00
   10    4    0     -0.56      0.00
   11    4    0     -0.76      0.00
   12    4    0     -0.19      0.00
  -13    5    0      0.55      0.00
  -12    5    0      0.56      0.00
  -11    5    0      0.81      0.00
  -10    5    0      0.16      0.00
   -9    5    0     -1.44      0.00
   -8    5    0     -0.67      0.00
   -7    5    0      1.52      0.00
   -6    5    0      3.57      0.00
   -5    5    0      2.38      0.00
   -4    5    0     -0.12      0.00
   -3    5    0     -2.19      0.00
   -2    5    0     -4.57      0.00
   -1    5    0     -4.36      0.00
    0    5    0     -2.22      0.00
    1    5    0      2.84      0.00
    2    5    0      3.01      0.00
    3    5    0     -0.29      0.00
    4    5    0     -1.91      0.00
    5    5    0     -1.42      0.00
    6    5    0     -1.15      0.00
    7    5    0     -0.37      0.00
    8    5    0      0.27      0.00
    9    5    0     -0.28      0.00
   10    5    0     -0.52      0.00
   11    5    0     -0.02      0.00
  -13    6    0      0.71      0.00
  -12    6    0      1.00      0.00
  -11    6    0      0.34      0.00
  -10    6    0     -0.77      0.00
   -9    6    0     -0.35      0.00
   -8    6    0      0.72      0.00
   -7    6    0      1.84      0.00
   -6    6    0      0.99      0.00
   -5    6    0     -1.40      0.00
   -4    6    0     -2.26      0.00
   -3    6    0     -3.56      0.00
   -2    6    0     -3.69      0.00
   -1    6    0     -1.79      0.00
    0    6    0      2.44      0.00
    1    6    0      2.42      0.00
    2    6    0     -0.59      0.00
    3    6    0     -2.17      0.00
    4    6    0     -1.22      0.00
    5    6    0     -1.11      0.00
    6    6    0     -1.66      0.00
    7    6    0     -0.67      0.00
    8    6    0     -0.68      0.00
    9    6    0     -0.82      0.00
   10    6    0     -0.17      0.00
   11    6    0      0.67      0.00
  -12    7    0      0.91      0.00
  -11    7    0     -0.02      0.00
  -10    7    0     -0.04      0.00
   -9    7    0     -0.15      0.00
   -8    7    0     -0.25      0.00
   -7    7    0     -0.63      0.00
   -6    7    0     -1.62      0.00
   -5    7    0     -0.33      0.00
   -4    7    0      0.44      0.00
   -3    7    0      0.46      0.00
   -2    7    0      0.32      0.00
   -1    7    0      0.18      0.00
    0    7    0     -0.40      0.00
    1    7    0     -0.92      0.00
    2    7    0     -0.83      0.00
    3    7    0      0.47      0.00
    4    7    0      0.33      0.00
    5    7    0     -1.15      0.00
    6    7    0     -0.71      0.00
    7    7    0     -0.53      0.00
    8    7    0     -0.60      0.00
    9    7    0     -0.02      0.00
   10    7    0      0.38      0.00
  -12    8    0      0.99      0.00
  -11    8    0      0.72      0.00
  -10    8    0     -0.58      0.00
   -9    8    0     -1.08      0.00
   -8    8    0     -0.61      0.00
   -7    8    0     -0.14      0.00
   -6    8    0      1.40      0.00
   -5    8    0      2.07      0.00
   -4    8    0      2.24      0.00
   -3    8    0      2.11      0.00
   -2    8    0      0.03      0.00
   -1    8    0     -0.87      0.00
    0    8    0     -0.19      0.00
    1    8    0      0.52      0.00
    2    8    0      0.99      0.00
    3    8    0      0.37      0.00
    4    8    0     -0.34      0.00
    5    8    0     -0.01      0.00
    6    8    0      0.07      0.00
    7    8    0     -0.09      0.00
    8    8    0      0.63      0.00
    9    8    0      0.79      0.00
  -11    9    0     -0.16      0.00
  -10    9    0     -0.86      0.00
   -9    9    0     -1.05      0.00
   -8    9    0     -0.69      0.00
   -7    9    0      0.46      0.00
   -6    9    0      1.51      0.00
   -5    9    0      1.89      0.00
   -4    9    0      1.59      0.00
   -3    9    0      0.00      0.00
   -2    9    0      0.22      0.00
   -1    9    0      0.84      0.00
    0    9    0      0.63      0.00
    1    9    0      0.07      0.00
    2    9    0     -0.66      0.00
    3    9    0     -0.20      0.00
    4    9    0      0.23      0.00
    5    9    0      0.62      0.00
    6    9    0      0.41      0.00
    7    9    0      0.86      0.00
    8    9    0      1.30      0.00
    9    9    0      1.01      0.00
  -11   10    0     -0.44      0.00
  -10   10    0     -0.27      0.00
   -9   10    0     -0.12      0.00
   -8   10    0     -0.70      0.00
   -7   10    0     -0.39      0.00
   -6   10    0      0.46      0.00
   -5   10    0      0.61      0.00
   -4   10    0      0.02      0.00
   -3   10    0      0.79      0.00
   -2   10    0      1.04      0.00
   -1   10    0      0.14      0.00
    0   10    0     -0.87      0.00
    1   10    0     -1.10      0.00
    2   10    0      0.50      0.00
    3   10    0      0.41      0.00
    4   10    0      0.01      0.00
    5   10    0     -0.42      0.00
    6   10    0     -0.36      0.00
    7   10    0      0.25      0.00
    8   10    0      0.61      0.00
  -10   11    0      0.81      0.00
   -9   11    0      0.34      0.00
   -8   11    0     -0.10      0.00
   -7   11    0     -0.17      0.00
   -6   11    0     -0.42      0.00
   -5   11    0     -0.79      0.00
   -4   11    0     -0.55      0.00
   -3   11    0     -0.08      0.00
   -2   11    0      0.24      0.00
   -1   11    0     -0.10      0.00
    0   11    0     -0.74      0.00
    1   11    0      0.53      0.00
    2   11    0      0.41      0.00
    3   11    0     -0.73      0.00
    4   11    0     -1.42      0.00
    5   11    0     -0.98      0.00
    6   11    0     -0.23      0.00
    7   11    0     -0.21      0.00
   -9   12    0     -0.09      0.00
   -8   12    0     -0.28      0.00
   -7   12    0     -0.42      0.00
   -6   12    0     -0.61      0.00
   -5   12    0     -0.99      0.00
   -4   12    0     -0.77      0.00
   -3   12    0      0.23      0.00
   -2   12    0      1.03      0.00
   -1   12    0      0.25      0.00
    0   12    0     -0.14      0.00
    1   12    0     -0.18      0.00
    2   12    0     -0.29      0.00
    3   12    0     -0.06      0.00
    4   12    0      0.63      0.00
    5   12    0      0.93      0.00
   -8   13    0     -0.61      0.00
   -7   13    0      0.22      0.00
   -6   13    0      0.48      0.00
   -5   13    0      0.07      0.00
   -4   13    0     -0.48      0.00
   -3   13    0      0.03      0.00
   -2   13    0      0.65      0.00
   -1   13    0      0.67      0.00
    0   13    0      0.26      0.00
    1   13    0     -0.36      0.00
    2   13    0      0.07      0.00
    3   13    0      0.72      0.00
    4   13    0      0.49      0.00
   -6   14    0      0.12      0.00
   -5   14    0     -0.22      0.00
   -4   14    0     -0.27      0.00
   -3   14    0     -0.20      0.00
   -2   14    0     -0.20      0.00
   -1   14    0     -0.24      0.00
    0   14    0     -1.13      0.00
    1   14    0     -1.14      0.00
    2   14    0     -0.57      0.00
   -2  -14    1     -0.53      0.00
   -1  -14    1     -0.85      0.00
    0  -14    1     -1.19      0.00
    1  -14    1     -0.43      0.00
    2  -14    1     -0.24      0.00
    3  -14    1     -0.28      0.00
    4  -14    1     -0.16      0.00
    5  -14    1     -0.17      0.00
    6  -14    1     -0.50      0.00
   -4  -13    1      0.11      0.00
   -3  -13    1      0.45      0.00
   -2  -13    1      0.30      0.00
   -1  -13    1     -0.32      0.00
    0  -13    1      0.48      0.00
    1  -13    1      1.02      0.00
    2  -13    1      0.45      0.00
    3  -13    1     -0.25      0.00
    4  -13    1     -0.49      0.00
    5  -13    1      0.19      0.00
    6  -13    1      0.69      0.00
    7  -13    1      0.11      0.00
    8  -13    1     -0.83      0.00
   -6  -12    1     -0.06      0.00
   -5  -12    1      0.74      0.00
   -4  -12    1      0.85      0.00
   -3  -12    1      0.64      0.00
   -2  -12    1      0.07      0.00
   -1  -12    1     -0.16      0.00
    0  -12    1      0.13      0.00
    1  -12    1      0.65      0.00
    2  -12    1      0.65      0.00
    3  -12    1     -0.39      0.00
    4  -12    1     -0.89      0.00
    5  -12    1     -0.76      0.00
    6  -12    1     -0.42      0.00
    7  -12    1     -0.33      0.00
    8  -12    1     -0.39      0.00
    9  -12    1     -0.68      0.00
   -7  -11    1     -0.65      0.00
   -6  -11    1     -0.33      0.00
   -5  -11    1     -0.55      0.00
   -4  -11    1     -1.00      0.00
   -3  -11    1     -0.44      0.00
   -2  -11    1      0.14      0.00
   -1  -11    1      0.25      0.00
    0  -11    1     -0.12      0.00
    1  -11    1     -0.35      0.00
    2  -11    1     -0.35      0.00
    3  -11    1     -0.78      0.00
    4  -11    1     -1.15      0.00
    5  -11    1     -0.74      0.00
    6  -11    1     -0.44      0.00
    7  -11    1     -0.49      0.00
    8  -11    1     -0.23      0.00
    9  -11    1      0.49      0.00
   10  -11    1      0.64      0.00
   -8  -10    1      0.20      0.00
   -7  -10    1     -0.14      0.00
   -6  -10    1     -0.10      0.00
   -5  -10    1     -0.52      0.00
   -4  -10    1     -0.05      0.00
   -3  -10    1      0.51      0.00
   -2  -10    1      0.76      0.00
   -1  -10    1     -0.61      0.00
    0  -10    1     -2.02      0.00
    1  -10    1     -0.47      0.00
    2  -10    1      0.64      0.00
    3  -10    1      0.51      0.00
    4  -10    1      0.35      0.00
    5  -10    1      0.23      0.00
    6  -10    1     -0.29      0.00
    7  -10    1     -0.98      0.00
    8  -10    1     -0.81      0.00
    9  -10    1      0.35      0.00
   10  -10    1      0.59      0.00
   11  -10    1     -0.39      0.00
   -9   -9    1      1.02      0.00
   -8   -9    1      1.03      0.00
   -7   -9    1      1.37      0.00
   -6   -9    1      0.77      0.00
   -5   -9    1      0.55      0.00
   -4   -9    1      0.12      0.00
   -3   -9    1      0.04      0.00
   -2   -9    1     -0.62      0.00
   -1   -9    1     -1.77      0.00
    0   -9    1     -0.07      0.00
    1   -9    1      1.00      0.00
    2   -9    1      1.09      0.00
    3   -9    1      0.66      0.00
    4   -9    1      0.98      0.00
    5   -9    1      1.77      0.00
    6   -9    1      1.06      0.00
    7   -9    1     -0.31      0.00
    8   -9    1     -0.39      0.00
    9   -9    1      0.04      0.00
   10   -9    1     -0.37      0.00
   11   -9    1      0.11      0.00
  -10   -8    1      0.50      0.00
   -9   -8    1      0.63      0.00
   -8   -8    1      1.00      0.00
   -7   -8    1      0.37      0.00
   -6   -8    1      0.23      0.00
   -5   -8    1     -0.05      0.00
   -4   -8    1     -0.61      0.00
   -3   -8    1     -0.39      0.00
   -2   -8    1     -0.27      0.00
   -1   -8    1      0.58      0.00
    0   -8    1      0.04      0.00
    1   -8    1     -0.04      0.00
    2   -8    1      0.24      0.00
    3   -8    1      1.55      0.00
    4   -8    1      3.00      0.00
    5   -8    1      2.59      0.00
    6   -8    1      1.71      0.00
    7   -8    1      0.64      0.00
    8   -8    1     -0.15      0.00
    9   -8    1     -0.90      0.00
   10   -8    1     -0.36      0.00
   11   -8    1      0.73      0.00
   12   -8    1      1.24      0.00
  -10   -7    1      0.26      0.00
   -9   -7    1      0.23      0.00
   -8   -7    1     -0.52      0.00
   -7   -7    1     -0.74      0.00
   -6   -7    1     -0.56      0.00
   -5   -7    1     -1.04      0.00
   -4   -7    1     -0.32      0.00
   -3   -7    1      0.45      0.00
   -2   -7    1      0.37      0.00
   -1   -7    1     -0.36      0.00
    0   -7    1     -0.60      0.00
    1   -7    1     -0.95      0.00
    2   -7    1      0.32      0.00
    3   -7    1      2.07      0.00
    4   -7    1      1.50      0.00
    5   -7    1      0.59      0.00
    6   -7    1     -0.50      0.00
    7   -7    1     -0.71      0.00
    8   -7    1     -0.62      0.00
    9   -7    1     -0.60      0.00
   10   -7    1     -0.29      0.00
   11   -7    1      0.48      0.00
   12   -7    1      0.92      0.00
  -11   -6    1      0.26      0.00
  -10   -6    1     -0.13      0.00
   -9   -6    1     -0.79      0.00
   -8   -6    1     -1.20      0.00
   -7   -6    1     -1.20      0.00
   -6   -6    1     -1.61      0.00
   -5   -6    1     -0.83      0.00
   -4   -6    1     -0.16      0.00
   -3   -6    1     -1.12      0.00
   -2   -6    1      0.06      0.00
   -1   -6    1      2.43      0.00
    0   -6    1      1.80      0.00
    1   -6    1     -1.04      0.00
    2   -6    1     -2.45      0.00
    3   -6    1     -2.60      0.00
    4   -6    1     -2.48      0.00
    5   -6    1     -1.70      0.00
    6   -6    1      0.13      0.00
    7   -6    1      1.18      0.00
    8   -6    1      0.16      0.00
    9   -6    1     -0.44      0.00
   10   -6    1     -0.22      0.00
   11   -6    1      0.50      0.00
   12   -6    1      1.05      0.00
  -11   -5    1     -0.35      0.00
  -10   -5    1     -0.46      0.00
   -9   -5    1     -0.07      0.00
   -8   -5    1     -0.04      0.00
   -7   -5    1     -0.71      0.00
   -6   -5    1     -0.88      0.00
   -5   -5    1     -0.61      0.00
   -4   -5    1     -1.77      0.00
   -3   -5    1     -0.21      0.00
   -2   -5    1      3.77      0.00
   -1   -5    1      4.86      0.00
    0   -5    1     -1.25      0.00
    1   -5    1     -7.09      0.00
    2   -5    1     -6.77      0.00
    3   -5    1     -5.16      0.00
    4   -5    1     -1.51      0.00
    5   -5    1      2.49      0.00
    6   -5    1      4.52      0.00
    7   -5    1      1.91      0.00
    8   -5    1     -1.07      0.00
    9   -5    1     -1.28      0.00
   10   -5    1      0.01      0.00
   11   -5    1      0.37      0.00
   12   -5    1      0.34      0.00
   13   -5    1      0.41      0.00
  -12   -4    1     -0.58      0.00
  -11   -4    1     -1.01      0.00
  -10   -4    1     -0.14      0.00
   -9   -4    1      0.33      0.00
   -8   -4    1      0.03      0.00
   -7   -4    1     -0.84      0.00
   -6   -4    1     -1.15      0.00
   -5   -4    1     -2.08      0.00
   -4   -4    1     -2.20      0.00
   -3   -4    1      0.34      0.00
   -2   -4    1      3.27      0.00
   -1   -4    1     -0.38      0.00
    0   -4    1     -3.38      0.00
    1   -4    1     -0.48      0.00
    2   -4    1     -1.42      0.00
    3   -4    1     -1.05      0.00
    4   -4    1     -0.52      0.00
    5   -4    1      1.51      0.00
    6   -4    1      2.52      0.00
    7   -4    1      0.65      0.00
    8   -4    1     -1.28      0.00
    9   -4    1     -0.93      0.00
   10   -4    1      0.55      0.00
   11   -4    1      0.60      0.00
   12   -4    1      0.30      0.00
   13   -4    1      0.53      0.00
  -12   -3    1     -0.85      0.00
  -11   -3    1     -0.80      0.00
  -10   -3    1     -0.63      0.00
   -9   -3    1     -0.61      0.00
   -8   -3    1     -1.28      0.00
   -7   -3    1     -1.25      0.00
   -6   -3    1     -0.60      0.00
   -5   -3    1     -2.17      0.00
   -4   -3    1     -2.89      0.00
   -3   -3    1     -0.36      0.00
   -2   -3    1      3.80      0.00
   -1   -3    1     15.54      0.00
    0   -3    1     23.92      0.00
    2   -3    1     -7.85      0.00
    3   -3    1    -13.82      0.00
    4   -3    1    -10.06      0.00
    5   -3    1     -4.28      0.00
    6   -3    1     -0.88      0.00
    7   -3    1      0.03      0.00
    8   -3    1     -1.96      0.00
    9   -3    1     -1.54      0.00
   10   -3    1     -0.12      0.00
   11   -3    1     -0.05      0.00
   12   -3    1     -0.42      0.00
   13   -3    1      0.20      0.00
  -12   -2    1      0.16      0.00
  -11   -2    1     -0.16      0.00
  -10   -2    1     -0.09      0.00
   -9   -2    1     -0.12      0.00
   -8   -2    1      0.01      0.00
   -7   -2    1      1.59      0.00
   -6   -2    1     -0.14      0.00
   -5   -2    1     -2.64      0.00
   -4   -2    1     -3.52      0.00
   -3   -2    1      1.64      0.00
   -2   -2    1     22.96      0.00
   -1   -2    1     37.70      0.00
    0   -2    1     12.62      0.00
    1   -2    1    -24.38      0.00
    2   -2    1    -37.97      0.00
    3   -2    1    -26.10      0.00
    4   -2    1    -11.87      0.00
    5   -2    1     -4.86      0.00
    6   -2    1     -0.35      0.00
    7   -2    1     -0.04      0.00
    8   -2    1     -0.20      0.00
    9   -2    1     -0.38      0.00
   10   -2    1     -0.44      0.00
   11   -2    1     -0.19      0.00
   12   -2    1      0.40      0.00
   13   -2    1      0.17      0.00
  -13   -1    1      0.09      0.00
  -12   -1    1      0.27      0.00
  -11   -1    1      0.06      0.00
  -10   -1    1      0.29      0.00
   -9   -1    1      0.56      0.00
   -8   -1    1      1.72      0.00
   -7   -1    1      0.10      0.00
   -6   -1    1     -1.40      0.00
   -5   -1    1     -3.32      0.00
   -4   -1    1     -5.88      0.00
   -3   -1    1      0.86      0.00
   -2   -1    1     10.84      0.00
    1   -1    1      1.43      0.00
    2   -1    1     -2.06      0.00
    3   -1    1     -4.04      0.00
    4   -1    1     -1.47      0.00
    5   -1    1      1.04      0.00
    6   -1    1      0.82      0.00
    7   -1    1      2.92      0.00
    8   -1    1      2.78      0.00
    9   -1    1      0.42      0.00
   10   -1    1     -0.46      0.00
   11   -1    1     -0.35      0.00
   12   -1    1      0.19      0.00
   13   -1    1     -0.07      0.00
  -13    0    1      0.99      0.00
  -12    0    1      0.61      0.00
  -11    0    1     -0.55      0.00
  -10    0    1     -1.02      0.00
   -9    0    1      0.07      0.00
   -8    0    1      0.27      0.00
   -7    0    1      0.04      0.00
   -6    0    1     -1.70      0.00
   -5    0    1     -6.29      0.00
   -4    0    1    -11.26      0.00
   -3    0    1    -13.10      0.00
   -2    0    1     10.34      0.00
    1    0    1     67.24      0.00
    2    0    1     15.24      0.00
    3    0    1     -4.87      0.00
    4    0    1     -3.49      0.00
    5    0    1     -2.39      0.00
    6    0    1      0.89      0.00
    7    0    1      2.85      0.00
    8    0    1      1.61      0.00
    9    0    1      0.16      0.00
   10    0    1     -1.40      0.00
   11    0    1     -0.78      0.00
   12    0    1      0.21      0.00
   13    0    1      0.76      0.00
  -13    1    1      1.28      0.00
  -12    1    1      0.16      0.00
  -11    1    1     -0.84      0.00
  -10    1    1     -1.20      0.00
   -9    1    1      0.09      0.00
   -8    1    1      2.04      0.00
   -7    1    1      1.23      0.00
   -6    1    1     -2.00      0.00
   -5    1    1     -4.33      0.00
   -4    1    1     -8.04      0.00
   -3    1    1      3.32      0.00
   -2    1    1     42.55      0.00
    1    1    1     15.21      0.00
    2    1    1    -10.24      0.00
    3    1    1    -11.34      0.00
    4    1    1     -8.19      0.00
    5    1    1     -3.42      0.00
    6    1    1     -0.75      0.00
    7    1    1      0.29      0.00
    8    1    1      1.05      0.00
    9    1    1      0.31      0.00
   10    1    1      0.17      0.00
   11    1    1      0.32      0.00
   12    1    1      0.52      0.00
  -13    2    1      0.25      0.00
  -12    2    1      0.90      0.00
  -11    2    1      0.44      0.00
  -10    2    1      0.16      0.00
   -9    2    1      1.02      0.00
   -8    2    1      1.72      0.00
   -7    2    1      0.87      0.00
   -6    2    1      0.09      0.00
   -5    2    1     -1.61      0.00
   -4    2    1     -4.00      0.00
   -3    2    1     -4.23      0.00
   -2    2    1      1.45      0.00
   -1    2    1      4.41      0.00
    0    2    1      0.10      0.00
    1    2    1      4.30      0.00
    2    2    1      1.61      0.00
    3    2    1     -4.89      0.00
    4    2    1     -4.83      0.00
    5    2    1     -2.56      0.00
    6    2    1     -0.02      0.00
    7    2    1      1.26      0.00
    8    2    1      1.30      0.00
    9    2    1      1.26      0.00
   10    2    1      0.85      0.00
   11    2    1      0.22      0.00
   12    2    1      0.52      0.00
  -13    3    1      0.54      0.00
  -12    3    1      0.66      0.00
  -11    3    1      0.66      0.00
  -10    3    1      0.16      0.00
   -9    3    1     -0.72      0.00
   -8    3    1     -0.05      0.00
   -7    3    1      1.06      0.00
   -6    3    1      0.22      0.00
   -5    3    1     -4.28      0.00
   -4    3    1    -11.90      0.00
   -3    3    1    -18.39      0.00
   -2    3    1    -16.22      0.00
   -1    3    1     -2.82      0.00
    0    3    1     16.79      0.00
    1    3    1     16.70      0.00
    2    3    1      4.80      0.00
    3    3    1     -1.54      0.00
    4    3    1     -2.22      0.00
    5    3    1      0.11      0.00
    6    3    1      0.86      0.00
    7    3    1      0.57      0.00
    8    3    1      0.04      0.00
    9    3    1     -0.01      0.00
   10    3    1     -0.16      0.00
   11    3    1      0.19      0.00
   12    3    1      0.54      0.00
  -13    4    1      0.04      0.00
  -12    4    1      0.17      0.00
  -11    4    1      1.25      0.00
  -10    4    1      0.67      0.00
   -9    4    1     -0.33      0.00
   -8    4    1      0.11      0.00
   -7    4    1      0.76      0.00
   -6    4    1     -1.90      0.00
   -5    4    1     -4.67      0.00
   -4    4    1     -6.30      0.00
   -3    4    1     -5.63      0.00
   -2    4    1      0.31      0.00
   -1    4    1     10.22      0.00
    0    4    1     10.48      0.00
    1    4    1      4.10      0.00
    2    4    1      0.00      0.00
    3    4    1     -0.85      0.00
    4    4    1     -0.10      0.00
    5    4    1     -0.37      0.00
    6    4    1      0.04      0.00
    7    4    1      0.01      0.00
    8    4    1     -0.34      0.00
    9    4    1     -0.41      0.00
   10    4    1     -0.27      0.00
   11    4    1     -0.10      0.00
  -13    5    1      0.24      0.00
  -12    5    1      0.75      0.00
  -11    5    1      1.10      0.00
  -10    5    1      0.27      0.00
   -9    5    1     -1.01      0.00
   -8    5    1     -0.55      0.00
   -7    5    1      0.32      0.00
   -6    5    1      1.75      0.00
   -5    5    1      2.17      0.00
   -4    5    1      0.90      0.00
   -3    5    1      0.17      0.00
   -2    5    1      0.12      0.00
   -1    5    1     -0.54      0.00
    0    5    1     -0.73      0.00
    1    5    1      0.36      0.00
    2    5    1      1.67      0.00
    3    5    1      0.77      0.00
    4    5    1     -1.32      0.00
    5    5    1     -1.38      0.00
    6    5    1     -0.34      0.00
    7    5    1     -0.09      0.00
    8    5    1     -0.07      0.00
    9    5    1     -0.43      0.00
   10    5    1     -0.28      0.00
   11    5    1      0.32      0.00
  -13    6    1      0.61      0.00
  -12    6    1      0.66      0.00
  -11    6    1      0.09      0.00
  -10    6    1     -0.88      0.00
   -9    6    1     -0.85      0.00
   -8    6    1      0.65      0.00
   -7    6    1      2.18      0.00
   -6    6    1      2.03      0.00
   -5    6    1      0.45      0.00
   -4    6    1     -0.65      0.00
   -3    6    1     -2.60      0.00
   -2    6    1     -3.58      0.00
   -1    6    1     -1.88      0.00
    0    6    1      1.03      0.00
    1    6    1      2.24      0.00
    2    6    1     -0.43      0.00
    3    6    1     -2.32      0.00
    4    6    1     -2.26      0.00
    5    6    1     -1.31      0.00
    6    6    1     -1.09      0.00
    7    6    1     -0.27      0.00
    8    6    1     -0.36      0.00
    9    6    1     -0.86      0.00
   10    6    1      0.07      0.00
   11    6    1      1.05      0.00
  -12    7    1      0.77      0.00
  -11    7    1     -0.33      0.00
  -10    7    1     -0.55      0.00
   -9    7    1      0.51      0.00
   -8    7    1      0.46      0.00
   -7    7    1     -0.50      0.00
   -6    7    1     -1.29      0.00
   -5    7    1     -0.75      0.00
   -4    7    1     -0.37      0.00
   -3    7    1     -0.73      0.00
   -2    7    1     -0.41      0.00
   -1    7    1      0.65      0.00
    0    7    1      0.42      0.00
    1    7    1     -1.98      0.00
    2    7    1     -1.59      0.00
    3    7    1     -0.36      0.00
    4    7    1      0.31      0.00
    5    7    1     -0.87      0.00
    6    7    1     -0.69      0.00
    7    7    1      0.02      0.00
    8    7    1     -0.62      0.00
    9    7    1     -0.22      0.00
   10    7    1      0.36      0.00
  -12    8    1      0.41      0.00
  -11    8    1      0.13      0.00
  -10    8    1      0.09      0.00
   -9    8    1     -0.68      0.00
   -8    8    1     -0.77      0.00
   -7    8    1     -0.44      0.00
   -6    8    1      0.04      0.00
   -5    8    1      1.12      0.00
   -4    8    1      1.28      0.00
   -3    8    1      1.13      0.00
   -2    8    1      0.66      0.00
   -1    8    1     -0.67      0.00
    0    8    1     -1.50      0.00
    1    8    1      0.21      0.00
    2    8    1      0.93      0.00
    3    8    1      1.33      0.00
    4    8    1      0.31      0.00
    5    8    1     -0.21      0.00
    6    8    1      0.22      0.00
    7    8    1     -0.19      0.00
    8    8    1      0.29      0.00
    9    8    1      0.38      0.00
  -11    9    1      0.03      0.00
  -10    9    1     -1.46      0.00
   -9    9    1     -1.55      0.00
   -8    9    1     -0.87      0.00
   -7    9    1     -0.03      0.00
   -6    9    1      1.44      0.00
   -5    9    1      1.42      0.00
   -4    9    1      0.90      0.00
   -3    9    1      0.24      0.00
   -2    9    1     -0.72      0.00
   -1    9    1     -0.09      0.00
    0    9    1      1.31      0.00
    1    9    1      0.63      0.00
    2    9    1      0.20      0.00
    3    9    1     -0.05      0.00
    4    9    1      0.20      0.00
    5    9    1      0.67      0.00
    6    9    1      0.08      0.00
    7    9    1      0.37      0.00
    8    9    1      0.94      0.00
  -11   10    1     -0.95      0.00
  -10   10    1     -0.88      0.00
   -9   10    1     -0.92      0.00
   -8   10    1     -0.74      0.00
   -7   10    1      0.35      0.00
   -6   10    1      0.84      0.00
   -5   10    1      0.73      0.00
   -4   10    1      0.44      0.00
   -3   10    1      0.16      0.00
   -2   10    1      0.99      0.00
   -1   10    1      1.00      0.00
    0   10    1     -0.31      0.00
    1   10    1     -0.66      0.00
    2   10    1     -0.29      0.00
    3   10    1      0.22      0.00
    4   10    1      0.28      0.00
    5   10    1     -0.43      0.00
    6   10    1     -0.74      0.00
    7   10    1      0.19      0.00
    8   10    1      0.79      0.00
  -10   11    1      0.14      0.00
   -9   11    1      0.24      0.00
   -8   11    1      0.07      0.00
   -7   11    1      0.19      0.00
   -6   11    1      0.02      0.00
   -5   11    1     -0.26      0.00
   -4   11    1     -0.28      0.00
   -3   11    1      0.62      0.00
   -2   11    1      0.64      0.00
   -1   11    1     -0.23      0.00
    0   11    1     -0.59      0.00
    1   11    1      0.06      0.00
    2   11    1      0.64      0.00
    3   11    1     -0.63      0.00
    4   11    1     -1.73      0.00
    5   11    1     -1.60      0.00
    6   11    1     -0.32      0.00
    7   11    1      0.34      0.00
   -9   12    1      0.15      0.00
   -8   12    1      0.18      0.00
   -7   12    1     -0.33      0.00
   -6   12    1     -0.75      0.00
   -5   12    1     -0.90      0.00
   -4   12    1     -0.25      0.00
   -3   12    1      0.76      0.00
   -2   12    1      1.03      0.00
   -1   12    1      0.04      0.00
    0   12    1     -0.67      0.00
    1   12    1      0.05      0.00
    2   12    1     -0.45      0.00
    3   12    1     -0.86      0.00
    4   12    1     -0.10      0.00
    5   12    1      1.02      0.00
   -8   13    1     -0.48      0.00
   -7   13    1      0.07      0.00
   -6   13    1      0.19      0.00
   -5   13    1     -0.29      0.00
   -4   13    1     -0.13      0.00
   -3   13    1      0.38      0.00
   -2   13    1      0.66      0.00
   -1   13    1      0.05      0.00
    0   13    1     -0.03      0.00
    1   13    1     -0.30      0.00
    2   13    1     -0.16      0.00
    3   13    1      0.65      0.00
    4   13    1      1.15      0.00
   -6   14    1     -0.07      0.00
   -5   14    1      0.03      0.00
   -4   14    1     -0.17      0.00
   -3   14    1      0.25      0.00
   -2   14    1      0.17      0.00
   -1   14    1     -0.29      0.00
    0   14    1     -0.97      0.00
    1   14    1     -1.27      0.00
   -2  -14    2     -0.51      0.00
   -1  -14    2     -0.85      0.00
    0  -14    2     -1.36      0.00
    1  -14    2     -0.46      0.00
    2  -14    2      0.03      0.00
    3  -14    2      0.19      0.00
    4  -14    2      0.28      0.00
    5  -14    2     -0.40      0.00
    6  -14    2     -0.89      0.00
   -4  -13    2     -0.21      0.00
   -3  -13    2      0.29      0.00
   -2  -13    2      0.26      0.00
   -1  -13    2     -0.26      0.00
    0  -13    2      0.50      0.00
    1  -13    2      1.26      0.00
    2  -13    2      0.42      0.00
    3  -13    2     -0.22      0.00
    4  -13    2     -0.26      0.00
    5  -13    2      0.23      0.00
    6  -13    2      0.35      0.00
    7  -13    2     -0.18      0.00
    8  -13    2     -0.80      0.00
   -6  -12    2      0.22      0.00
   -5  -12    2      0.46      0.00
   -4  -12    2      0.85      0.00
   -3  -12    2      1.05      0.00
   -2  -12    2      0.48      0.00
   -1  -12    2     -0.15      0.00
    0  -12    2      0.57      0.00
    1  -12    2      0.70      0.00
    2  -12    2      0.42      0.00
    3  -12    2     -0.37      0.00
    4  -12    2     -0.73      0.00
    5  -12    2     -0.33      0.00
    6  -12    2     -0.27      0.00
    7  -12    2     -0.30      0.00
    8  -12    2     -0.32      0.00
    9  -12    2     -0.55      0.00
   -7  -11    2     -0.57      0.00
   -6  -11    2     -0.43      0.00
   -5  -11    2     -0.37      0.00
   -4  -11    2     -0.48      0.00
   -3  -11    2     -0.08      0.00
   -2  -11    2     -0.20      0.00
   -1  -11    2      0.04      0.00
    0  -11    2      0.08      0.00
    1  -11    2      0.13      0.00
    2  -11    2     -0.78      0.00
    3  -11    2     -1.55      0.00
    4  -11    2     -0.99      0.00
    5  -11    2     -0.74      0.00
    6  -11    2     -0.38      0.00
    7  -11    2     -0.28      0.00
    8  -11    2     -0.08      0.00
    9  -11    2      0.21      0.00
   10  -11    2      0.55      0.00
   -8  -10    2     -0.16      0.00
   -7  -10    2     -0.57      0.00
   -6  -10    2     -0.22      0.00
   -5  -10    2     -0.53      0.00
   -4  -10    2     -0.09      0.00
   -3  -10    2      0.75      0.00
   -2  -10    2      0.71      0.00
   -1  -10    2     -0.58      0.00
    0  -10    2     -1.47      0.00
    1  -10    2     -1.25      0.00
    2  -10    2     -0.33      0.00
    3  -10    2      0.43      0.00
    4  -10    2      0.25      0.00
    5  -10    2      0.42      0.00
    6  -10    2     -0.67      0.00
    7  -10    2     -1.50      0.00
    8  -10    2     -0.47      0.00
    9  -10    2      0.82      0.00
   10  -10    2      0.47      0.00
   11  -10    2     -0.06      0.00
   -9   -9    2      0.75      0.00
   -8   -9    2      0.56      0.00
   -7   -9    2      1.49      0.00
   -6   -9    2      1.05      0.00
   -5   -9    2      0.14      0.00
   -4   -9    2      0.44      0.00
   -3   -9    2      0.37      0.00
   -2   -9    2     -0.72      0.00
   -1   -9    2     -2.26      0.00
    0   -9    2     -1.57      0.00
    1   -9    2      1.00      0.00
    2   -9    2      1.68      0.00
    3   -9    2      0.60      0.00
    4   -9    2      0.98      0.00
    5   -9    2      0.91      0.00
    6   -9    2     -0.24      0.00
    7   -9    2     -0.80      0.00
    8   -9    2     -0.32      0.00
    9   -9    2      0.49      0.00
   10   -9    2      0.35      0.00
   11   -9    2     -0.06      0.00
  -10   -8    2      0.33      0.00
   -9   -8    2      0.11      0.00
   -8   -8    2      1.12      0.00
   -7   -8    2      1.21      0.00
   -6   -8    2      0.21      0.00
   -5   -8    2      0.00      0.00
   -4   -8    2     -0.65      0.00
   -3   -8    2     -0.77      0.00
   -2   -8    2     -1.33      0.00
   -1   -8    2     -1.15      0.00
    0   -8    2      0.47      0.00
    1   -8    2      0.90      0.00
    2   -8    2      0.59      0.00
    3   -8    2      1.10      0.00
    4   -8    2      2.15      0.00
    5   -8    2      2.28      0.00
    6   -8    2      1.55      0.00
    7   -8    2      0.45      0.00
    8   -8    2      0.44      0.00
    9   -8    2     -0.05      0.00
   10   -8    2     -0.38      0.00
   11   -8    2      1.01      0.00
   12   -8    2      1.17      0.00
  -10   -7    2     -0.12      0.00
   -9   -7    2      0.17      0.00
   -8   -7    2      0.04      0.00
   -7   -7    2     -0.48      0.00
   -6   -7    2     -0.21      0.00
   -5   -7    2     -0.96      0.00
   -4   -7    2     -1.09      0.00
   -3   -7    2     -0.37      0.00
   -2   -7    2      0.15      0.00
   -1   -7    2      0.11      0.00
    0   -7    2     -1.10      0.00
    1   -7    2     -1.27      0.00
    2   -7    2     -0.16      0.00
    3   -7    2      2.22      0.00
    4   -7    2      2.51      0.00
    5   -7    2      1.49      0.00
    6   -7    2      0.13      0.00
    7   -7    2     -0.26      0.00
    8   -7    2     -0.52      0.00
    9   -7    2     -1.09      0.00
   10   -7    2     -0.12      0.00
   11   -7    2      0.55      0.00
   12   -7    2      0.57      0.00
  -11   -6    2     -0.18      0.00
  -10   -6    2      0.00      0.00
   -9   -6    2     -0.62      0.00
   -8   -6    2     -1.60      0.00
   -7   -6    2     -1.41      0.00
   -6   -6    2     -1.07      0.00
   -5   -6    2     -1.00      0.00
   -4   -6    2     -0.22      0.00
   -3   -6    2      0.17      0.00
   -2   -6    2      0.90      0.00
   -1   -6    2      1.51      0.00
    0   -6    2      0.69      0.00
    1   -6    2     -1.20      0.00
    2   -6    2     -0.27      0.00
    3   -6    2     -0.46      0.00
    4   -6    2     -1.21      0.00
    5   -6    2     -1.04      0.00
    6   -6    2     -0.28      0.00
    7   -6    2      0.17      0.00
    8   -6    2     -0.64      0.00
    9   -6    2     -0.34      0.00
   10   -6    2     -0.21      0.00
   11   -6    2      0.62      0.00
   12   -6    2      0.99      0.00
  -11   -5    2     -0.33      0.00
  -10   -5    2     -0.16      0.00
   -9   -5    2     -0.35      0.00
   -8   -5    2     -0.74      0.00
   -7   -5    2     -0.43      0.00
   -6   -5    2     -0.47      0.00
   -5   -5    2      0.12      0.00
   -4   -5    2     -0.63      0.00
   -3   -5    2      0.02      0.00
   -2   -5    2      4.52      0.00
   -1   -5    2      5.67      0.00
    0   -5    2     -0.14      0.00
    1   -5    2     -5.40      0.00
    2   -5    2     -7.14      0.00
    3   -5    2     -5.55      0.00
    4   -5    2     -1.98      0.00
    5   -5    2      2.47      0.00
    6   -5    2      4.23      0.00
    7   -5    2      0.86      0.00
    8   -5    2     -1.38      0.00
    9   -5    2     -1.17      0.00
   10   -5    2     -0.03      0.00
   11   -5    2      0.10      0.00
   12   -5    2      0.07      0.00
  -12   -4    2     -0.59      0.00
  -11   -4    2     -0.65      0.00
  -10   -4    2      0.36      0.00
   -9   -4    2      0.56      0.00
   -8   -4    2      0.35      0.00
   -7   -4    2     -0.51      0.00
   -6   -4    2     -0.34      0.00
   -5   -4    2     -1.89      0.00
   -4   -4    2     -3.00      0.00
   -3   -4    2      1.97      0.00
   -2   -4    2      5.43      0.00
   -1   -4    2      0.43      0.00
    0   -4    2     -7.88      0.00
    1   -4    2     -8.94      0.00
    2   -4    2     -4.89      0.00
    3   -4    2     -2.54      0.00
    4   -4    2      1.55      0.00
    5   -4    2      5.03      0.00
    6   -4    2      3.89      0.00
    7   -4    2      0.56      0.00
    8   -4    2     -1.67      0.00
    9   -4    2     -0.83      0.00
   10   -4    2     -0.05      0.00
   11   -4    2     -0.47      0.00
   12   -4    2      0.42      0.00
   13   -4    2      1.01      0.00
  -12   -3    2     -1.31      0.00
  -11   -3    2     -0.88      0.00
  -10   -3    2     -0.27      0.00
   -9   -3    2     -0.55      0.00
   -8   -3    2     -1.39      0.00
   -7   -3    2     -0.97      0.00
   -6   -3    2     -1.37      0.00
   -5   -3    2     -3.34      0.00
   -4   -3    2     -2.18      0.00
   -3   -3    2      0.30      0.00
   -2   -3    2      2.96      0.00
   -1   -3    2      5.86      0.00
    0   -3    2     12.00      0.00
    1   -3    2      9.81      0.00
    2   -3    2     -1.99      0.00
    3   -3    2     -4.69      0.00
    4   -3    2     -3.15      0.00
    5   -3    2     -0.57      0.00
    6   -3    2      1.35      0.00
    7   -3    2     -0.52      0.00
    8   -3    2     -2.18      0.00
    9   -3    2     -1.54      0.00
   10   -3    2     -0.92      0.00
   11   -3    2     -0.37      0.00
   12   -3    2     -0.11      0.00
   13   -3    2      0.61      0.00
  -13   -2    2      0.28      0.00
  -12   -2    2     -0.12      0.00
  -11   -2    2     -0.10      0.00
  -10   -2    2     -0.60      0.00
   -9   -2    2     -0.85      0.00
   -8   -2    2     -0.13      0.00
   -7   -2    2      0.88      0.00
   -6   -2    2     -0.23      0.00
   -5   -2    2     -2.94      0.00
   -4   -2    2     -4.29      0.00
   -3   -2    2      3.69      0.00
   -1   -2    2     41.24      0.00
    1   -2    2    -18.74      0.00
    2   -2    2    -32.32      0.00
    3   -2    2    -24.09      0.00
    4   -2    2    -12.39      0.00
    5   -2    2     -4.63      0.00
    6   -2    2     -1.86      0.00
    7   -2    2     -1.04      0.00
    8   -2    2     -1.58      0.00
    9   -2    2     -1.53      0.00
   10   -2    2     -0.82      0.00
   11   -2    2     -0.51      0.00
   12   -2    2      0.25      0.00
   13   -2    2      0.32      0.00
  -13   -1    2      0.31      0.00
  -12   -1    2      0.14      0.00
  -11   -1    2     -0.52      0.00
  -10   -1    2     -0.33      0.00
   -9   -1    2      0.51      0.00
   -8   -1    2      1.51      0.00
   -7   -1    2      1.14      0.00
   -6   -1    2     -1.70      0.00
   -5   -1    2     -3.65      0.00
   -4   -1    2     -1.27      0.00
   -3   -1    2     10.68      0.00
   -2   -1    2     28.74      0.00
   -1   -1    2     18.79      0.00
    0   -1    2    -18.62      0.00
    1   -1    2    -33.13      0.00
    3   -1    2    -11.76      0.00
    4   -1    2     -2.83      0.00
    5   -1    2     -0.97      0.00
    6   -1    2      1.23      0.00
    7   -1    2      1.63      0.00
    8   -1    2      1.20      0.00
    9   -1    2      0.20      0.00
   10   -1    2     -0.40      0.00
   11   -1    2      0.10      0.00
   12   -1    2      0.49      0.00
   13   -1    2     -0.39      0.00
  -13    0    2      0.51      0.00
  -12    0    2      0.22      0.00
  -11    0    2     -0.64      0.00
  -10    0    2     -0.74      0.00
   -9    0    2     -0.01      0.00
   -8    0    2      0.67      0.00
   -7    0    2     -1.15      0.00
   -6    0    2     -1.74      0.00
   -5    0    2     -4.21      0.00
   -4    0    2     -8.74      0.00
   -3    0    2     -4.86      0.00
   -1    0    2     28.19      0.00
    1    0    2     33.27      0.00
    2    0    2     10.38      0.00
    3    0    2      0.83      0.00
    4    0    2     -0.05      0.00
    5    0    2      1.28      0.00
    6    0    2      1.74      0.00
    7    0    2      3.32      0.00
    8    0    2      2.17      0.00
    9    0    2      0.00      0.00
   10    0    2     -0.91      0.00
   11    0    2     -0.51      0.00
   12    0    2     -0.05      0.00
  -13    1    2      1.86      0.00
  -12    1    2      0.49      0.00
  -11    1    2     -0.89      0.00
  -10    1    2     -1.54      0.00
   -9    1    2     -0.20      0.00
   -8    1    2      0.31      0.00
   -7    1    2      0.45      0.00
   -6    1    2     -2.56      0.00
   -5    1    2     -8.11      0.00
   -4    1    2    -11.14      0.00
   -3    1    2      0.01      0.00
   -2    1    2     40.03      0.00
    0    1    2     68.19      0.00
    2    1    2     -6.41      0.00
    3    1    2     -7.93      0.00
    4    1    2     -4.18      0.00
    5    1    2     -2.73      0.00
    6    1    2      0.55      0.00
    7    1    2      1.02      0.00
    8    1    2      0.28      0.00
    9    1    2      0.13      0.00
   10    1    2     -0.34      0.00
   11    1    2      0.00      0.00
   12    1    2      0.33      0.00
  -13    2    2      0.70      0.00
  -12    2    2      0.76      0.00
  -11    2    2      0.20      0.00
  -10    2    2      0.01      0.00
   -9    2    2      0.75      0.00
   -8    2    2      1.92      0.00
   -7    2    2      0.23      0.00
   -6    2    2     -1.75      0.00
   -5    2    2     -2.77      0.00
   -4    2    2     -3.93      0.00
   -3    2    2      7.24      0.00
   -2    2    2     25.76      0.00
   -1    2    2     25.26      0.00
    0    2    2      6.40      0.00
    1    2    2     -6.47      0.00
    2    2    2     -5.86      0.00
    3    2    2     -6.06      0.00
    4    2    2     -6.15      0.00
    5    2    2     -2.30      0.00
    6    2    2     -0.45      0.00
    7    2    2      0.22      0.00
    8    2    2      1.46      0.00
    9    2    2      1.14      0.00
   10    2    2      0.68      0.00
   11    2    2      0.20      0.00
   12    2    2      0.48      0.00
  -13    3    2      0.75      0.00
  -12    3    2      1.14      0.00
  -11    3    2      0.72      0.00
  -10    3    2      0.06      0.00
   -9    3    2     -0.13      0.00
   -8    3    2      0.25      0.00
   -7    3    2      1.21      0.00
   -6    3    2      1.77      0.00
   -5    3    2     -2.23      0.00
   -4    3    2     -6.99      0.00
   -3    3    2     -9.99      0.00
   -2    3    2     -9.67      0.00
   -1    3    2     -4.22      0.00
    0    3    2      3.87      0.00
    1    3    2      8.87      0.00
    2    3    2      2.50      0.00
    3    3    2     -2.75      0.00
    4    3    2     -1.79      0.00
    5    3    2      0.08      0.00
    6    3    2      0.98      0.00
    7    3    2      1.28      0.00
    8    3    2      0.50      0.00
    9    3    2      0.40      0.00
   10    3    2      0.33      0.00
   11    3    2      0.50      0.00
   12    3    2      0.93      0.00
  -13    4    2      0.07      0.00
  -12    4    2      0.05      0.00
  -11    4    2      0.68      0.00
  -10    4    2      0.25      0.00
   -9    4    2      0.00      0.00
   -8    4    2      0.93      0.00
   -7    4    2      1.59      0.00
   -6    4    2     -1.34      0.00
   -5    4    2     -5.16      0.00
   -4    4    2     -8.01      0.00
   -3    4    2     -8.29      0.00
   -2    4    2     -1.80      0.00
   -1    4    2      7.44      0.00
    0    4    2     12.22      0.00
    1    4    2      5.58      0.00
    2    4    2     -0.07      0.00
    3    4    2     -0.84      0.00
    4    4    2      0.37      0.00
    5    4    2      1.26      0.00
    6    4    2      1.37      0.00
    7    4    2      0.47      0.00
    8    4    2     -0.39      0.00
    9    4    2     -0.25      0.00
   10    4    2      0.18      0.00
   11    4    2      0.53      0.00
  -13    5    2     -0.04      0.00
  -12    5    2      0.43      0.00
  -11    5    2      1.09      0.00
  -10    5    2      0.61      0.00
   -9    5    2     -0.43      0.00
   -8    5    2     -0.24      0.00
   -7    5    2     -0.35      0.00
   -6    5    2     -0.30      0.00
   -5    5    2      0.98      0.00
   -4    5    2      0.21      0.00
   -3    5    2      1.03      0.00
   -2    5    2      3.14      0.00
   -1    5    2      4.16      0.00
    0    5    2      0.81      0.00
    1    5    2     -0.66      0.00
    2    5    2      0.39      0.00
    3    5    2      1.34      0.00
    4    5    2      0.33      0.00
    5    5    2     -0.12      0.00
    6    5    2      0.65      0.00
    7    5    2      0.05      0.00
    8    5    2     -0.66      0.00
    9    5    2     -0.53      0.00
   10    5    2      0.36      0.00
   11    5    2      0.53      0.00
  -13    6    2     -0.01      0.00
  -12    6    2      0.50      0.00
  -11    6    2      0.19      0.00
  -10    6    2     -1.05      0.00
   -9    6    2     -1.05      0.00
   -8    6    2      0.08      0.00
   -7    6    2      1.47      0.00
   -6    6    2      3.42      0.00
   -5    6    2      2.16      0.00
   -4    6    2      1.08      0.00
   -3    6    2     -0.22      0.00
   -2    6    2     -1.80      0.00
   -1    6    2     -1.95      0.00
    0    6    2     -0.39      0.00
    1    6    2      1.02      0.00
    2    6    2      0.81      0.00
    3    6    2     -1.50      0.00
    4    6    2     -2.33      0.00
    5    6    2     -0.94      0.00
    6    6    2     -0.21      0.00
    7    6    2     -0.28      0.00
    8    6    2     -0.61      0.00
    9    6    2     -0.43      0.00
   10    6    2      0.36      0.00
  -12    7    2      0.55      0.00
  -11    7    2     -0.73      0.00
  -10    7    2     -0.76      0.00
   -9    7    2      0.13      0.00
   -8    7    2      0.67      0.00
   -7    7    2      0.78      0.00
   -6    7    2     -0.51      0.00
   -5    7    2      0.02      0.00
   -4    7    2      0.04      0.00
   -3    7    2     -1.57      0.00
   -2    7    2     -0.89      0.00
   -1    7    2      0.28      0.00
    0    7    2      0.22      0.00
    1    7    2     -1.09      0.00
    2    7    2     -2.06      0.00
    3    7    2     -0.81      0.00
    4    7    2     -0.10      0.00
    5    7    2     -0.35      0.00
    6    7    2     -0.34      0.00
    7    7    2      0.10      0.00
    8    7    2     -0.37      0.00
    9    7    2     -0.42      0.00
   10    7    2      0.40      0.00
  -12    8    2     -0.24      0.00
  -11    8    2     -0.27      0.00
  -10    8    2      0.20      0.00
   -9    8    2      0.53      0.00
   -8    8    2     -0.05      0.00
   -7    8    2     -0.95      0.00
   -6    8    2     -0.29      0.00
   -5    8    2      0.26      0.00
   -4    8    2     -0.17      0.00
   -3    8    2      0.65      0.00
   -2    8    2      0.68      0.00
   -1    8    2     -0.18      0.00
    0    8    2     -1.50      0.00
    1    8    2     -1.29      0.00
    2    8    2      1.18      0.00
    3    8    2      1.55      0.00
    4    8    2      0.90      0.00
    5    8    2     -0.09      0.00
    6    8    2      0.22      0.00
    7    8    2      0.18      0.00
    8    8    2     -0.15      0.00
    9    8    2     -0.03      0.00
  -12    9    2      0.52      0.00
  -11    9    2     -0.03      0.00
  -10    9    2     -0.61      0.00
   -9    9    2     -1.44      0.00
   -8    9    2     -1.23      0.00
   -7    9    2     -0.35      0.00
   -6    9    2      0.27      0.00
   -5    9    2      0.35      0.00
   -4    9    2      0.28      0.00
   -3    9    2     -0.31      0.00
   -2    9    2     -0.52      0.00
   -1    9    2     -0.60      0.00
    0    9    2      0.17      0.00
    1    9    2      1.51      0.00
    2    9    2      0.67      0.00
    3    9    2      0.68      0.00
    4    9    2      0.29      0.00
    5    9    2      0.39      0.00
    6    9    2      0.21      0.00
    7    9    2     -0.01      0.00
    8    9    2      0.35      0.00
  -11   10    2     -0.84      0.00
  -10   10    2     -1.59      0.00
   -9   10    2     -1.33      0.00
   -8   10    2     -0.87      0.00
   -7   10    2      0.14      0.00
   -6   10    2      1.07      0.00
   -5   10    2      0.65      0.00
   -4   10    2      0.04      0.00
   -3   10    2      0.25      0.00
   -2   10    2      0.59      0.00
   -1   10    2      0.88      0.00
    0   10    2      0.78      0.00
    1   10    2     -0.69      0.00
    2   10    2     -0.42      0.00
    3   10    2     -0.12      0.00
    4   10    2      0.22      0.00
    5   10    2     -0.26      0.00
    6   10    2     -0.97      0.00
    7   10    2     -0.20      0.00
  -10   11    2     -0.27      0.00
   -9   11    2     -0.40      0.00
   -8   11    2      0.06      0.00
   -7   11    2      0.80      0.00
   -6   11    2      0.54      0.00
   -5   11    2      0.28      0.00
   -4   11    2      0.31      0.00
   -3   11    2      0.58      0.00
   -2   11    2      0.59      0.00
   -1   11    2     -0.04      0.00
    0   11    2     -0.91      0.00
    1   11    2     -0.10      0.00
    2   11    2      0.33      0.00
    3   11    2     -0.41      0.00
    4   11    2     -1.67      0.00
    5   11    2     -2.00      0.00
    6   11    2     -0.77      0.00
   -9   12    2      0.51      0.00
   -8   12    2      0.37      0.00
   -7   12    2     -0.12      0.00
   -6   12    2     -0.42      0.00
   -5   12    2     -0.46      0.00
   -4   12    2      0.13      0.00
   -3   12    2      0.90      0.00
   -2   12    2      0.68      0.00
   -1   12    2     -0.48      0.00
    0   12    2     -0.69      0.00
    1   12    2      0.06      0.00
    2   12    2     -0.35      0.00
    3   12    2     -1.52      0.00
    4   12    2     -0.90      0.00
    5   12    2      0.52      0.00
   -8   13    2      0.02      0.00
   -7   13    2     -0.11      0.00
   -6   13    2     -0.15      0.00
   -5   13    2     -0.20      0.00
   -4   13    2      0.05      0.00
   -3   13    2      0.41      0.00
   -2   13    2      0.12      0.00
   -1   13    2     -0.58      0.00
    0   13    2     -0.30      0.00
    1   13    2     -0.07      0.00
    2   13    2     -0.46      0.00
    3   13    2      0.40      0.00
   -6   14    2     -0.31      0.00
   -5   14    2     -0.22      0.00
   -4   14    2      0.31      0.00
   -3   14    2      0.52      0.00
   -2   14    2      0.25      0.00
   -1   14    2     -0.29      0.00
    0   14    2     -0.72      0.00
    1   14    2     -1.07      0.00
   -2  -14    3     -0.93      0.00
   -1  -14    3     -1.10      0.00
    0  -14    3     -1.36      0.00
    1  -14    3     -0.46      0.00
    2  -14    3      0.71      0.00
    3  -14    3      0.74      0.00
    4  -14    3      0.57      0.00
    5  -14    3     -0.29      0.00
    6  -14    3     -1.20      0.00
   -4  -13    3     -0.23      0.00
   -3  -13    3     -0.05      0.00
   -2  -13    3     -0.14      0.00
   -1  -13    3     -0.36      0.00
    0  -13    3      0.51      0.00
    1  -13    3      1.44      0.00
    2  -13    3      0.64      0.00
    3  -13    3      0.12      0.00
    4  -13    3     -0.06      0.00
    5  -13    3     -0.01      0.00
    6  -13    3      0.05      0.00
    7  -13    3     -0.58      0.00
    8  -13    3     -1.03      0.00
   -6  -12    3      0.45      0.00
   -5  -12    3      0.41      0.00
   -4  -12    3      0.72      0.00
   -3  -12    3      1.07      0.00
   -2  -12    3      0.75      0.00
   -1  -12    3      0.15      0.00
    0  -12    3      0.67      0.00
    1  -12    3      0.89      0.00
    2  -12    3      0.38      0.00
    3  -12    3      0.04      0.00
    4  -12    3      0.04      0.00
    5  -12    3     -0.08      0.00
    6  -12    3     -0.35      0.00
    7  -12    3     -0.33      0.00
    8  -12    3      0.00      0.00
    9  -12    3     -0.33      0.00
   -7  -11    3      0.04      0.00
   -6  -11    3     -0.20      0.00
   -5  -11    3     -0.31      0.00
   -4  -11    3     -0.15      0.00
   -3  -11    3      0.32      0.00
   -2  -11    3     -0.47      0.00
   -1  -11    3     -0.50      0.00
    0  -11    3      0.71      0.00
    1  -11    3      0.40      0.00
    2  -11    3     -0.55      0.00
    3  -11    3     -1.13      0.00
    4  -11    3     -0.94      0.00
    5  -11    3     -0.57      0.00
    6  -11    3     -0.46      0.00
    7  -11    3      0.06      0.00
    8  -11    3      0.38      0.00
    9  -11    3      0.20      0.00
   10  -11    3     -0.03      0.00
   -8  -10    3     -0.01      0.00
   -7  -10    3     -0.67      0.00
   -6  -10    3     -0.64      0.00
   -5  -10    3     -0.65      0.00
   -4  -10    3      0.28      0.00
   -3  -10    3      0.66      0.00
   -2  -10    3      0.09      0.00
   -1  -10    3      0.09      0.00
    0  -10    3     -0.60      0.00
    1  -10    3     -0.85      0.00
    2  -10    3     -1.06      0.00
    3  -10    3     -0.24      0.00
    4  -10    3      0.89      0.00
    5  -10    3      0.32      0.00
    6  -10    3     -0.70      0.00
    7  -10    3     -0.98      0.00
    8  -10    3      0.09      0.00
    9  -10    3      0.76      0.00
   10  -10    3      0.49      0.00
   11  -10    3     -0.01      0.00
   -9   -9    3      0.62      0.00
   -8   -9    3      0.32      0.00
   -7   -9    3      1.12      0.00
   -6   -9    3      0.84      0.00
   -5   -9    3      0.08      0.00
   -4   -9    3      0.60      0.00
   -3   -9    3      0.58      0.00
   -2   -9    3     -0.50      0.00
   -1   -9    3     -2.04      0.00
    0   -9    3     -1.26      0.00
    1   -9    3      0.18      0.00
    2   -9    3      1.11      0.00
    3   -9    3      1.13      0.00
    4   -9    3      0.60      0.00
    5   -9    3      0.37      0.00
    6   -9    3     -1.08      0.00
    7   -9    3     -1.17      0.00
    8   -9    3      0.02      0.00
    9   -9    3      0.55      0.00
   10   -9    3      0.06      0.00
   11   -9    3      0.24      0.00
  -10   -8    3      0.04      0.00
   -9   -8    3     -0.31      0.00
   -8   -8    3      1.06      0.00
   -7   -8    3      1.76      0.00
   -6   -8    3      0.16      0.00
   -5   -8    3     -0.28      0.00
   -4   -8    3     -0.07      0.00
   -3   -8    3     -0.74      0.00
   -2   -8    3     -2.01      0.00
   -1   -8    3     -1.89      0.00
    0   -8    3      0.00      0.00
    1   -8    3      1.75      0.00
    2   -8    3      1.19      0.00
    3   -8    3      0.08      0.00
    4   -8    3      1.25      0.00
    5   -8    3      1.20      0.00
    6   -8    3      0.60      0.00
    7   -8    3      0.46      0.00
    8   -8    3      0.52      0.00
    9   -8    3      0.07      0.00
   10   -8    3      0.16      0.00
   11   -8    3      0.90      0.00
   12   -8    3      0.95      0.00
  -10   -7    3     -0.56      0.00
   -9   -7    3     -0.06      0.00
   -8   -7    3      0.83      0.00
   -7   -7    3      0.25      0.00
   -6   -7    3     -0.11      0.00
   -5   -7    3     -0.62      0.00
   -4   -7    3     -1.55      0.00
   -3   -7    3     -1.22      0.00
   -2   -7    3     -0.86      0.00
   -1   -7    3     -0.50      0.00
    0   -7    3     -0.66      0.00
    1   -7    3     -1.16      0.00
    2   -7    3     -0.94      0.00
    3   -7    3      1.25      0.00
    4   -7    3      2.37      0.00
    5   -7    3      1.63      0.00
    6   -7    3      0.45      0.00
    7   -7    3     -0.20      0.00
    8   -7    3     -0.36      0.00
    9   -7    3     -0.85      0.00
   10   -7    3     -0.26      0.00
   11   -7    3      0.89      0.00
   12   -7    3      0.17      0.00
  -11   -6    3     -0.16      0.00
  -10   -6    3      0.03      0.00
   -9   -6    3     -0.39      0.00
   -8   -6    3     -1.25      0.00
   -7   -6    3     -1.16      0.00
   -6   -6    3     -0.71      0.00
   -5   -6    3     -1.48      0.00
   -4   -6    3     -0.97      0.00
   -3   -6    3      0.31      0.00
   -2   -6    3      1.42      0.00
   -1   -6    3      0.34      0.00
    0   -6    3     -1.03      0.00
    1   -6    3     -1.12      0.00
    2   -6    3      0.50      0.00
    3   -6    3      1.91      0.00
    4   -6    3      0.43      0.00
    5   -6    3     -0.45      0.00
    6   -6    3     -0.92      0.00
    7   -6    3     -0.71      0.00
    8   -6    3     -0.73      0.00
    9   -6    3     -0.61      0.00
   10   -6    3      0.09      0.00
   11   -6    3      0.45      0.00
   12   -6    3      0.55      0.00
  -12   -5    3     -0.98      0.00
  -11   -5    3     -0.27      0.00
  -10   -5    3     -0.08      0.00
   -9   -5    3     -0.74      0.00
   -8   -5    3     -1.31      0.00
   -7   -5    3     -0.26      0.00
   -6   -5    3      0.13      0.00
   -5   -5    3     -0.20      0.00
   -4   -5    3      0.03      0.00
   -3   -5    3      1.63      0.00
   -2   -5    3      3.75      0.00
   -1   -5    3      5.00      0.00
    0   -5    3      1.57      0.00
    1   -5    3     -3.06      0.00
    2   -5    3     -3.44      0.00
    3   -5    3     -4.12      0.00
    4   -5    3     -1.05      0.00
    5   -5    3      2.12      0.00
    6   -5    3      2.19      0.00
    7   -5    3     -0.19      0.00
    8   -5    3     -1.75      0.00
    9   -5    3     -0.81      0.00
   10   -5    3     -0.33      0.00
   11   -5    3      0.16      0.00
   12   -5    3      0.34      0.00
  -12   -4    3     -0.61      0.00
  -11   -4    3      0.07      0.00
  -10   -4    3      0.80      0.00
   -9   -4    3      0.32      0.00
   -8   -4    3      0.49      0.00
   -7   -4    3      0.87      0.00
   -6   -4    3     -0.28      0.00
   -5   -4    3     -1.53      0.00
   -4   -4    3     -2.23      0.00
   -3   -4    3      1.89      0.00
   -2   -4    3      8.10      0.00
   -1   -4    3      3.07      0.00
    0   -4    3     -8.62      0.00
    1   -4    3    -11.35      0.00
    2   -4    3     -9.40      0.00
    3   -4    3     -3.43      0.00
    4   -4    3      2.26      0.00
    5   -4    3      5.38      0.00
    6   -4    3      3.79      0.00
    7   -4    3     -0.83      0.00
    8   -4    3     -1.51      0.00
    9   -4    3     -0.93      0.00
   10   -4    3     -0.74      0.00
   11   -4    3     -0.91      0.00
   12   -4    3      0.52      0.00
  -12   -3    3     -1.05      0.00
  -11   -3    3     -0.49      0.00
  -10   -3    3     -0.12      0.00
   -9   -3    3     -0.32      0.00
   -8   -3    3     -0.37      0.00
   -7   -3    3     -1.21      0.00
   -6   -3    3     -1.46      0.00
   -5   -3    3     -3.92      0.00
   -4   -3    3     -2.48      0.00
   -3   -3    3      3.82      0.00
   -2   -3    3      2.34      0.00
    0   -3    3     -1.51      0.00
    1   -3    3      1.17      0.00
    2   -3    3      1.47      0.00
    3   -3    3      0.73      0.00
    4   -3    3      2.80      0.00
    5   -3    3      4.27      0.00
    6   -3    3      1.94      0.00
    7   -3    3     -0.02      0.00
    8   -3    3     -1.78      0.00
    9   -3    3     -1.60      0.00
   10   -3    3     -1.56      0.00
   11   -3    3     -0.64      0.00
   12   -3    3      0.79      0.00
   13   -3    3      1.15      0.00
  -13   -2    3     -0.02      0.00
  -12   -2    3     -0.39      0.00
  -11   -2    3     -0.12      0.00
  -10   -2    3     -0.53      0.00
   -9   -2    3     -0.86      0.00
   -8   -2    3     -0.69      0.00
   -7   -2    3      0.98      0.00
   -6   -2    3     -1.14      0.00
   -5   -2    3     -3.65      0.00
   -4   -2    3     -2.57      0.00
   -3   -2    3      1.39      0.00
   -2   -2    3     15.84      0.00
   -1   -2    3     31.47      0.00
    0   -2    3     24.09      0.00
    1   -2    3     -2.65      0.00
    3   -2    3    -13.34      0.00
    4   -2    3     -6.99      0.00
    5   -2    3     -3.77      0.00
    6   -2    3     -1.02      0.00
    7   -2    3     -2.01      0.00
    8   -2    3     -2.30      0.00
    9   -2    3     -1.86      0.00
   10   -2    3     -1.32      0.00
   11   -2    3     -0.17      0.00
   12   -2    3      0.40      0.00
   13   -2    3      0.43      0.00
  -13   -1    3      0.50      0.00
  -12   -1    3      0.19      0.00
  -11   -1    3     -0.57      0.00
  -10   -1    3     -1.06      0.00
   -9   -1    3      0.07      0.00
   -8   -1    3      2.23      0.00
   -7   -1    3      0.99      0.00
   -6   -1    3     -1.78      0.00
   -5   -1    3     -3.19      0.00
   -4   -1    3     -0.57      0.00
   -3   -1    3     17.27      0.00
   -2   -1    3     37.37      0.00
   -1   -1    3     26.48      0.00
    0   -1    3    -18.00      0.00
    1   -1    3    -45.17      0.00
    2   -1    3    -32.15      0.00
    3   -1    3    -15.70      0.00
    4   -1    3     -6.74      0.00
    5   -1    3     -1.85      0.00
    6   -1    3     -0.99      0.00
    7   -1    3     -0.33      0.00
    8   -1    3     -0.31      0.00
    9   -1    3     -0.59      0.00
   10   -1    3      0.08      0.00
   11   -1    3      0.49      0.00
   12   -1    3      0.56      0.00
  -13    0    3      0.02      0.00
  -12    0    3     -0.33      0.00
  -11    0    3     -1.41      0.00
  -10    0    3     -0.71      0.00
   -9    0    3      0.80      0.00
   -8    0    3      0.66      0.00
   -7    0    3     -0.74      0.00
   -6    0    3     -1.49      0.00
   -5    0    3     -2.40      0.00
   -4    0    3     -0.05      0.00
   -3    0    3      6.45      0.00
   -2    0    3     10.51      0.00
   -1    0    3      1.44      0.00
    1    0    3      0.40      0.00
    2    0    3     -0.73      0.00
    3    0    3      0.20      0.00
    4    0    3      1.61      0.00
    5    0    3      0.76      0.00
    6    0    3      2.05      0.00
    7    0    3      2.47      0.00
    8    0    3      1.63      0.00
    9    0    3      0.63      0.00
   10    0    3     -0.28      0.00
   11    0    3     -0.08      0.00
   12    0    3     -0.15      0.00
  -13    1    3      1.78      0.00
  -12    1    3      0.39      0.00
  -11    1    3     -0.74      0.00
  -10    1    3     -1.26      0.00
   -9    1    3     -0.69      0.00
   -8    1    3     -0.06      0.00
   -7    1    3     -0.39      0.00
   -6    1    3     -2.05      0.00
   -5    1    3     -7.09      0.00
   -4    1    3    -11.55      0.00
   -3    1    3     -1.90      0.00
   -2    1    3     23.94      0.00
   -1    1    3     49.87      0.00
    0    1    3     49.89      0.00
    1    1    3     18.97      0.00
    2    1    3      0.79      0.00
    3    1    3     -1.53      0.00
    4    1    3     -1.65      0.00
    5    1    3      0.29      0.00
    6    1    3      1.29      0.00
    7    1    3      1.44      0.00
    8    1    3      0.60      0.00
    9    1    3     -0.30      0.00
   10    1    3     -0.57      0.00
   11    1    3     -0.11      0.00
   12    1    3      0.02      0.00
  -13    2    3      1.19      0.00
  -12    2    3      0.52      0.00
  -11    2    3     -0.13      0.00
  -10    2    3     -0.34      0.00
   -9    2    3      0.73      0.00
   -8    2    3      1.15      0.00
   -7    2    3      0.17      0.00
   -6    2    3     -3.38      0.00
   -5    2    3     -6.93      0.00
   -4    2    3     -5.32      0.00
   -3    2    3     10.15      0.00
   -2    2    3     33.76      0.00
   -1    2    3     37.77      0.00
    0    2    3     12.27      0.00
    1    2    3     -4.61      0.00
    2    2    3     -6.43      0.00
    3    2    3     -5.82      0.00
    4    2    3     -4.26      0.00
    5    2    3     -2.59      0.00
    6    2    3     -0.64      0.00
    7    2    3     -0.24      0.00
    8    2    3      0.59      0.00
    9    2    3      0.80      0.00
   10    2    3      0.24      0.00
   11    2    3     -0.16      0.00
   12    2    3      0.26      0.00
  -13    3    3      0.59      0.00
  -12    3    3      1.19      0.00
  -11    3    3      0.72      0.00
  -10    3    3      0.24      0.00
   -9    3    3      0.03      0.00
   -8    3    3      0.51      0.00
   -7    3    3      0.44      0.00
   -6    3    3      1.11      0.00
   -5    3    3     -1.07      0.00
   -4    3    3     -2.84      0.00
   -3    3    3      0.84      0.00
   -2    3    3      2.95      0.00
   -1    3    3     -2.22      0.00
    0    3    3     -2.61      0.00
    1    3    3      0.24      0.00
    2    3    3     -0.41      0.00
    3    3    3     -2.77      0.00
    4    3    3     -2.78      0.00
    5    3    3     -0.20      0.00
    6    3    3      0.40      0.00
    7    3    3      0.58      0.00
    8    3    3      0.86      0.00
    9    3    3      0.53      0.00
   10    3    3      0.25      0.00
   11    3    3      0.57      0.00
   12    3    3      1.11      0.00
  -13    4    3      0.25      0.00
  -12    4    3     -0.11      0.00
  -11    4    3      0.06      0.00
  -10    4    3     -0.21      0.00
   -9    4    3     -0.01      0.00
   -8    4    3      1.12      0.00
   -7    4    3      2.59      0.00
   -6    4    3      0.22      0.00
   -5    4    3     -4.41      0.00
   -4    4    3     -7.03      0.00
   -3    4    3     -7.36      0.00
   -2    4    3     -4.06      0.00
   -1    4    3      3.09      0.00
    0    4    3      7.66      0.00
    1    4    3      5.64      0.00
    2    4    3      0.18      0.00
    3    4    3     -1.50      0.00
    4    4    3      0.67      0.00
    5    4    3      2.03      0.00
    6    4    3      1.61      0.00
    7    4    3      0.72      0.00
    8    4    3     -0.31      0.00
    9    4    3      0.01      0.00
   10    4    3      0.73      0.00
   11    4    3      0.81      0.00
  -13    5    3     -0.50      0.00
  -12    5    3      0.15      0.00
  -11    5    3      0.80      0.00
  -10    5    3      0.45      0.00
   -9    5    3      0.34      0.00
   -8    5    3      0.54      0.00
   -7    5    3     -0.36      0.00
   -6    5    3     -1.53      0.00
   -5    5    3     -1.52      0.00
   -4    5    3     -1.71      0.00
   -3    5    3     -0.12      0.00
   -2    5    3      3.81      0.00
   -1    5    3      5.57      0.00
    0    5    3      2.91      0.00
    1    5    3     -1.06      0.00
    2    5    3     -0.60      0.00
    3    5    3      1.25      0.00
    4    5    3      1.92      0.00
    5    5    3      1.39      0.00
    6    5    3      1.38      0.00
    7    5    3     -0.24      0.00
    8    5    3     -1.17      0.00
    9    5    3     -0.12      0.00
   10    5    3      0.63      0.00
   11    5    3      0.43      0.00
  -13    6    3     -0.25      0.00
  -12    6    3      0.24      0.00
  -11    6    3      0.18      0.00
  -10    6    3     -0.50      0.00
   -9    6    3     -1.16      0.00
   -8    6    3     -0.40      0.00
   -7    6    3      0.97      0.00
   -6    6    3      2.70      0.00
   -5    6    3      3.00      0.00
   -4    6    3      1.70      0.00
   -3    6    3      1.54      0.00
   -2    6    3      0.58      0.00
   -1    6    3     -1.32      0.00
    0    6    3     -1.89      0.00
    1    6    3      0.38      0.00
    2    6    3      1.13      0.00
    3    6    3      0.09      0.00
    4    6    3     -1.48      0.00
    5    6    3     -0.08      0.00
    6    6    3      0.29      0.00
    7    6    3     -0.82      0.00
    8    6    3     -0.70      0.00
    9    6    3     -0.10      0.00
   10    6    3      0.62      0.00
  -12    7    3      0.59      0.00
  -11    7    3     -0.47      0.00
  -10    7    3     -1.45      0.00
   -9    7    3     -0.48      0.00
   -8    7    3      0.40      0.00
   -7    7    3      1.04      0.00
   -6    7    3      1.49      0.00
   -5    7    3      0.54      0.00
   -4    7    3      0.69      0.00
   -3    7    3     -0.58      0.00
   -2    7    3     -1.74      0.00
   -1    7    3     -0.70      0.00
    0    7    3      0.32      0.00
    1    7    3     -0.40      0.00
    2    7    3     -0.69      0.00
    3    7    3     -1.25      0.00
    4    7    3     -0.10      0.00
    5    7    3      0.26      0.00
    6    7    3     -0.23      0.00
    7    7    3     -0.04      0.00
    8    7    3     -0.36      0.00
    9    7    3     -0.18      0.00
   10    7    3      0.32      0.00
  -12    8    3     -0.64      0.00
  -11    8    3     -0.95      0.00
  -10    8    3      0.39      0.00
   -9    8    3      0.93      0.00
   -8    8    3      0.53      0.00
   -7    8    3      0.08      0.00
   -6    8    3     -0.76      0.00
   -5    8    3      0.19      0.00
   -4    8    3     -0.29      0.00
   -3    8    3     -0.52      0.00
   -2    8    3      0.99      0.00
   -1    8    3      0.32      0.00
    0    8    3     -1.36      0.00
    1    8    3     -0.84      0.00
    2    8    3      0.40      0.00
    3    8    3      1.79      0.00
    4    8    3      1.17      0.00
    5    8    3      0.08      0.00
    6    8    3      0.22      0.00
    7    8    3      0.29      0.00
    8    8    3     -0.16      0.00
    9    8    3     -0.49      0.00
  -12    9    3     -0.20      0.00
  -11    9    3      0.27      0.00
  -10    9    3      0.18      0.00
   -9    9    3     -0.30      0.00
   -8    9    3     -0.89      0.00
   -7    9    3     -1.20      0.00
   -6    9    3     -0.24      0.00
   -5    9    3     -0.68      0.00
   -4    9    3     -1.04      0.00
   -3    9    3      0.10      0.00
   -2    9    3     -0.34      0.00
   -1    9    3     -0.91      0.00
    0    9    3     -0.24      0.00
    1    9    3      0.84      0.00
    2    9    3      1.80      0.00
    3    9    3      1.14      0.00
    4    9    3      0.46      0.00
    5    9    3      0.21      0.00
    6    9    3      0.42      0.00
    7    9    3      0.09      0.00
    8    9    3     -0.38      0.00
  -11   10    3     -0.56      0.00
  -10   10    3     -1.05      0.00
   -9   10    3     -1.65      0.00
   -8   10    3     -1.26      0.00
   -7   10    3      0.05      0.00
   -6   10    3      0.46      0.00
   -5   10    3     -0.11      0.00
   -4   10    3     -0.11      0.00
   -3   10    3      0.01      0.00
   -2   10    3      0.63      0.00
   -1   10    3      0.80      0.00
    0   10    3      0.61      0.00
    1   10    3      0.42      0.00
    2   10    3     -0.54      0.00
    3   10    3     -0.32      0.00
    4   10    3     -0.05      0.00
    5   10    3      0.00      0.00
    6   10    3     -0.78      0.00
    7   10    3     -0.76      0.00
  -10   11    3     -0.99      0.00
   -9   11    3     -0.82      0.00
   -8   11    3     -0.14      0.00
   -7   11    3      1.10      0.00
   -6   11    3      1.14      0.00
   -5   11    3      0.58      0.00
   -4   11    3      0.45      0.00
   -3   11    3      0.78      0.00
   -2   11    3      0.45      0.00
   -1   11    3     -0.37      0.00
    0   11    3     -0.48      0.00
    1   11    3     -0.63      0.00
    2   11    3     -0.08      0.00
    3   11    3     -0.42      0.00
    4   11    3     -1.17      0.00
    5   11    3     -2.03      0.00
    6   11    3     -1.26      0.00
   -9   12    3      0.05      0.00
   -8   12    3      0.59      0.00
   -7   12    3      0.28      0.00
   -6   12    3     -0.03      0.00
   -5   12    3      0.20      0.00
   -4   12    3      0.36      0.00
   -3   12    3      0.61      0.00
   -2   12    3     -0.06      0.00
   -1   12    3     -0.63      0.00
    0   12    3     -0.73      0.00
    1   12    3      0.08      0.00
    2   12    3     -0.37      0.00
    3   12    3     -1.56      0.00
    4   12    3     -1.62      0.00
    5   12    3     -0.09      0.00
   -8   13    3      0.09      0.00
   -7   13    3     -0.10      0.00
   -6   13    3      0.24      0.00
   -5   13    3     -0.01      0.00
   -4   13    3      0.21      0.00
   -3   13    3     -0.23      0.00
   -2   13    3     -0.68      0.00
   -1   13    3     -0.99      0.00
    0   13    3     -0.39      0.00
    1   13    3      0.03      0.00
    2   13    3     -0.64      0.00
    3   13    3     -0.25      0.00
   -6   14    3     -0.79      0.00
   -5   14    3     -0.15      0.00
   -4   14    3      0.07      0.00
   -3   14    3      0.27      0.00
   -2   14    3      0.04      0.00
   -1   14    3     -0.31      0.00
    0   14    3     -0.17      0.00
    1   14    3     -0.66      0.00
   -3  -14    4     -1.02      0.00
   -2  -14    4     -1.24      0.00
   -1  -14    4     -1.26      0.00
    0  -14    4     -1.04      0.00
    1  -14    4     -0.24      0.00
    2  -14    4      0.97      0.00
    3  -14    4      1.22      0.00
    4  -14    4      0.62      0.00
    5  -14    4     -0.23      0.00
    6  -14    4     -0.77      0.00
   -5  -13    4     -0.75      0.00
   -4  -13    4     -0.58      0.00
   -3  -13    4     -0.44      0.00
   -2  -13    4     -0.88      0.00
   -1  -13    4     -0.52      0.00
    0  -13    4      0.53      0.00
    1  -13    4      1.53      0.00
    2  -13    4      1.07      0.00
    3  -13    4      0.29      0.00
    4  -13    4     -0.01      0.00
    5  -13    4     -0.27      0.00
    6  -13    4     -0.20      0.00
    7  -13    4     -0.72      0.00
    8  -13    4     -1.22      0.00
   -6  -12    4      0.31      0.00
   -5  -12    4      0.11      0.00
   -4  -12    4      0.64      0.00
   -3  -12    4      0.78      0.00
   -2  -12    4      0.78      0.00
   -1  -12    4      0.60      0.00
    0  -12    4      0.95      0.00
    1  -12    4      0.80      0.00
    2  -12    4      0.52      0.00
    3  -12    4      0.75      0.00
    4  -12    4      0.42      0.00
    5  -12    4      0.20      0.00
    6  -12    4     -0.40      0.00
    7  -12    4     -0.57      0.00
    8  -12    4      0.08      0.00
    9  -12    4      0.41      0.00
   -7  -11    4      0.70      0.00
   -6  -11    4      0.04      0.00
   -5  -11    4     -0.08      0.00
   -4  -11    4      0.15      0.00
   -3  -11    4      0.28      0.00
   -2  -11    4     -0.49      0.00
   -1  -11    4     -0.61      0.00
    0  -11    4      0.58      0.00
    1  -11    4      0.89      0.00
    2  -11    4      0.20      0.00
    3  -11    4     -0.32      0.00
    4  -11    4     -0.19      0.00
    5  -11    4     -0.95      0.00
    6  -11    4     -0.74      0.00
    7  -11    4      0.49      0.00
    8  -11    4      0.90      0.00
    9  -11    4      0.11      0.00
   10  -11    4      0.02      0.00
   -8  -10    4      0.50      0.00
   -7  -10    4     -0.47      0.00
   -6  -10    4     -0.94      0.00
   -5  -10    4     -0.59      0.00
   -4  -10    4      0.34      0.00
   -3  -10    4      0.52      0.00
   -2  -10    4     -0.51      0.00
   -1  -10    4      0.34      0.00
    0  -10    4      1.10      0.00
    1  -10    4     -0.28      0.00
    2  -10    4     -1.10      0.00
    3  -10    4      0.07      0.00
    4  -10    4      0.67      0.00
    5  -10    4      0.34      0.00
    6  -10    4     -0.39      0.00
    7  -10    4     -0.15      0.00
    8  -10    4      0.74      0.00
    9  -10    4      0.68      0.00
   10  -10    4      0.08      0.00
   -9   -9    4      0.76      0.00
   -8   -9    4      0.41      0.00
   -7   -9    4      0.48      0.00
   -6   -9    4      0.32      0.00
   -5   -9    4      0.09      0.00
   -4   -9    4      0.97      0.00
   -3   -9    4      0.24      0.00
   -2   -9    4     -0.36      0.00
   -1   -9    4     -0.10      0.00
    0   -9    4     -0.37      0.00
    1   -9    4     -0.30      0.00
    2   -9    4      0.20      0.00
    3   -9    4      0.91      0.00
    4   -9    4      1.15      0.00
    5   -9    4     -0.13      0.00
    6   -9    4     -1.29      0.00
    7   -9    4     -0.52      0.00
    8   -9    4      0.26      0.00
    9   -9    4     -0.06      0.00
   10   -9    4      0.15      0.00
   11   -9    4      0.35      0.00
  -10   -8    4     -0.05      0.00
   -9   -8    4     -0.32      0.00
   -8   -8    4      0.88      0.00
   -7   -8    4      1.55      0.00
   -6   -8    4     -0.12      0.00
   -5   -8    4     -0.31      0.00
   -4   -8    4      0.23      0.00
   -3   -8    4     -0.34      0.00
   -2   -8    4     -1.29      0.00
   -1   -8    4     -1.50      0.00
    0   -8    4      0.14      0.00
    1   -8    4      1.33      0.00
    2   -8    4      1.16      0.00
    3   -8    4      0.16      0.00
    4   -8    4      0.11      0.00
    5   -8    4      0.24      0.00
    6   -8    4      0.16      0.00
    7   -8    4      0.37      0.00
    8   -8    4      0.18      0.00
    9   -8    4     -0.03      0.00
   10   -8    4      0.15      0.00
   11   -8    4      1.16      0.00
  -11   -7    4     -0.19      0.00
  -10   -7    4     -1.00      0.00
   -9   -7    4     -0.23      0.00
   -8   -7    4      1.42      0.00
   -7   -7    4      0.86      0.00
   -6   -7    4     -0.23      0.00
   -5   -7    4     -0.18      0.00
   -4   -7    4     -0.96      0.00
   -3   -7    4     -1.48      0.00
   -2   -7    4     -1.42      0.00
   -1   -7    4     -0.87      0.00
    0   -7    4     -0.35      0.00
    1   -7    4     -0.45      0.00
    2   -7    4     -1.57      0.00
    3   -7    4     -0.51      0.00
    4   -7    4      1.46      0.00
    5   -7    4      1.28      0.00
    6   -7    4      0.43      0.00
    7   -7    4     -0.10      0.00
    8   -7    4     -0.34      0.00
    9   -7    4     -0.98      0.00
   10   -7    4      0.37      0.00
   11   -7    4      0.98      0.00
   12   -7    4     -0.10      0.00
  -11   -6    4     -0.03      0.00
  -10   -6    4      0.08      0.00
   -9   -6    4      0.12      0.00
   -8   -6    4     -0.24      0.00
   -7   -6    4     -0.76      0.00
   -6   -6    4     -0.41      0.00
   -5   -6    4     -1.73      0.00
   -4   -6    4     -1.81      0.00
   -3   -6    4      0.21      0.00
   -2   -6    4      0.80      0.00
   -1   -6    4     -0.47      0.00
    0   -6    4     -1.97      0.00
    1   -6    4     -1.91      0.00
    2   -6    4      0.44      0.00
    3   -6    4      2.48      0.00
    4   -6    4      1.55      0.00
    5   -6    4     -0.53      0.00
    6   -6    4     -1.60      0.00
    7   -6    4     -0.95      0.00
    8   -6    4     -0.82      0.00
    9   -6    4     -0.20      0.00
   10   -6    4      0.24      0.00
   11   -6    4      0.49      0.00
   12   -6    4      0.12      0.00
  -12   -5    4     -0.96      0.00
  -11   -5    4     -0.03      0.00
  -10   -5    4     -0.17      0.00
   -9   -5    4     -1.03      0.00
   -8   -5    4     -1.46      0.00
   -7   -5    4     -0.02      0.00
   -6   -5    4     -0.21      0.00
   -5   -5    4     -0.89      0.00
   -4   -5    4      0.61      0.00
   -3   -5    4      2.31      0.00
   -2   -5    4      3.48      0.00
   -1   -5    4      2.67      0.00
    0   -5    4      1.78      0.00
    1   -5    4      0.47      0.00
    2   -5    4     -0.18      0.00
    3   -5    4     -0.22      0.00
    4   -5    4     -0.31      0.00
    5   -5    4      0.66      0.00
    6   -5    4      0.41      0.00
    7   -5    4     -1.05      0.00
    8   -5    4     -1.06      0.00
    9   -5    4     -0.76      0.00
   10   -5    4     -0.21      0.00
   11   -5    4      0.51      0.00
   12   -5    4      0.65      0.00
  -12   -4    4     -0.37      0.00
  -11   -4    4      0.56      0.00
  -10   -4    4      0.58      0.00
   -9   -4    4      0.03      0.00
   -8   -4    4      0.73      0.00
   -7   -4    4      1.38      0.00
   -6   -4    4      0.06      0.00
   -5   -4    4     -1.55      0.00
   -4   -4    4     -1.53      0.00
   -3   -4    4      2.94      0.00
   -2   -4    4      7.54      0.00
   -1   -4    4      6.24      0.00
    0   -4    4     -4.22      0.00
    1   -4    4    -10.66      0.00
    2   -4    4     -7.97      0.00
    3   -4    4     -4.34      0.00
    4   -4    4      1.72      0.00
    5   -4    4      3.77      0.00
    6   -4    4      1.08      0.00
    7   -4    4     -1.28      0.00
    8   -4    4     -1.74      0.00
    9   -4    4     -1.08      0.00
   10   -4    4     -0.95      0.00
   11   -4    4     -0.52      0.00
   12   -4    4      0.92      0.00
  -12   -3    4     -0.38      0.00
  -11   -3    4     -0.07      0.00
  -10   -3    4      0.07      0.00
   -9   -3    4     -0.16      0.00
   -8   -3    4      0.38      0.00
   -7   -3    4     -0.51      0.00
   -6   -3    4     -2.73      0.00
   -5   -3    4     -4.13      0.00
   -4   -3    4     -1.30      0.00
   -3   -3    4      4.99      0.00
   -2   -3    4      5.60      0.00
   -1   -3    4     -6.90      0.00
    0   -3    4    -13.29      0.00
    1   -3    4     -6.65      0.00
    2   -3    4     -2.85      0.00
    3   -3    4      2.55      0.00
    4   -3    4      5.13      0.00
    5   -3    4      4.69      0.00
    6   -3    4      2.54      0.00
    7   -3    4     -0.38      0.00
    8   -3    4     -0.92      0.00
    9   -3    4     -1.59      0.00
   10   -3    4     -1.95      0.00
   11   -3    4     -0.40      0.00
   12   -3    4      1.40      0.00
  -13   -2    4     -0.39      0.00
  -12   -2    4     -0.51      0.00
  -11   -2    4     -0.05      0.00
  -10   -2    4     -0.56      0.00
   -9   -2    4     -0.48      0.00
   -8   -2    4     -0.36      0.00
   -7   -2    4     -0.78      0.00
   -6   -2    4     -1.43      0.00
   -5   -2    4     -3.30      0.00
   -4   -2    4     -2.12      0.00
   -3   -2    4      1.39      0.00
   -2   -2    4      3.96      0.00
   -1   -2    4     12.71      0.00
    0   -2    4     17.23      0.00
    1   -2    4      4.49      0.00
    2   -2    4     -2.65      0.00
    3   -2    4     -2.77      0.00
    4   -2    4     -0.96      0.00
    5   -2    4      0.10      0.00
    6   -2    4     -0.99      0.00
    7   -2    4     -0.95      0.00
    8   -2    4     -1.84      0.00
    9   -2    4     -1.98      0.00
   10   -2    4     -1.25      0.00
   11   -2    4      0.25      0.00
   12   -2    4      0.74      0.00
  -13   -1    4      0.71      0.00
  -12   -1    4      0.51      0.00
  -11   -1    4     -0.44      0.00
  -10   -1    4     -1.07      0.00
   -9   -1    4      0.04      0.00
   -8   -1    4      1.40      0.00
   -7   -1    4      1.52      0.00
   -6   -1    4     -2.24      0.00
   -5   -1    4     -3.67      0.00
   -4   -1    4      0.01      0.00
   -3   -1    4     12.80      0.00
   -2   -1    4     33.29      0.00
   -1   -1    4     30.27      0.00
    0   -1    4     -6.50      0.00
    1   -1    4    -30.21      0.00
    2   -1    4    -25.59      0.00
    3   -1    4    -12.85      0.00
    4   -1    4     -6.41      0.00
    5   -1    4     -3.90      0.00
    6   -1    4     -1.46      0.00
    7   -1    4     -2.12      0.00
    8   -1    4     -1.51      0.00
    9   -1    4     -0.63      0.00
   10   -1    4      0.29      0.00
   11   -1    4      0.81      0.00
   12   -1    4      0.42      0.00
  -13    0    4     -0.21      0.00
  -12    0    4     -0.83      0.00
  -11    0    4     -1.94      0.00
  -10    0    4     -1.04      0.00
   -9    0    4      1.09      0.00
   -8    0    4      1.80      0.00
   -7    0    4     -1.10      0.00
   -6    0    4     -1.28      0.00
   -5    0    4      0.12      0.00
   -4    0    4      4.88      0.00
   -3    0    4     17.05      0.00
   -2    0    4     15.62      0.00
   -1    0    4    -10.02      0.00
    0    0    4    -28.49      0.00
    1    0    4    -22.23      0.00
    2    0    4     -8.56      0.00
    3    0    4     -3.73      0.00
    4    0    4     -1.85      0.00
    5    0    4      0.18      0.00
    6    0    4     -0.46      0.00
    7    0    4      0.62      0.00
    8    0    4      1.35      0.00
    9    0    4      0.86      0.00
   10    0    4      0.52      0.00
   11    0    4      0.26      0.00
   12    0    4     -0.32      0.00
  -13    1    4      1.01      0.00
  -12    1    4     -0.04      0.00
  -11    1    4     -0.94      0.00
  -10    1    4     -0.60      0.00
   -9    1    4     -0.12      0.00
   -8    1    4     -0.78      0.00
   -7    1    4     -0.09      0.00
   -6    1    4     -0.51      0.00
   -5    1    4     -4.12      0.00
   -4    1    4     -4.90      0.00
   -3    1    4     -1.56      0.00
   -2    1    4      5.65      0.00
    0    1    4     17.91      0.00
    1    1    4     12.23      0.00
    2    1    4      2.47      0.00
    3    1    4      0.68      0.00
    4    1    4      1.16      0.00
    5    1    4      0.66      0.00
    6    1    4      1.95      0.00
    7    1    4      2.08      0.00
    8    1    4      0.82      0.00
    9    1    4     -0.03      0.00
   10    1    4     -0.46      0.00
   11    1    4     -0.09      0.00
   12    1    4     -0.14      0.00
  -13    2    4      1.37      0.00
  -12    2    4      0.26      0.00
  -11    2    4     -0.04      0.00
  -10    2    4     -0.33      0.00
   -9    2    4      0.24      0.00
   -8    2    4      1.10      0.00
   -7    2    4      0.18      0.00
   -6    2    4     -3.97      0.00
   -5    2    4     -8.55      0.00
   -4    2    4     -7.96      0.00
   -3    2    4      6.25      0.00
   -2    2    4     26.24      0.00
   -1    2    4     31.69      0.00
    0    2    4     17.45      0.00
    1    2    4      0.30      0.00
    2    2    4     -2.39      0.00
    3    2    4     -2.49      0.00
    4    2    4     -2.73      0.00
    5    2    4     -0.95      0.00
    6    2    4     -0.35      0.00
    7    2    4     -0.43      0.00
    8    2    4      0.25      0.00
    9    2    4      0.20      0.00
   10    2    4     -0.22      0.00
   11    2    4     -0.24      0.00
   12    2    4     -0.06      0.00
  -13    3    4      0.27      0.00
  -12    3    4      0.97      0.00
  -11    3    4      0.84      0.00
  -10    3    4      0.55      0.00
   -9    3    4      0.33      0.00
   -8    3    4      0.28      0.00
   -7    3    4     -0.39      0.00
   -6    3    4     -1.39      0.00
   -5    3    4     -2.64      0.00
   -4    3    4     -0.18      0.00
   -3    3    4      8.46      0.00
   -2    3    4     12.33      0.00
   -1    3    4      5.19      0.00
    0    3    4     -3.95      0.00
    1    3    4     -2.60      0.00
    2    3    4     -1.85      0.00
    3    3    4     -2.87      0.00
    4    3    4     -2.23      0.00
    5    3    4     -1.16      0.00
    6    3    4     -0.65      0.00
    7    3    4     -0.11      0.00
    8    3    4      0.49      0.00
    9    3    4      0.25      0.00
   10    3    4      0.05      0.00
   11    3    4      0.26      0.00
  -13    4    4      0.19      0.00
  -12    4    4      0.10      0.00
  -11    4    4     -0.24      0.00
  -10    4    4     -0.71      0.00
   -9    4    4     -0.31      0.00
   -8    4    4      0.84      0.00
   -7    4    4      2.09      0.00
   -6    4    4      1.27      0.00
   -5    4    4     -2.85      0.00
   -4    4    4     -3.52      0.00
   -3    4    4     -2.95      0.00
   -2    4    4     -2.78      0.00
   -1    4    4     -1.68      0.00
    0    4    4      2.73      0.00
    1    4    4      3.24      0.00
    2    4    4      0.22      0.00
    3    4    4     -1.55      0.00
    4    4    4     -0.03      0.00
    5    4    4      1.59      0.00
    6    4    4      1.01      0.00
    7    4    4      0.22      0.00
    8    4    4     -0.08      0.00
    9    4    4      0.37      0.00
   10    4    4      0.63      0.00
   11    4    4      0.86      0.00
  -13    5    4     -0.38      0.00
  -12    5    4     -0.25      0.00
  -11    5    4      0.18      0.00
  -10    5    4      0.21      0.00
   -9    5    4      0.45      0.00
   -8    5    4      1.20      0.00
   -7    5    4      0.66      0.00
   -6    5    4     -2.67      0.00
   -5    5    4     -3.15      0.00
   -4    5    4     -3.29      0.00
   -3    5    4     -1.82      0.00
   -2    5    4      1.78      0.00
   -1    5    4      4.31      0.00
    0    5    4      3.03      0.00
    1    5    4     -0.41      0.00
    2    5    4     -1.69      0.00
    3    5    4      0.66      0.00
    4    5    4      2.59      0.00
    5    5    4      2.32      0.00
    6    5    4      1.04      0.00
    7    5    4     -0.52      0.00
    8    5    4     -1.03      0.00
    9    5    4     -0.06      0.00
   10    5    4      0.70      0.00
  -13    6    4     -0.53      0.00
  -12    6    4      0.25      0.00
  -11    6    4      0.18      0.00
  -10    6    4     -0.44      0.00
   -9    6    4     -0.25      0.00
   -8    6    4     -0.02      0.00
   -7    6    4     -0.23      0.00
   -6    6    4      1.49      0.00
   -5    6    4      1.39      0.00
   -4    6    4      1.03      0.00
   -3    6    4      2.03      0.00
   -2    6    4      1.41      0.00
   -1    6    4     -0.44      0.00
    0    6    4     -2.02      0.00
    1    6    4     -0.96      0.00
    2    6    4      1.16      0.00
    3    6    4      0.74      0.00
    4    6    4      0.12      0.00
    5    6    4      0.26      0.00
    6    6    4      0.14      0.00
    7    6    4     -1.19      0.00
    8    6    4     -0.89      0.00
    9    6    4      0.34      0.00
   10    6    4      0.36      0.00
  -12    7    4      0.51      0.00
  -11    7    4     -0.30      0.00
  -10    7    4     -1.08      0.00
   -9    7    4     -1.36      0.00
   -8    7    4     -0.44      0.00
   -7    7    4      1.29      0.00
   -6    7    4      1.46      0.00
   -5    7    4      1.16      0.00
   -4    7    4      1.09      0.00
   -3    7    4     -0.04      0.00
   -2    7    4     -1.29      0.00
   -1    7    4     -1.71      0.00
    0    7    4     -0.17      0.00
    1    7    4      0.92      0.00
    2    7    4     -0.22      0.00
    3    7    4     -0.39      0.00
    4    7    4     -0.19      0.00
    5    7    4      0.62      0.00
    6    7    4     -0.27      0.00
    7    7    4     -0.48      0.00
    8    7    4     -0.06      0.00
    9    7    4     -0.22      0.00
  -12    8    4     -0.36      0.00
  -11    8    4     -0.86      0.00
  -10    8    4     -0.54      0.00
   -9    8    4      0.67      0.00
   -8    8    4      0.87      0.00
   -7    8    4      0.36      0.00
   -6    8    4      0.14      0.00
   -5    8    4     -0.06      0.00
   -4    8    4     -0.03      0.00
   -3    8    4     -0.08      0.00
   -2    8    4      0.16      0.00
   -1    8    4      0.72      0.00
    0    8    4     -0.02      0.00
    1    8    4     -0.71      0.00
    2    8    4      0.78      0.00
    3    8    4      1.11      0.00
    4    8    4      1.40      0.00
    5    8    4      0.19      0.00
    6    8    4     -0.08      0.00
    7    8    4      0.34      0.00
    8    8    4     -0.30      0.00
    9    8    4     -0.42      0.00
  -12    9    4     -0.91      0.00
  -11    9    4     -0.06      0.00
  -10    9    4      1.11      0.00
   -9    9    4      0.49      0.00
   -8    9    4     -0.37      0.00
   -7    9    4     -0.74      0.00
   -6    9    4     -1.11      0.00
   -5    9    4     -0.91      0.00
   -4    9    4     -1.06      0.00
   -3    9    4     -0.26      0.00
   -2    9    4      0.44      0.00
   -1    9    4     -0.72      0.00
    0    9    4     -0.97      0.00
    1    9    4      0.97      0.00
    2    9    4      1.52      0.00
    3    9    4      1.76      0.00
    4    9    4      0.57      0.00
    5    9    4      0.09      0.00
    6    9    4      0.62      0.00
    7    9    4      0.26      0.00
    8    9    4     -0.52      0.00
  -11   10    4      0.26      0.00
  -10   10    4     -0.50      0.00
   -9   10    4     -1.14      0.00
   -8   10    4     -1.21      0.00
   -7   10    4     -0.56      0.00
   -6   10    4      0.03      0.00
   -5   10    4     -1.06      0.00
   -4   10    4     -0.82      0.00
   -3   10    4      0.58      0.00
   -2   10    4      0.53      0.00
   -1   10    4      0.33      0.00
    0   10    4      0.97      0.00
    1   10    4      0.73      0.00
    2   10    4      0.26      0.00
    3   10    4     -0.56      0.00
    4   10    4     -0.25      0.00
    5   10    4      0.23      0.00
    6   10    4     -0.21      0.00
    7   10    4     -0.91      0.00
  -10   11    4     -0.95      0.00
   -9   11    4     -1.41      0.00
   -8   11    4     -0.23      0.00
   -7   11    4      1.40      0.00
   -6   11    4      1.03      0.00
   -5   11    4      0.34      0.00
   -4   11    4      0.72      0.00
   -3   11    4      0.92      0.00
   -2   11    4      0.42      0.00
   -1   11    4     -0.22      0.00
    0   11    4     -0.39      0.00
    1   11    4     -0.36      0.00
    2   11    4     -0.80      0.00
    3   11    4     -0.48      0.00
    4   11    4     -0.64      0.00
    5   11    4     -1.39      0.00
    6   11    4     -1.62      0.00
   -9   12    4     -0.17      0.00
   -8   12    4      0.45      0.00
   -7   12    4      0.70      0.00
   -6   12    4      0.36      0.00
   -5   12    4      0.45      0.00
   -4   12    4      0.55      0.00
   -3   12    4      0.23      0.00
   -2   12    4     -0.47      0.00
   -1   12    4     -0.76      0.00
    0   12    4     -0.31      0.00
    1   12    4     -0.25      0.00
    2   12    4     -0.38      0.00
    3   12    4     -1.19      0.00
    4   12    4     -1.49      0.00
   -8   13    4      0.35      0.00
   -7   13    4      0.07      0.00
   -6   13    4      0.78      0.00
   -5   13    4      0.80      0.00
   -4   13    4     -0.11      0.00
   -3   13    4     -0.82      0.00
   -2   13    4     -1.42      0.00
   -1   13    4     -0.94      0.00
    0   13    4     -0.36      0.00
    1   13    4     -0.17      0.00
    2   13    4     -0.74      0.00
    3   13    4     -0.46      0.00
   -5   14    4     -0.64      0.00
   -4   14    4     -0.37      0.00
   -3   14    4     -0.76      0.00
   -2   14    4     -0.32      0.00
   -1   14    4      0.02      0.00
    0   14    4      0.13      0.00
   -3  -14    5     -1.00      0.00
   -2  -14    5     -1.28      0.00
   -1  -14    5     -0.66      0.00
    0  -14    5     -0.25      0.00
    1  -14    5     -0.14      0.00
    2  -14    5      0.94      0.00
    3  -14    5      1.11      0.00
    4  -14    5      0.57      0.00
    5  -14    5      0.02      0.00
    6  -14    5     -0.38      0.00
   -5  -13    5     -1.34      0.00
   -4  -13    5     -0.79      0.00
   -3  -13    5     -1.00      0.00
   -2  -13    5     -1.37      0.00
   -1  -13    5     -0.69      0.00
    0  -13    5      0.46      0.00
    1  -13    5      1.33      0.00
    2  -13    5      1.23      0.00
    3  -13    5      0.47      0.00
    4  -13    5     -0.35      0.00
    5  -13    5     -0.42      0.00
    6  -13    5     -0.07      0.00
    7  -13    5     -0.63      0.00
   -6  -12    5     -0.53      0.00
   -5  -12    5     -0.22      0.00
   -4  -12    5      0.22      0.00
   -3  -12    5      0.30      0.00
   -2  -12    5      0.64      0.00
   -1  -12    5      1.21      0.00
    0  -12    5      1.02      0.00
    1  -12    5      0.82      0.00
    2  -12    5      0.74      0.00
    3  -12    5      0.80      0.00
    4  -12    5      0.62      0.00
    5  -12    5      0.17      0.00
    6  -12    5     -0.24      0.00
    7  -12    5     -0.73      0.00
    8  -12    5     -0.07      0.00
    9  -12    5      0.74      0.00
   -7  -11    5      0.76      0.00
   -6  -11    5      0.31      0.00
   -5  -11    5      0.06      0.00
   -4  -11    5      0.34      0.00
   -3  -11    5      0.18      0.00
   -2  -11    5     -0.22      0.00
   -1  -11    5     -0.56      0.00
    0  -11    5      0.39      0.00
    1  -11    5      0.81      0.00
    2  -11    5      0.95      0.00
    3  -11    5      0.90      0.00
    4  -11    5     -0.10      0.00
    5  -11    5     -0.98      0.00
    6  -11    5     -1.12      0.00
    7  -11    5      0.46      0.00
    8  -11    5      1.24      0.00
    9  -11    5      0.43      0.00
   10  -11    5      0.01      0.00
   -8  -10    5      0.87      0.00
   -7  -10    5      0.04      0.00
   -6  -10    5     -1.04      0.00
   -5  -10    5     -0.37      0.00
   -4  -10    5      0.31      0.00
   -3  -10    5      0.03      0.00
   -2  -10    5     -0.76      0.00
   -1  -10    5      0.63      0.00
    0  -10    5      1.62      0.00
    1  -10    5      0.65      0.00
    2  -10    5     -0.20      0.00
    3  -10    5      0.27      0.00
    4  -10    5      0.77      0.00
    5  -10    5     -0.43      0.00
    6  -10    5     -0.12      0.00
    7  -10    5      0.87      0.00
    8  -10    5      0.95      0.00
    9  -10    5      0.29      0.00
   10  -10    5      0.25      0.00
   -9   -9    5      0.88      0.00
   -8   -9    5      0.78      0.00
   -7   -9    5     -0.26      0.00
   -6   -9    5     -0.13      0.00
   -5   -9    5      0.38      0.00
   -4   -9    5      0.85      0.00
   -3   -9    5     -0.04      0.00
   -2   -9    5     -0.05      0.00
   -1   -9    5      1.54      0.00
    0   -9    5      1.26      0.00
    1   -9    5     -0.60      0.00
    2   -9    5     -0.63      0.00
    3   -9    5      1.23      0.00
    4   -9    5      0.92      0.00
    5   -9    5     -0.09      0.00
    6   -9    5     -0.74      0.00
    7   -9    5      0.03      0.00
    8   -9    5      0.33      0.00
    9   -9    5     -0.40      0.00
   10   -9    5     -0.05      0.00
   11   -9    5      1.00      0.00
  -10   -8    5     -0.07      0.00
   -9   -8    5      0.21      0.00
   -8   -8    5      0.50      0.00
   -7   -8    5      0.71      0.00
   -6   -8    5     -0.33      0.00
   -5   -8    5     -0.32      0.00
   -4   -8    5      0.34      0.00
   -3   -8    5     -0.16      0.00
   -2   -8    5      0.24      0.00
   -1   -8    5      0.46      0.00
    0   -8    5      0.07      0.00
    1   -8    5      0.18      0.00
    2   -8    5      0.92      0.00
    3   -8    5      0.45      0.00
    4   -8    5      0.07      0.00
    5   -8    5     -0.38      0.00
    6   -8    5      0.03      0.00
    7   -8    5      0.63      0.00
    8   -8    5     -0.38      0.00
    9   -8    5     -0.65      0.00
   10   -8    5      0.76      0.00
   11   -8    5      0.98      0.00
  -11   -7    5     -0.46      0.00
  -10   -7    5     -1.06      0.00
   -9   -7    5     -0.36      0.00
   -8   -7    5      1.31      0.00
   -7   -7    5      0.91      0.00
   -6   -7    5     -0.30      0.00
   -5   -7    5      0.31      0.00
   -4   -7    5      0.04      0.00
   -3   -7    5     -0.52      0.00
   -2   -7    5     -0.79      0.00
   -1   -7    5     -0.56      0.00
    0   -7    5     -0.12      0.00
    1   -7    5     -0.11      0.00
    2   -7    5     -1.54      0.00
    3   -7    5     -1.68      0.00
    4   -7    5      0.21      0.00
    5   -7    5      0.94      0.00
    6   -7    5      0.89      0.00
    7   -7    5     -0.02      0.00
    8   -7    5     -0.89      0.00
    9   -7    5     -0.58      0.00
   10   -7    5      0.58      0.00
   11   -7    5      1.26      0.00
   12   -7    5     -0.15      0.00
  -11   -6    5      0.24      0.00
  -10   -6    5      0.08      0.00
   -9   -6    5      0.70      0.00
   -8   -6    5      0.93      0.00
   -7   -6    5     -0.20      0.00
   -6   -6    5     -0.36      0.00
   -5   -6    5     -0.95      0.00
   -4   -6    5     -1.63      0.00
   -3   -6    5     -0.18      0.00
   -2   -6    5      0.65      0.00
   -1   -6    5     -1.14      0.00
    0   -6    5     -2.28      0.00
    1   -6    5     -2.32      0.00
    2   -6    5     -1.29      0.00
    3   -6    5      1.71      0.00
    4   -6    5      1.35      0.00
    5   -6    5     -0.55      0.00
    6   -6    5     -1.49      0.00
    7   -6    5     -1.10      0.00
    8   -6    5     -0.49      0.00
    9   -6    5     -0.11      0.00
   10   -6    5      1.14      0.00
   11   -6    5      0.46      0.00
   12   -6    5     -0.27      0.00
  -12   -5    5     -0.14      0.00
  -11   -5    5      0.11      0.00
  -10   -5    5     -0.23      0.00
   -9   -5    5     -0.69      0.00
   -8   -5    5     -1.16      0.00
   -7   -5    5     -0.42      0.00
   -6   -5    5     -0.20      0.00
   -5   -5    5     -1.66      0.00
   -4   -5    5      0.75      0.00
   -3   -5    5      3.48      0.00
   -2   -5    5      2.03      0.00
   -1   -5    5      0.70      0.00
    0   -5    5      0.92      0.00
    1   -5    5      1.47      0.00
    2   -5    5      3.11      0.00
    3   -5    5      1.87      0.00
    4   -5    5      0.18      0.00
    5   -5    5     -0.72      0.00
    6   -5    5     -0.85      0.00
    7   -5    5     -0.26      0.00
    8   -5    5     -0.55      0.00
    9   -5    5      0.17      0.00
   10   -5    5      0.15      0.00
   11   -5    5      0.84      0.00
   12   -5    5      0.92      0.00
  -12   -4    5     -0.32      0.00
  -11   -4    5      0.52      0.00
  -10   -4    5      0.17      0.00
   -9   -4    5     -0.39      0.00
   -8   -4    5      0.59      0.00
   -7   -4    5      1.85      0.00
   -6   -4    5     -0.55      0.00
   -5   -4    5     -1.04      0.00
   -4   -4    5      0.20      0.00
   -3   -4    5      2.29      0.00
   -2   -4    5      6.70      0.00
   -1   -4    5      6.75      0.00
    0   -4    5      0.56      0.00
    1   -4    5     -4.50      0.00
    2   -4    5     -4.96      0.00
    3   -4    5     -2.08      0.00
    4   -4    5      0.05      0.00
    5   -4    5      0.64      0.00
    6   -4    5     -0.15      0.00
    7   -4    5     -1.76      0.00
    8   -4    5     -1.20      0.00
    9   -4    5     -1.32      0.00
   10   -4    5     -0.42      0.00
   11   -4    5      0.53      0.00
   12   -4    5      1.14      0.00
  -12   -3    5      0.47      0.00
  -11   -3    5      0.30      0.00
  -10   -3    5     -0.30      0.00
   -9   -3    5      0.06      0.00
   -8   -3    5      1.15      0.00
   -7   -3    5     -0.78      0.00
   -6   -3    5     -2.83      0.00
   -5   -3    5     -4.05      0.00
   -4   -3    5     -1.33      0.00
   -3   -3    5      6.91      0.00
   -2   -3    5      7.72      0.00
   -1   -3    5     -3.93      0.00
    0   -3    5    -15.63      0.00
    1   -3    5    -13.59      0.00
    2   -3    5     -5.22      0.00
    3   -3    5     -0.58      0.00
    4   -3    5      3.08      0.00
    5   -3    5      3.19      0.00
    6   -3    5      0.71      0.00
    7   -3    5      0.11      0.00
    8   -3    5     -0.97      0.00
    9   -3    5     -1.54      0.00
   10   -3    5     -1.46      0.00
   11   -3    5     -0.03      0.00
   12   -3    5      1.54      0.00
  -13   -2    5     -0.24      0.00
  -12   -2    5     -0.41      0.00
  -11   -2    5     -0.54      0.00
  -10   -2    5     -0.38      0.00
   -9   -2    5     -0.13      0.00
   -8   -2    5     -0.76      0.00
   -7   -2    5     -1.72      0.00
   -6   -2    5     -2.74      0.00
   -5   -2    5     -2.62      0.00
   -4   -2    5      0.17      0.00
   -3   -2    5      0.50      0.00
   -2   -2    5     -2.50      0.00
   -1   -2    5     -4.35      0.00
    0   -2    5      1.87      0.00
    1   -2    5      4.99      0.00
    2   -2    5      1.49      0.00
    3   -2    5      3.39      0.00
    4   -2    5      3.09      0.00
    5   -2    5      1.18      0.00
    6   -2    5      0.81      0.00
    7   -2    5     -0.09      0.00
    8   -2    5     -0.55      0.00
    9   -2    5     -1.48      0.00
   10   -2    5     -1.17      0.00
   11   -2    5      0.55      0.00
   12   -2    5      0.87      0.00
  -13   -1    5      0.70      0.00
  -12   -1    5      0.65      0.00
  -11   -1    5      0.19      0.00
  -10   -1    5     -0.86      0.00
   -9   -1    5     -0.11      0.00
   -8   -1    5      0.59      0.00
   -7   -1    5      0.07      0.00
   -6   -1    5     -1.38      0.00
   -5   -1    5     -3.17      0.00
   -4   -1    5     -2.80      0.00
   -3   -1    5      5.27      0.00
   -2   -1    5     18.04      0.00
   -1   -1    5     23.60      0.00
    0   -1    5      7.57      0.00
    1   -1    5    -12.48      0.00
    2   -1    5    -10.66      0.00
    3   -1    5     -6.32      0.00
    4   -1    5     -4.31      0.00
    5   -1    5     -2.20      0.00
    6   -1    5     -1.99      0.00
    7   -1    5     -1.45      0.00
    8   -1    5     -1.45      0.00
    9   -1    5     -0.81      0.00
   10   -1    5      0.43      0.00
   11   -1    5      0.83      0.00
   12   -1    5      0.27      0.00
  -13    0    5      0.09      0.00
  -12    0    5     -0.58      0.00
  -11    0    5     -2.26      0.00
  -10    0    5     -1.21      0.00
   -9    0    5      1.04      0.00
   -8    0    5      1.40      0.00
   -7    0    5     -0.14      0.00
   -6    0    5     -1.64      0.00
   -5    0    5      0.06      0.00
   -4    0    5      6.59      0.00
   -3    0    5     17.47      0.00
   -2    0    5     19.27      0.00
   -1    0    5     -3.73      0.00
    0    0    5    -27.96      0.00
    1    0    5    -22.59      0.00
    2    0    5    -11.97      0.00
    3    0    5     -6.66      0.00
    4    0    5     -3.66      0.00
    5    0    5     -2.83      0.00
    6    0    5     -2.00      0.00
    7    0    5     -1.43      0.00
    8    0    5      0.51      0.00
    9    0    5      1.13      0.00
   10    0    5      0.84      0.00
   11    0    5      0.23      0.00
   12    0    5     -0.43      0.00
  -13    1    5      0.05      0.00
  -12    1    5     -0.78      0.00
  -11    1    5     -1.11      0.00
  -10    1    5     -0.26      0.00
   -9    1    5      0.18      0.00
   -8    1    5     -0.31      0.00
   -7    1    5     -0.66      0.00
   -6    1    5      1.06      0.00
   -5    1    5      0.60      0.00
   -4    1    5      1.59      0.00
   -3    1    5      3.42      0.00
   -2    1    5     -3.25      0.00
    0    1    5     -4.49      0.00
    1    1    5      0.17      0.00
    2    1    5     -0.06      0.00
    3    1    5     -0.66      0.00
    4    1    5     -0.39      0.00
    5    1    5      0.71      0.00
    6    1    5      0.75      0.00
    7    1    5      2.07      0.00
    8    1    5      1.48      0.00
    9    1    5      0.12      0.00
   10    1    5     -0.19      0.00
   11    1    5      0.15      0.00
   12    1    5     -0.23      0.00
  -13    2    5      1.15      0.00
  -12    2    5      0.15      0.00
  -11    2    5      0.10      0.00
  -10    2    5     -0.08      0.00
   -9    2    5     -0.01      0.00
   -8    2    5      0.44      0.00
   -7    2    5      1.19      0.00
   -6    2    5     -2.69      0.00
   -5    2    5     -7.25      0.00
   -4    2    5     -6.66      0.00
   -3    2    5     -0.07      0.00
   -2    2    5     10.08      0.00
   -1    2    5     17.09      0.00
    0    2    5     12.83      0.00
    1    2    5      4.99      0.00
    2    2    5      0.57      0.00
    3    2    5     -0.38      0.00
    4    2    5      0.06      0.00
    5    2    5     -0.02      0.00
    6    2    5      0.77      0.00
    7    2    5      0.48      0.00
    8    2    5     -0.08      0.00
    9    2    5     -0.08      0.00
   10    2    5      0.00      0.00
   11    2    5     -0.16      0.00
  -13    3    5     -0.16      0.00
  -12    3    5      0.79      0.00
  -11    3    5      1.21      0.00
  -10    3    5      0.71      0.00
   -9    3    5      0.49      0.00
   -8    3    5      0.58      0.00
   -7    3    5     -1.21      0.00
   -6    3    5     -3.57      0.00
   -5    3    5     -4.37      0.00
   -4    3    5     -0.11      0.00
   -3    3    5      9.89      0.00
   -2    3    5     15.46      0.00
   -1    3    5      9.56      0.00
    0    3    5      1.00      0.00
    1    3    5     -2.08      0.00
    2    3    5     -1.14      0.00
    3    3    5     -1.15      0.00
    4    3    5     -1.52      0.00
    5    3    5     -1.07      0.00
    6    3    5     -0.92      0.00
    7    3    5     -0.81      0.00
    8    3    5      0.03      0.00
    9    3    5      0.04      0.00
   10    3    5     -0.29      0.00
   11    3    5      0.03      0.00
  -13    4    5      0.27      0.00
  -12    4    5      0.40      0.00
  -11    4    5     -0.25      0.00
  -10    4    5     -0.75      0.00
   -9    4    5     -0.79      0.00
   -8    4    5     -0.01      0.00
   -7    4    5      0.73      0.00
   -6    4    5      0.38      0.00
   -5    4    5     -0.63      0.00
   -4    4    5      0.92      0.00
   -3    4    5      2.95      0.00
   -2    4    5      0.47      0.00
   -1    4    5     -2.33      0.00
    0    4    5     -1.24      0.00
    1    4    5      1.38      0.00
    2    4    5      0.28      0.00
    3    4    5     -1.23      0.00
    4    4    5     -0.69      0.00
    5    4    5      0.45      0.00
    6    4    5     -0.28      0.00
    7    4    5     -0.29      0.00
    8    4    5      0.09      0.00
    9    4    5      0.20      0.00
   10    4    5      0.52      0.00
   11    4    5      0.64      0.00
  -13    5    5     -0.27      0.00
  -12    5    5     -0.29      0.00
  -11    5    5     -0.42      0.00
  -10    5    5     -0.65      0.00
   -9    5    5      0.42      0.00
   -8    5    5      1.12      0.00
   -7    5    5      0.57      0.00
   -6    5    5     -1.88      0.00
   -5    5    5     -3.62      0.00
   -4    5    5     -2.46      0.00
   -3    5    5     -2.42      0.00
   -2    5    5     -0.99      0.00
   -1    5    5      1.41      0.00
    0    5    5      2.01      0.00
    1    5    5     -0.41      0.00
    2    5    5     -1.90      0.00
    3    5    5     -0.36      0.00
    4    5    5      2.49      0.00
    5    5    5      1.85      0.00
    6    5    5      0.42      0.00
    7    5    5     -0.52      0.00
    8    5    5     -0.81      0.00
    9    5    5     -0.02      0.00
   10    5    5      0.22      0.00
  -13    6    5     -0.04      0.00
  -12    6    5      0.04      0.00
  -11    6    5     -0.26      0.00
  -10    6    5      0.00      0.00
   -9    6    5      0.40      0.00
   -8    6    5      0.80      0.00
   -7    6    5     -0.20      0.00
   -6    6    5     -1.14      0.00
   -5    6    5      0.23      0.00
   -4    6    5     -0.51      0.00
   -3    6    5      0.49      0.00
   -2    6    5      1.31      0.00
   -1    6    5     -0.34      0.00
    0    6    5     -1.75      0.00
    1    6    5     -1.61      0.00
    2    6    5     -0.21      0.00
    3    6    5      1.48      0.00
    4    6    5      0.72      0.00
    5    6    5      0.21      0.00
    6    6    5     -0.44      0.00
    7    6    5     -1.27      0.00
    8    6    5     -0.71      0.00
    9    6    5      0.03      0.00
   10    6    5      0.20      0.00
  -12    7    5      0.45      0.00
  -11    7    5      0.05      0.00
  -10    7    5     -0.84      0.00
   -9    7    5     -0.85      0.00
   -8    7    5     -0.80      0.00
   -7    7    5     -0.12      0.00
   -6    7    5      1.51      0.00
   -5    7    5      0.16      0.00
   -4    7    5      0.58      0.00
   -3    7    5      0.62      0.00
   -2    7    5     -1.48      0.00
   -1    7    5     -1.52      0.00
    0    7    5     -0.49      0.00
    1    7    5      0.41      0.00
    2    7    5      0.72      0.00
    3    7    5     -0.21      0.00
    4    7    5      0.16      0.00
    5    7    5      0.17      0.00
    6    7    5     -0.34      0.00
    7    7    5     -0.45      0.00
    8    7    5     -0.15      0.00
    9    7    5     -0.06      0.00
  -12    8    5      0.21      0.00
  -11    8    5     -0.58      0.00
  -10    8    5     -0.70      0.00
   -9    8    5     -0.61      0.00
   -8    8    5      0.28      0.00
   -7    8    5      1.08      0.00
   -6    8    5     -0.27      0.00
   -5    8    5      0.10      0.00
   -4    8    5      0.59      0.00
   -3    8    5     -0.12      0.00
   -2    8    5      0.41      0.00
   -1    8    5      0.59      0.00
    0    8    5      0.59      0.00
    1    8    5      0.45      0.00
    2    8    5      0.23      0.00
    3    8    5      1.16      0.00
    4    8    5      0.89      0.00
    5    8    5      0.25      0.00
    6    8    5     -0.30      0.00
    7    8    5      0.02      0.00
    8    8    5     -0.26      0.00
  -11    9    5     -0.21      0.00
  -10    9    5      0.51      0.00
   -9    9    5      0.97      0.00
   -8    9    5      0.41      0.00
   -7    9    5     -0.72      0.00
   -6    9    5     -0.87      0.00
   -5    9    5     -0.79      0.00
   -4    9    5     -0.46      0.00
   -3    9    5      0.49      0.00
   -2    9    5      0.24      0.00
   -1    9    5     -0.42      0.00
    0    9    5     -0.64      0.00
    1    9    5     -0.06      0.00
    2    9    5      1.42      0.00
    3    9    5      1.38      0.00
    4    9    5      0.86      0.00
    5    9    5     -0.05      0.00
    6    9    5      0.51      0.00
    7    9    5      0.41      0.00
    8    9    5     -0.60      0.00
  -11   10    5      0.40      0.00
  -10   10    5      0.40      0.00
   -9   10    5     -0.59      0.00
   -8   10    5     -0.80      0.00
   -7   10    5     -0.57      0.00
   -6   10    5     -0.89      0.00
   -5   10    5     -1.36      0.00
   -4   10    5     -0.75      0.00
   -3   10    5      0.39      0.00
   -2   10    5      0.48      0.00
   -1   10    5      0.09      0.00
    0   10    5      0.49      0.00
    1   10    5      1.33      0.00
    2   10    5      0.49      0.00
    3   10    5     -0.16      0.00
    4   10    5     -0.44      0.00
    5   10    5      0.47      0.00
    6   10    5      0.32      0.00
    7   10    5     -0.70      0.00
  -10   11    5     -0.96      0.00
   -9   11    5     -1.16      0.00
   -8   11    5     -0.23      0.00
   -7   11    5      1.17      0.00
   -6   11    5      0.74      0.00
   -5   11    5     -0.25      0.00
   -4   11    5      0.72      0.00
   -3   11    5      1.25      0.00
   -2   11    5      0.48      0.00
   -1   11    5     -0.19      0.00
    0   11    5      0.28      0.00
    1   11    5     -0.18      0.00
    2   11    5     -0.87      0.00
    3   11    5     -0.72      0.00
    4   11    5     -0.01      0.00
    5   11    5     -0.76      0.00
   -9   12    5     -0.73      0.00
   -8   12    5      0.65      0.00
   -7   12    5      0.93      0.00
   -6   12    5      0.14      0.00
   -5   12    5      0.40      0.00
   -4   12    5      0.52      0.00
   -3   12    5      0.21      0.00
   -2   12    5     -0.60      0.00
   -1   12    5     -0.39      0.00
    0   12    5      0.00      0.00
    1   12    5     -0.36      0.00
    2   12    5     -0.45      0.00
    3   12    5     -0.35      0.00
    4   12    5     -1.15      0.00
   -7   13    5      0.34      0.00
   -6   13    5      1.34      0.00
   -5   13    5      1.15      0.00
   -4   13    5      0.06      0.00
   -3   13    5     -1.28      0.00
   -2   13    5     -1.35      0.00
   -1   13    5     -0.57      0.00
    0   13    5     -0.39      0.00
    1   13    5     -0.48      0.00
    2   13    5     -0.50      0.00
   -5   14    5     -0.52      0.00
   -4   14    5     -1.55      0.00
   -3   14    5     -1.45      0.00
   -2   14    5     -0.53      0.00
   -1   14    5      0.26      0.00
   -3  -14    6     -0.99      0.00
   -2  -14    6     -0.42      0.00
   -1  -14    6      0.42      0.00
    0  -14    6      0.75      0.00
    1  -14    6      0.10      0.00
    2  -14    6      0.34      0.00
    3  -14    6      0.89      0.00
    4  -14    6      0.36      0.00
    5  -14    6      0.19      0.00
    6  -14    6      0.07      0.00
   -5  -13    6     -1.30      0.00
   -4  -13    6     -1.06      0.00
   -3  -13    6     -0.93      0.00
   -2  -13    6     -1.34      0.00
   -1  -13    6     -0.61      0.00
    0  -13    6      0.09      0.00
    1  -13    6      0.75      0.00
    2  -13    6      1.19      0.00
    3  -13    6      0.26      0.00
    4  -13    6     -0.49      0.00
    5  -13    6     -0.47      0.00
    6  -13    6      0.12      0.00
    7  -13    6     -0.18      0.00
   -6  -12    6     -1.35      0.00
   -5  -12    6     -0.85      0.00
   -4  -12    6     -0.13      0.00
   -3  -12    6     -0.25      0.00
   -2  -12    6      0.47      0.00
   -1  -12    6      1.40      0.00
    0  -12    6      1.10      0.00
    1  -12    6      0.74      0.00
    2  -12    6      0.82      0.00
    3  -12    6      0.61      0.00
    4  -12    6     -0.07      0.00
    5  -12    6      0.33      0.00
    6  -12    6      0.15      0.00
    7  -12    6     -0.72      0.00
    8  -12    6     -0.33      0.00
   -7  -11    6      0.28      0.00
   -6  -11    6      0.08      0.00
   -5  -11    6      0.22      0.00
   -4  -11    6      0.35      0.00
   -3  -11    6      0.13      0.00
   -2  -11    6      0.27      0.00
   -1  -11    6     -0.09      0.00
    0  -11    6     -0.21      0.00
    1  -11    6      0.79      0.00
    2  -11    6      1.40      0.00
    3  -11    6      0.91      0.00
    4  -11    6      0.16      0.00
    5  -11    6     -1.11      0.00
    6  -11    6     -1.14      0.00
    7  -11    6      0.25      0.00
    8  -11    6      1.15      0.00
    9  -11    6      0.62      0.00
   -8  -10    6      0.94      0.00
   -7  -10    6      0.29      0.00
   -6  -10    6     -0.68      0.00
   -5  -10    6     -0.12      0.00
   -4  -10    6      0.07      0.00
   -3  -10    6     -0.24      0.00
   -2  -10    6     -0.51      0.00
   -1  -10    6      0.26      0.00
    0  -10    6      1.53      0.00
    1  -10    6      1.00      0.00
    2  -10    6      0.64      0.00
    3  -10    6      1.00      0.00
    4  -10    6     -0.04      0.00
    5  -10    6     -0.87      0.00
    6  -10    6     -0.12      0.00
    7  -10    6      1.14      0.00
    8  -10    6      0.86      0.00
    9  -10    6      0.16      0.00
   10  -10    6      0.18      0.00
   -9   -9    6      0.81      0.00
   -8   -9    6      0.89      0.00
   -7   -9    6     -0.51      0.00
   -6   -9    6     -0.34      0.00
   -5   -9    6      0.65      0.00
   -4   -9    6      0.65      0.00
   -3   -9    6     -0.18      0.00
   -2   -9    6      0.24      0.00
   -1   -9    6      2.40      0.00
    0   -9    6      1.80      0.00
    1   -9    6     -0.24      0.00
    2   -9    6     -0.30      0.00
    3   -9    6      0.85      0.00
    4   -9    6      0.82      0.00
    5   -9    6     -0.45      0.00
    6   -9    6     -0.20      0.00
    7   -9    6      0.41      0.00
    8   -9    6     -0.10      0.00
    9   -9    6     -0.77      0.00
   10   -9    6      0.33      0.00
   11   -9    6      1.02      0.00
  -10   -8    6     -0.02      0.00
   -9   -8    6      0.72      0.00
   -8   -8    6      0.25      0.00
   -7   -8    6     -0.33      0.00
   -6   -8    6     -0.27      0.00
   -5   -8    6     -0.20      0.00
   -4   -8    6     -0.07      0.00
   -3   -8    6     -0.07      0.00
   -2   -8    6      1.56      0.00
   -1   -8    6      2.05      0.00
    0   -8    6      0.14      0.00
    1   -8    6     -1.00      0.00
    2   -8    6      0.37      0.00
    3   -8    6      1.39      0.00
    4   -8    6      0.03      0.00
    5   -8    6     -0.51      0.00
    6   -8    6      0.13      0.00
    7   -8    6      0.35      0.00
    8   -8    6     -0.99      0.00
    9   -8    6     -0.63      0.00
   10   -8    6      0.89      0.00
   11   -8    6      1.15      0.00
  -11   -7    6     -0.78      0.00
  -10   -7    6     -0.91      0.00
   -9   -7    6     -0.31      0.00
   -8   -7    6      0.40      0.00
   -7   -7    6      0.48      0.00
   -6   -7    6     -0.23      0.00
   -5   -7    6      0.54      0.00
   -4   -7    6      0.80      0.00
   -3   -7    6      0.72      0.00
   -2   -7    6      0.90      0.00
   -1   -7    6      0.11      0.00
    0   -7    6     -0.31      0.00
    1   -7    6     -0.15      0.00
    2   -7    6     -0.68      0.00
    3   -7    6     -1.70      0.00
    4   -7    6     -0.56      0.00
    5   -7    6      0.87      0.00
    6   -7    6      1.37      0.00
    7   -7    6      0.00      0.00
    8   -7    6     -1.13      0.00
    9   -7    6     -0.48      0.00
   10   -7    6      1.15      0.00
   11   -7    6      0.84      0.00
  -11   -6    6      0.11      0.00
  -10   -6    6      0.21      0.00
   -9   -6    6      1.00      0.00
   -8   -6    6      1.51      0.00
   -7   -6    6      0.36      0.00
   -6   -6    6      0.15      0.00
   -5   -6    6      0.13      0.00
   -4   -6    6     -0.49      0.00
   -3   -6    6      0.36      0.00
   -2   -6    6      0.40      0.00
   -1   -6    6     -0.76      0.00
    0   -6    6     -2.27      0.00
    1   -6    6     -2.66      0.00
    2   -6    6     -2.60      0.00
    3   -6    6     -0.57      0.00
    4   -6    6      0.91      0.00
    5   -6    6      0.06      0.00
    6   -6    6     -0.67      0.00
    7   -6    6     -0.84      0.00
    8   -6    6     -0.78      0.00
    9   -6    6      0.61      0.00
   10   -6    6      1.41      0.00
   11   -6    6      0.63      0.00
   12   -6    6     -0.28      0.00
  -12   -5    6      0.65      0.00
  -11   -5    6      0.39      0.00
  -10   -5    6      0.03      0.00
   -9   -5    6     -0.09      0.00
   -8   -5    6     -0.46      0.00
   -7   -5    6     -0.59      0.00
   -6   -5    6     -0.45      0.00
   -5   -5    6     -1.12      0.00
   -4   -5    6      0.95      0.00
   -3   -5    6      3.49      0.00
   -2   -5    6      1.93      0.00
   -1   -5    6     -1.61      0.00
    0   -5    6     -0.59      0.00
    1   -5    6      1.33      0.00
    2   -5    6      2.48      0.00
    3   -5    6      2.72      0.00
    4   -5    6     -0.26      0.00
    5   -5    6     -1.04      0.00
    6   -5    6     -0.18      0.00
    7   -5    6      0.19      0.00
    8   -5    6      0.66      0.00
    9   -5    6      1.00      0.00
   10   -5    6      1.14      0.00
   11   -5    6      0.68      0.00
   12   -5    6      0.71      0.00
  -12   -4    6     -0.19      0.00
  -11   -4    6      0.05      0.00
  -10   -4    6     -0.44      0.00
   -9   -4    6     -0.35      0.00
   -8   -4    6      0.21      0.00
   -7   -4    6      1.27      0.00
   -6   -4    6      0.00      0.00
   -5   -4    6     -0.65      0.00
   -4   -4    6      1.78      0.00
   -3   -4    6      2.89      0.00
   -2   -4    6      3.08      0.00
   -1   -4    6      5.57      0.00
    0   -4    6      3.91      0.00
    1   -4    6      0.46      0.00
    2   -4    6      0.90      0.00
    3   -4    6     -0.72      0.00
    4   -4    6     -0.78      0.00
    5   -4    6     -0.53      0.00
    6   -4    6     -0.64      0.00
    7   -4    6     -0.41      0.00
    8   -4    6     -0.91      0.00
    9   -4    6     -0.43      0.00
   10   -4    6      0.29      0.00
   11   -4    6      1.26      0.00
   12   -4    6      1.26      0.00
  -13   -3    6     -0.15      0.00
  -12   -3    6      0.78      0.00
  -11   -3    6      0.20      0.00
  -10   -3    6     -0.43      0.00
   -9   -3    6     -0.16      0.00
   -8   -3    6      1.21      0.00
   -7   -3    6      0.04      0.00
   -6   -3    6     -3.07      0.00
   -5   -3    6     -2.85      0.00
   -4   -3    6     -0.71      0.00
   -3   -3    6      5.29      0.00
   -2   -3    6     10.10      0.00
   -1   -3    6      0.98      0.00
    0   -3    6    -11.64      0.00
    1   -3    6    -11.41      0.00
    2   -3    6     -6.88      0.00
    3   -3    6     -2.33      0.00
    4   -3    6     -0.53      0.00
    5   -3    6      0.04      0.00
    6   -3    6      0.51      0.00
    7   -3    6     -0.62      0.00
    8   -3    6     -0.89      0.00
    9   -3    6     -1.48      0.00
   10   -3    6     -0.50      0.00
   11   -3    6      0.47      0.00
   12   -3    6      1.22      0.00
  -13   -2    6      0.12      0.00
  -12   -2    6     -0.13      0.00
  -11   -2    6     -1.05      0.00
  -10   -2    6     -0.99      0.00
   -9   -2    6      0.06      0.00
   -8   -2    6     -0.70      0.00
   -7   -2    6     -3.17      0.00
   -6   -2    6     -2.54      0.00
   -5   -2    6     -2.08      0.00
   -4   -2    6      0.80      0.00
   -3   -2    6      3.36      0.00
   -2   -2    6     -4.21      0.00
   -1   -2    6    -12.79      0.00
    0   -2    6     -9.75      0.00
    1   -2    6     -3.21      0.00
    2   -2    6      0.70      0.00
    3   -2    6      1.80      0.00
    4   -2    6      2.47      0.00
    5   -2    6      1.88      0.00
    6   -2    6      0.49      0.00
    7   -2    6      1.29      0.00
    8   -2    6      0.10      0.00
    9   -2    6     -0.88      0.00
   10   -2    6     -0.82      0.00
   11   -2    6      0.42      0.00
   12   -2    6      0.80      0.00
  -13   -1    6      0.82      0.00
  -12   -1    6      0.48      0.00
  -11   -1    6      0.05      0.00
  -10   -1    6     -0.18      0.00
   -9   -1    6     -0.42      0.00
   -8   -1    6     -1.19      0.00
   -7   -1    6     -0.44      0.00
   -6   -1    6     -1.06      0.00
   -5   -1    6     -2.35      0.00
   -4   -1    6     -3.57      0.00
   -3   -1    6     -3.66      0.00
   -2   -1    6      2.84      0.00
   -1   -1    6     10.39      0.00
    0   -1    6      8.60      0.00
    1   -1    6      0.80      0.00
    2   -1    6     -2.26      0.00
    3   -1    6     -0.08      0.00
    4   -1    6     -0.55      0.00
    5   -1    6     -1.32      0.00
    6   -1    6      0.31      0.00
    7   -1    6      0.05      0.00
    8   -1    6     -0.47      0.00
    9   -1    6     -0.73      0.00
   10   -1    6      0.08      0.00
   11   -1    6      0.62      0.00
   12   -1    6      0.36      0.00
  -13    0    6      0.60      0.00
  -12    0    6     -0.06      0.00
  -11    0    6     -1.55      0.00
  -10    0    6     -1.64      0.00
   -9    0    6      0.20      0.00
   -8    0    6      0.99      0.00
   -7    0    6     -0.11      0.00
   -6    0    6     -0.94      0.00
   -5    0    6     -1.08      0.00
   -4    0    6      2.00      0.00
   -3    0    6     11.86      0.00
   -2    0    6     16.47      0.00
   -1    0    6      5.24      0.00
    0    0    6    -11.37      0.00
    1    0    6    -14.32      0.00
    2    0    6     -7.12      0.00
    3    0    6     -5.61      0.00
    4    0    6     -4.52      0.00
    5    0    6     -2.75      0.00
    6    0    6     -3.21      0.00
    7    0    6     -2.13      0.00
    8    0    6     -0.30      0.00
    9    0    6      0.64      0.00
   10    0    6      0.67      0.00
   11    0    6      0.08      0.00
   12    0    6     -0.46      0.00
  -13    1    6     -0.42      0.00
  -12    1    6     -1.06      0.00
  -11    1    6     -1.73      0.00
  -10    1    6     -0.29      0.00
   -9    1    6      0.17      0.00
   -8    1    6     -0.37      0.00
   -7    1    6     -0.15      0.00
   -6    1    6      1.17      0.00
   -5    1    6      2.88      0.00
   -4    1    6      6.48      0.00
   -3    1    6      7.35      0.00
   -2    1    6     -1.82      0.00
    0    1    6    -14.70      0.00
    1    1    6     -5.68      0.00
    2    1    6     -4.70      0.00
    3    1    6     -3.95      0.00
    4    1    6     -2.04      0.00
    5    1    6     -1.83      0.00
    6    1    6     -0.60      0.00
    7    1    6      1.10      0.00
    8    1    6      1.26      0.00
    9    1    6      0.22      0.00
   10    1    6      0.03      0.00
   11    1    6      0.02      0.00
   12    1    6     -0.29      0.00
  -13    2    6      0.65      0.00
  -12    2    6     -0.03      0.00
  -11    2    6      0.25      0.00
  -10    2    6     -0.26      0.00
   -9    2    6     -0.41      0.00
   -8    2    6      0.27      0.00
   -7    2    6      1.33      0.00
   -6    2    6      0.17      0.00
   -5    2    6     -2.92      0.00
   -4    2    6     -3.08      0.00
   -3    2    6     -2.73      0.00
   -2    2    6     -2.71      0.00
   -1    2    6      0.42      0.00
    0    2    6      5.28      0.00
    1    2    6      2.99      0.00
    2    2    6      0.76      0.00
    3    2    6      0.19      0.00
    4    2    6      0.26      0.00
    5    2    6      1.04      0.00
    6    2    6      1.46      0.00
    7    2    6      1.20      0.00
    8    2    6      0.06      0.00
    9    2    6      0.10      0.00
   10    2    6      0.43      0.00
   11    2    6      0.18      0.00
  -13    3    6     -0.29      0.00
  -12    3    6      0.60      0.00
  -11    3    6      1.27      0.00
  -10    3    6      0.83      0.00
   -9    3    6      0.42      0.00
   -8    3    6      0.79      0.00
   -7    3    6     -0.33      0.00
   -6    3    6     -4.01      0.00
   -5    3    6     -4.26      0.00
   -4    3    6     -0.90      0.00
   -3    3    6      6.16      0.00
   -2    3    6     10.95      0.00
   -1    3    6      9.96      0.00
    0    3    6      4.07      0.00
    1    3    6      0.74      0.00
    2    3    6      0.25      0.00
    3    3    6      0.44      0.00
    4    3    6      0.28      0.00
    5    3    6     -0.26      0.00
    6    3    6     -0.34      0.00
    7    3    6     -0.70      0.00
    8    3    6     -0.34      0.00
    9    3    6      0.01      0.00
   10    3    6      0.08      0.00
   11    3    6     -0.36      0.00
  -13    4    6      0.07      0.00
  -12    4    6      0.90      0.00
  -11    4    6      0.08      0.00
  -10    4    6     -0.87      0.00
   -9    4    6     -0.70      0.00
   -8    4    6     -0.58      0.00
   -7    4    6     -1.17      0.00
   -6    4    6     -0.21      0.00
   -5    4    6      0.56      0.00
   -4    4    6      4.38      0.00
   -3    4    6      6.78      0.00
   -2    4    6      3.98      0.00
   -1    4    6     -0.62      0.00
    0    4    6     -1.63      0.00
    1    4    6      0.43      0.00
    2    4    6      1.12      0.00
    3    4    6     -0.17      0.00
    4    4    6     -0.85      0.00
    5    4    6     -0.62      0.00
    6    4    6     -0.94      0.00
    7    4    6     -0.92      0.00
    8    4    6     -0.07      0.00
    9    4    6      0.34      0.00
   10    4    6      0.18      0.00
  -13    5    6      0.35      0.00
  -12    5    6     -0.42      0.00
  -11    5    6     -1.01      0.00
  -10    5    6     -0.89      0.00
   -9    5    6     -0.47      0.00
   -8    5    6      0.11      0.00
   -7    5    6      0.23      0.00
   -6    5    6     -1.35      0.00
   -5    5    6     -1.01      0.00
   -4    5    6     -0.42      0.00
   -3    5    6     -1.33      0.00
   -2    5    6     -2.09      0.00
   -1    5    6     -1.14      0.00
    0    5    6      0.56      0.00
    1    5    6     -0.25      0.00
    2    5    6     -1.78      0.00
    3    5    6     -0.62      0.00
    4    5    6      1.20      0.00
    5    5    6      1.18      0.00
    6    5    6     -0.27      0.00
    7    5    6     -0.29      0.00
    8    5    6     -0.37      0.00
    9    5    6     -0.52      0.00
   10    5    6      0.09      0.00
  -13    6    6      0.14      0.00
  -12    6    6      0.09      0.00
  -11    6    6     -0.51      0.00
  -10    6    6     -0.38      0.00
   -9    6    6      1.21      0.00
   -8    6    6      1.31      0.00
   -7    6    6     -0.39      0.00
   -6    6    6     -1.21      0.00
   -5    6    6     -1.20      0.00
   -4    6    6     -0.96      0.00
   -3    6    6     -1.00      0.00
   -2    6    6     -0.36      0.00
   -1    6    6     -0.21      0.00
    0    6    6     -1.78      0.00
    1    6    6     -2.34      0.00
    2    6    6     -0.61      0.00
    3    6    6      0.97      0.00
    4    6    6      1.18      0.00
    5    6    6     -0.49      0.00
    6    6    6     -0.58      0.00
    7    6    6     -0.86      0.00
    8    6    6     -1.02      0.00
    9    6    6     -0.17      0.00
  -12    7    6     -0.05      0.00
  -11    7    6     -0.19      0.00
  -10    7    6      0.27      0.00
   -9    7    6     -0.10      0.00
   -8    7    6     -0.44      0.00
   -7    7    6     -0.43      0.00
   -6    7    6     -0.22      0.00
   -5    7    6      0.08      0.00
   -4    7    6     -0.65      0.00
   -3    7    6     -0.24      0.00
   -2    7    6     -0.65      0.00
   -1    7    6     -1.69      0.00
    0    7    6     -0.93      0.00
    1    7    6     -0.02      0.00
    2    7    6      0.27      0.00
    3    7    6      0.68      0.00
    4    7    6     -0.46      0.00
    5    7    6     -0.27      0.00
    6    7    6     -0.22      0.00
    7    7    6     -0.29      0.00
    8    7    6     -0.05      0.00
    9    7    6     -0.20      0.00
  -12    8    6      0.87      0.00
  -11    8    6      0.32      0.00
  -10    8    6     -0.85      0.00
   -9    8    6     -0.94      0.00
   -8    8    6     -0.38      0.00
   -7    8    6      0.34      0.00
   -6    8    6      0.28      0.00
   -5    8    6     -0.83      0.00
   -4    8    6      0.45      0.00
   -3    8    6      0.59      0.00
   -2    8    6     -0.10      0.00
   -1    8    6      0.85      0.00
    0    8    6      0.84      0.00
    1    8    6      0.36      0.00
    2    8    6      0.88      0.00
    3    8    6      0.45      0.00
    4    8    6      0.53      0.00
    5    8    6      0.00      0.00
    6    8    6     -0.19      0.00
    7    8    6     -0.18      0.00
    8    8    6     -0.56      0.00
  -11    9    6     -0.41      0.00
  -10    9    6      0.11      0.00
   -9    9    6      0.33      0.00
   -8    9    6      0.67      0.00
   -7    9    6     -0.06      0.00
   -6    9    6     -1.43      0.00
   -5    9    6     -0.02      0.00
   -4    9    6      0.89      0.00
   -3    9    6      0.62      0.00
   -2    9    6      0.55      0.00
   -1    9    6     -0.38      0.00
    0    9    6     -0.78      0.00
    1    9    6     -0.24      0.00
    2    9    6      0.14      0.00
    3    9    6      1.11      0.00
    4    9    6      0.63      0.00
    5    9    6      0.04      0.00
    6    9    6      0.08      0.00
    7    9    6      0.10      0.00
  -11   10    6      0.20      0.00
  -10   10    6      0.24      0.00
   -9   10    6      0.35      0.00
   -8   10    6     -0.17      0.00
   -7   10    6     -1.01      0.00
   -6   10    6     -0.98      0.00
   -5   10    6     -0.93      0.00
   -4   10    6     -0.34      0.00
   -3   10    6      0.34      0.00
   -2   10    6     -0.28      0.00
   -1   10    6     -0.39      0.00
    0   10    6      0.32      0.00
    1   10    6      0.57      0.00
    2   10    6      0.85      0.00
    3   10    6      0.10      0.00
    4   10    6     -0.18      0.00
    5   10    6      0.26      0.00
    6   10    6      0.67      0.00
  -10   11    6     -0.33      0.00
   -9   11    6     -0.80      0.00
   -8   11    6      0.02      0.00
   -7   11    6      0.74      0.00
   -6   11    6      0.13      0.00
   -5   11    6     -0.38      0.00
   -4   11    6      0.64      0.00
   -3   11    6      1.07      0.00
   -2   11    6      0.32      0.00
   -1   11    6      0.19      0.00
    0   11    6      0.41      0.00
    1   11    6      0.39      0.00
    2   11    6     -0.65      0.00
    3   11    6     -0.61      0.00
    4   11    6      0.07      0.00
    5   11    6      0.07      0.00
   -9   12    6     -0.54      0.00
   -8   12    6      0.52      0.00
   -7   12    6      0.98      0.00
   -6   12    6     -0.23      0.00
   -5   12    6     -0.26      0.00
   -4   12    6      0.52      0.00
   -3   12    6      0.05      0.00
   -2   12    6     -0.21      0.00
   -1   12    6     -0.10      0.00
    0   12    6      0.42      0.00
    1   12    6     -0.16      0.00
    2   12    6     -0.26      0.00
    3   12    6      0.21      0.00
    4   12    6     -0.36      0.00
   -7   13    6      0.16      0.00
   -6   13    6      1.07      0.00
   -5   13    6      1.45      0.00
   -4   13    6     -0.02      0.00
   -3   13    6     -0.68      0.00
   -2   13    6     -0.89      0.00
   -1   13    6     -0.09      0.00
    0   13    6     -0.26      0.00
    1   13    6     -0.70      0.00
    2   13    6     -0.05      0.00
   -4   14    6     -1.74      0.00
   -3   14    6     -1.87      0.00
   -2   14    6     -0.33      0.00
   -3  -14    7     -0.35      0.00
   -2  -14    7      0.38      0.00
   -1  -14    7      1.62      0.00
    0  -14    7      1.42      0.00
    1  -14    7      0.33      0.00
    2  -14    7      0.02      0.00
    3  -14    7      0.22      0.00
    4  -14    7      0.34      0.00
    5  -14    7      0.31      0.00
   -5  -13    7     -0.92      0.00
   -4  -13    7     -0.56      0.00
   -3  -13    7     -0.54      0.00
   -2  -13    7     -0.40      0.00
   -1  -13    7     -0.57      0.00
    0  -13    7     -0.35      0.00
    1  -13    7      0.07      0.00
    2  -13    7      0.63      0.00
    3  -13    7      0.21      0.00
    4  -13    7     -0.66      0.00
    5  -13    7     -0.22      0.00
    6  -13    7      0.31      0.00
    7  -13    7      0.26      0.00
   -6  -12    7     -1.85      0.00
   -5  -12    7     -0.90      0.00
   -4  -12    7     -0.56      0.00
   -3  -12    7     -0.36      0.00
   -2  -12    7      0.07      0.00
   -1  -12    7      1.18      0.00
    0  -12    7      0.81      0.00
    1  -12    7      0.71      0.00
    2  -12    7      0.85      0.00
    3  -12    7     -0.14      0.00
    4  -12    7     -0.44      0.00
    5  -12    7      0.17      0.00
    6  -12    7      0.67      0.00
    7  -12    7     -0.32      0.00
    8  -12    7     -0.54      0.00
   -7  -11    7     -0.55      0.00
   -6  -11    7     -0.12      0.00
   -5  -11    7     -0.03      0.00
   -4  -11    7      0.33      0.00
   -3  -11    7      0.16      0.00
   -2  -11    7      0.74      0.00
   -1  -11    7      0.17      0.00
    0  -11    7     -0.29      0.00
    1  -11    7      0.68      0.00
    2  -11    7      1.17      0.00
    3  -11    7      0.52      0.00
    4  -11    7     -0.46      0.00
    5  -11    7     -0.42      0.00
    6  -11    7     -0.79      0.00
    7  -11    7     -0.15      0.00
    8  -11    7      0.80      0.00
    9  -11    7      0.66      0.00
   -8  -10    7      0.70      0.00
   -7  -10    7      0.48      0.00
   -6  -10    7     -0.44      0.00
   -5  -10    7      0.12      0.00
   -4  -10    7     -0.04      0.00
   -3  -10    7     -0.28      0.00
   -2  -10    7     -0.19      0.00
   -1  -10    7      0.00      0.00
    0  -10    7      0.62      0.00
    1  -10    7      1.06      0.00
    2  -10    7      1.02      0.00
    3  -10    7      0.48      0.00
    4  -10    7     -0.15      0.00
    5  -10    7     -1.33      0.00
    6  -10    7     -0.23      0.00
    7  -10    7      0.98      0.00
    8  -10    7      0.40      0.00
    9  -10    7      0.11      0.00
   10  -10    7      0.56      0.00
   -9   -9    7      0.53      0.00
   -8   -9    7      0.83      0.00
   -7   -9    7     -0.53      0.00
   -6   -9    7     -0.13      0.00
   -5   -9    7      0.80      0.00
   -4   -9    7      0.42      0.00
   -3   -9    7      0.11      0.00
   -2   -9    7      0.58      0.00
   -1   -9    7      1.74      0.00
    0   -9    7      1.67      0.00
    1   -9    7      0.35      0.00
    2   -9    7      0.20      0.00
    3   -9    7      0.93      0.00
    4   -9    7     -0.29      0.00
    5   -9    7     -0.64      0.00
    6   -9    7      0.05      0.00
    7   -9    7      0.00      0.00
    8   -9    7     -0.65      0.00
    9   -9    7     -0.65      0.00
   10   -9    7      0.16      0.00
  -10   -8    7     -0.04      0.00
   -9   -8    7      0.99      0.00
   -8   -8    7      0.06      0.00
   -7   -8    7     -0.73      0.00
   -6   -8    7      0.00      0.00
   -5   -8    7     -0.07      0.00
   -4   -8    7     -0.48      0.00
   -3   -8    7     -0.03      0.00
   -2   -8    7      1.78      0.00
   -1   -8    7      2.39      0.00
    0   -8    7     -0.01      0.00
    1   -8    7     -1.45      0.00
    2   -8    7      0.42      0.00
    3   -8    7      1.36      0.00
    4   -8    7      0.15      0.00
    5   -8    7     -0.78      0.00
    6   -8    7     -0.29      0.00
    7   -8    7     -0.35      0.00
    8   -8    7     -1.48      0.00
    9   -8    7     -0.73      0.00
   10   -8    7      1.30      0.00
   11   -8    7      0.83      0.00
  -11   -7    7     -0.96      0.00
  -10   -7    7     -0.50      0.00
   -9   -7    7     -0.30      0.00
   -8   -7    7     -0.66      0.00
   -7   -7    7     -0.10      0.00
   -6   -7    7      0.07      0.00
   -5   -7    7      0.17      0.00
   -4   -7    7      0.84      0.00
   -3   -7    7      1.45      0.00
   -2   -7    7      1.95      0.00
   -1   -7    7      0.65      0.00
    0   -7    7     -0.89      0.00
    1   -7    7     -0.17      0.00
    2   -7    7      0.48      0.00
    3   -7    7     -0.62      0.00
    4   -7    7     -0.83      0.00
    5   -7    7      0.60      0.00
    6   -7    7      1.36      0.00
    7   -7    7     -0.22      0.00
    8   -7    7     -1.29      0.00
    9   -7    7      0.29      0.00
   10   -7    7      0.79      0.00
   11   -7    7      0.51      0.00
  -11   -6    7     -0.20      0.00
  -10   -6    7      0.23      0.00
   -9   -6    7      0.73      0.00
   -8   -6    7      1.35      0.00
   -7   -6    7      1.00      0.00
   -6   -6    7      0.55      0.00
   -5   -6    7      1.22      0.00
   -4   -6    7      0.63      0.00
   -3   -6    7      0.92      0.00
   -2   -6    7      0.98      0.00
   -1   -6    7     -0.68      0.00
    0   -6    7     -1.63      0.00
    1   -6    7     -2.39      0.00
    2   -6    7     -3.35      0.00
    3   -6    7     -2.06      0.00
    4   -6    7      0.25      0.00
    5   -6    7      1.20      0.00
    6   -6    7      0.39      0.00
    7   -6    7     -0.97      0.00
    8   -6    7     -0.42      0.00
    9   -6    7      0.52      0.00
   10   -6    7      1.43      0.00
   11   -6    7      0.39      0.00
  -12   -5    7      0.93      0.00
  -11   -5    7      0.54      0.00
  -10   -5    7      0.45      0.00
   -9   -5    7      0.65      0.00
   -8   -5    7      0.26      0.00
   -7   -5    7     -0.47      0.00
   -6   -5    7      0.09      0.00
   -5   -5    7     -0.53      0.00
   -4   -5    7      1.19      0.00
   -3   -5    7      3.59      0.00
   -2   -5    7      1.21      0.00
   -1   -5    7     -1.94      0.00
    0   -5    7     -2.26      0.00
    1   -5    7     -0.63      0.00
    2   -5    7      0.51      0.00
    3   -5    7      0.56      0.00
    4   -5    7      0.08      0.00
    5   -5    7      0.08      0.00
    6   -5    7      0.56      0.00
    7   -5    7      0.99      0.00
    8   -5    7      0.92      0.00
    9   -5    7      2.21      0.00
   10   -5    7      1.40      0.00
   11   -5    7      0.34      0.00
   12   -5    7      0.44      0.00
  -12   -4    7     -0.15      0.00
  -11   -4    7     -0.40      0.00
  -10   -4    7     -0.54      0.00
   -9   -4    7     -0.37      0.00
   -8   -4    7     -0.02      0.00
   -7   -4    7      0.87      0.00
   -6   -4    7      0.09      0.00
   -5   -4    7      0.59      0.00
   -4   -4    7      3.09      0.00
   -3   -4    7      2.50      0.00
   -2   -4    7      0.95      0.00
   -1   -4    7      1.70      0.00
    0   -4    7      4.33      0.00
    1   -4    7      4.00      0.00
    2   -4    7      2.62      0.00
    3   -4    7      1.17      0.00
    4   -4    7     -0.74      0.00
    5   -4    7      0.06      0.00
    6   -4    7      0.99      0.00
    7   -4    7      0.17      0.00
    8   -4    7      0.61      0.00
    9   -4    7      0.65      0.00
   10   -4    7      0.92      0.00
   11   -4    7      1.11      0.00
   12   -4    7      1.04      0.00
  -13   -3    7      0.08      0.00
  -12   -3    7      0.52      0.00
  -11   -3    7     -0.14      0.00
  -10   -3    7     -0.83      0.00
   -9   -3    7     -0.02      0.00
   -8   -3    7      0.98      0.00
   -7   -3    7      0.51      0.00
   -6   -3    7     -1.22      0.00
   -5   -3    7     -1.67      0.00
   -4   -3    7     -0.47      0.00
   -3   -3    7      3.80      0.00
   -2   -3    7      7.72      0.00
   -1   -3    7      5.40      0.00
    0   -3    7     -3.68      0.00
    1   -3    7     -6.23      0.00
    2   -3    7     -2.77      0.00
    3   -3    7     -3.35      0.00
    4   -3    7     -2.19      0.00
    5   -3    7     -0.44      0.00
    6   -3    7     -0.08      0.00
    7   -3    7     -0.11      0.00
    8   -3    7     -1.24      0.00
    9   -3    7     -0.88      0.00
   10   -3    7      0.18      0.00
   11   -3    7      0.81      0.00
   12   -3    7      1.00      0.00
  -13   -2    7      0.61      0.00
  -12   -2    7      0.02      0.00
  -11   -2    7     -1.80      0.00
  -10   -2    7     -1.28      0.00
   -9   -2    7     -0.41      0.00
   -8   -2    7     -0.57      0.00
   -7   -2    7     -2.26      0.00
   -6   -2    7     -2.62      0.00
   -5   -2    7     -1.30      0.00
   -4   -2    7      1.43      0.00
   -3   -2    7      4.41      0.00
   -2   -2    7      0.15      0.00
   -1   -2    7    -12.19      0.00
    0   -2    7    -14.61      0.00
    1   -2    7     -6.67      0.00
    2   -2    7     -4.02      0.00
    3   -2    7     -1.28      0.00
    4   -2    7      0.15      0.00
    5   -2    7      0.33      0.00
    6   -2    7      0.93      0.00
    7   -2    7      0.53      0.00
    8   -2    7      0.32      0.00
    9   -2    7     -0.54      0.00
   10   -2    7     -0.35      0.00
   11   -2    7      0.31      0.00
   12   -2    7      0.71      0.00
  -13   -1    7      0.92      0.00
  -12   -1    7     -0.17      0.00
  -11   -1    7     -0.50      0.00
  -10   -1    7     -0.45      0.00
   -9   -1    7     -0.51      0.00
   -8   -1    7     -1.88      0.00
   -7   -1    7     -1.54      0.00
   -6   -1    7      0.29      0.00
   -5   -1    7     -1.49      0.00
   -4   -1    7     -3.76      0.00
   -3   -1    7     -5.86      0.00
   -2   -1    7     -7.76      0.00
   -1   -1    7     -3.21      0.00
    0   -1    7      2.78      0.00
    1   -1    7      0.69      0.00
    2   -1    7      0.77      0.00
    3   -1    7      1.19      0.00
    4   -1    7      0.54      0.00
    5   -1    7      0.60      0.00
    6   -1    7      1.15      0.00
    7   -1    7      2.30      0.00
    8   -1    7      0.49      0.00
    9   -1    7     -0.60      0.00
   10   -1    7     -0.28      0.00
   11   -1    7      0.52      0.00
   12   -1    7      0.63      0.00
  -13    0    7      1.09      0.00
  -12    0    7      0.34      0.00
  -11    0    7     -1.07      0.00
  -10    0    7     -1.38      0.00
   -9    0    7     -0.93      0.00
   -8    0    7     -0.20      0.00
   -7    0    7      1.05      0.00
   -6    0    7     -0.59      0.00
   -5    0    7     -2.47      0.00
   -4    0    7     -2.56      0.00
   -3    0    7      1.90      0.00
   -2    0    7      8.85      0.00
   -1    0    7      8.65      0.00
    0    0    7      0.25      0.00
    1    0    7     -2.66      0.00
    2    0    7     -2.01      0.00
    3    0    7     -1.97      0.00
    4    0    7     -2.12      0.00
    5    0    7     -2.34      0.00
    6    0    7     -1.52      0.00
    7    0    7     -1.92      0.00
    8    0    7     -0.96      0.00
    9    0    7     -0.06      0.00
   10    0    7      0.29      0.00
   11    0    7     -0.16      0.00
  -13    1    7     -0.40      0.00
  -12    1    7     -0.98      0.00
  -11    1    7     -1.84      0.00
  -10    1    7     -1.18      0.00
   -9    1    7     -0.19      0.00
   -8    1    7      0.23      0.00
   -7    1    7     -0.03      0.00
   -6    1    7      0.98      0.00
   -5    1    7      2.31      0.00
   -4    1    7      5.90      0.00
   -3    1    7      8.97      0.00
   -2    1    7      3.32      0.00
   -1    1    7     -7.43      0.00
    0    1    7    -10.12      0.00
    1    1    7     -6.82      0.00
    2    1    7     -5.16      0.00
    3    1    7     -5.05      0.00
    4    1    7     -4.12      0.00
    5    1    7     -2.88      0.00
    6    1    7     -2.51      0.00
    7    1    7     -0.53      0.00
    8    1    7      0.45      0.00
    9    1    7      0.01      0.00
   10    1    7     -0.36      0.00
   11    1    7     -0.35      0.00
  -13    2    7      0.35      0.00
  -12    2    7     -0.16      0.00
  -11    2    7     -0.32      0.00
  -10    2    7     -0.51      0.00
   -9    2    7     -0.92      0.00
   -8    2    7     -0.07      0.00
   -7    2    7      1.59      0.00
   -6    2    7      1.83      0.00
   -5    2    7      1.44      0.00
   -4    2    7      1.48      0.00
   -3    2    7     -1.66      0.00
   -2    2    7     -7.52      0.00
   -1    2    7     -8.11      0.00
    0    2    7     -3.20      0.00
    1    2    7     -0.38      0.00
    2    2    7     -1.68      0.00
    3    2    7     -1.74      0.00
    4    2    7     -0.41      0.00
    5    2    7      0.27      0.00
    6    2    7      1.13      0.00
    7    2    7      1.15      0.00
    8    2    7      0.14      0.00
    9    2    7      0.28      0.00
   10    2    7      0.85      0.00
   11    2    7     -0.05      0.00
  -13    3    7     -0.39      0.00
  -12    3    7      0.35      0.00
  -11    3    7      1.01      0.00
  -10    3    7      0.23      0.00
   -9    3    7      0.43      0.00
   -8    3    7      1.05      0.00
   -7    3    7      0.90      0.00
   -6    3    7     -1.37      0.00
   -5    3    7     -2.74      0.00
   -4    3    7     -1.19      0.00
   -3    3    7      0.70      0.00
   -2    3    7      3.37      0.00
   -1    3    7      5.00      0.00
    0    3    7      4.31      0.00
    1    3    7      1.55      0.00
    2    3    7      0.64      0.00
    3    3    7      1.27      0.00
    4    3    7      1.37      0.00
    5    3    7      0.93      0.00
    6    3    7      0.65      0.00
    7    3    7     -0.39      0.00
    8    3    7     -0.30      0.00
    9    3    7      0.72      0.00
   10    3    7      0.28      0.00
   11    3    7     -0.62      0.00
  -13    4    7      0.08      0.00
  -12    4    7      0.98      0.00
  -11    4    7      0.30      0.00
  -10    4    7     -0.39      0.00
   -9    4    7     -0.70      0.00
   -8    4    7     -0.28      0.00
   -7    4    7     -1.05      0.00
   -6    4    7     -0.96      0.00
   -5    4    7      1.79      0.00
   -4    4    7      4.30      0.00
   -3    4    7      7.04      0.00
   -2    4    7      5.08      0.00
   -1    4    7      1.30      0.00
    0    4    7     -0.35      0.00
    1    4    7      0.80      0.00
    2    4    7      2.17      0.00
    3    4    7      1.26      0.00
    4    4    7     -0.42      0.00
    5    4    7     -0.53      0.00
    6    4    7     -1.23      0.00
    7    4    7     -1.32      0.00
    8    4    7     -0.11      0.00
    9    4    7      0.42      0.00
   10    4    7      0.37      0.00
  -13    5    7      0.52      0.00
  -12    5    7     -0.10      0.00
  -11    5    7     -1.16      0.00
  -10    5    7     -1.32      0.00
   -9    5    7     -0.68      0.00
   -8    5    7     -1.22      0.00
   -7    5    7     -1.04      0.00
   -6    5    7      0.41      0.00
   -5    5    7      0.64      0.00
   -4    5    7      2.50      0.00
   -3    5    7      0.53      0.00
   -2    5    7     -1.85      0.00
   -1    5    7     -1.44      0.00
    0    5    7     -0.39      0.00
    1    5    7      0.29      0.00
    2    5    7     -0.66      0.00
    3    5    7     -1.04      0.00
    4    5    7      0.38      0.00
    5    5    7      0.16      0.00
    6    5    7     -0.34      0.00
    7    5    7     -0.19      0.00
    8    5    7     -0.29      0.00
    9    5    7     -0.32      0.00
   10    5    7     -0.13      0.00
  -13    6    7      0.80      0.00
  -12    6    7     -0.15      0.00
  -11    6    7     -0.70      0.00
  -10    6    7     -0.13      0.00
   -9    6    7      0.55      0.00
   -8    6    7      1.15      0.00
   -7    6    7      0.42      0.00
   -6    6    7     -1.26      0.00
   -5    6    7      0.03      0.00
   -4    6    7     -0.90      0.00
   -3    6    7     -1.60      0.00
   -2    6    7     -0.74      0.00
   -1    6    7     -1.14      0.00
    0    6    7     -1.59      0.00
    1    6    7     -2.23      0.00
    2    6    7     -1.11      0.00
    3    6    7      0.97      0.00
    4    6    7      0.46      0.00
    5    6    7     -0.25      0.00
    6    6    7     -0.36      0.00
    7    6    7     -0.52      0.00
    8    6    7     -1.10      0.00
    9    6    7     -0.63      0.00
  -12    7    7     -0.23      0.00
  -11    7    7     -0.36      0.00
  -10    7    7      0.35      0.00
   -9    7    7      1.41      0.00
   -8    7    7      0.45      0.00
   -7    7    7     -0.82      0.00
   -6    7    7     -0.02      0.00
   -5    7    7     -0.75      0.00
   -4    7    7     -1.02      0.00
   -3    7    7     -0.67      0.00
   -2    7    7     -1.13      0.00
   -1    7    7     -1.18      0.00
    0    7    7     -1.57      0.00
    1    7    7     -0.77      0.00
    2    7    7      0.70      0.00
    3    7    7      0.29      0.00
    4    7    7     -0.46      0.00
    5    7    7     -0.73      0.00
    6    7    7      0.25      0.00
    7    7    7     -0.02      0.00
    8    7    7     -0.28      0.00
    9    7    7      0.31      0.00
  -12    8    7      0.73      0.00
  -11    8    7      0.67      0.00
  -10    8    7      0.29      0.00
   -9    8    7     -0.93      0.00
   -8    8    7     -0.63      0.00
   -7    8    7      0.41      0.00
   -6    8    7     -0.31      0.00
   -5    8    7     -0.72      0.00
   -4    8    7     -0.42      0.00
   -3    8    7     -0.02      0.00
   -2    8    7      0.33      0.00
   -1    8    7      0.34      0.00
    0    8    7      0.59      0.00
    1    8    7      0.85      0.00
    2    8    7      0.83      0.00
    3    8    7      0.60      0.00
    4    8    7     -0.42      0.00
    5    8    7      0.15      0.00
    6    8    7      0.14      0.00
    7    8    7     -0.29      0.00
    8    8    7     -0.39      0.00
  -11    9    7      0.29      0.00
  -10    9    7     -0.43      0.00
   -9    9    7      0.09      0.00
   -8    9    7      0.59      0.00
   -7    9    7     -0.19      0.00
   -6    9    7     -0.95      0.00
   -5    9    7     -0.14      0.00
   -4    9    7      1.55      0.00
   -3    9    7      1.23      0.00
   -2    9    7      0.23      0.00
   -1    9    7     -0.08      0.00
    0    9    7     -0.51      0.00
    1    9    7     -0.76      0.00
    2    9    7     -0.22      0.00
    3    9    7      0.05      0.00
    4    9    7      0.56      0.00
    5    9    7      0.02      0.00
    6    9    7     -0.24      0.00
    7    9    7     -0.43      0.00
  -11   10    7     -0.32      0.00
  -10   10    7      0.16      0.00
   -9   10    7      0.49      0.00
   -8   10    7      0.27      0.00
   -7   10    7     -1.02      0.00
   -6   10    7     -1.23      0.00
   -5   10    7      0.33      0.00
   -4   10    7      0.50      0.00
   -3   10    7     -0.22      0.00
   -2   10    7     -0.79      0.00
   -1   10    7     -0.73      0.00
    0   10    7     -0.42      0.00
    1   10    7     -0.11      0.00
    2   10    7      0.27      0.00
    3   10    7      0.58      0.00
    4   10    7     -0.09      0.00
    5   10    7      0.14      0.00
    6   10    7      0.28      0.00
  -10   11    7     -0.07      0.00
   -9   11    7      0.16      0.00
   -8   11    7     -0.02      0.00
   -7   11    7      0.06      0.00
   -6   11    7      0.12      0.00
   -5   11    7     -0.06      0.00
   -4   11    7      0.54      0.00
   -3   11    7      0.47      0.00
   -2   11    7      0.08      0.00
   -1   11    7      0.20      0.00
    0   11    7      0.52      0.00
    1   11    7      0.46      0.00
    2   11    7      0.01      0.00
    3   11    7     -0.49      0.00
    4   11    7      0.10      0.00
    5   11    7      0.18      0.00
   -9   12    7     -0.55      0.00
   -8   12    7      0.66      0.00
   -7   12    7      0.70      0.00
   -6   12    7     -0.51      0.00
   -5   12    7     -0.63      0.00
   -4   12    7     -0.06      0.00
   -3   12    7      0.03      0.00
   -2   12    7     -0.16      0.00
   -1   12    7      0.33      0.00
    0   12    7      0.66      0.00
    1   12    7      0.39      0.00
    2   12    7      0.16      0.00
    3   12    7      0.49      0.00
   -7   13    7     -0.04      0.00
   -6   13    7      0.25      0.00
   -5   13    7      0.77      0.00
   -4   13    7      0.45      0.00
   -3   13    7     -0.28      0.00
   -2   13    7      0.06      0.00
   -1   13    7      0.21      0.00
    0   13    7     -0.05      0.00
    1   13    7     -0.26      0.00
   -3  -14    8     -0.07      0.00
   -2  -14    8      1.07      0.00
   -1  -14    8      1.66      0.00
    0  -14    8      1.55      0.00
    1  -14    8      0.59      0.00
    2  -14    8     -0.27      0.00
    3  -14    8     -0.14      0.00
    4  -14    8      0.20      0.00
    5  -14    8      0.52      0.00
   -5  -13    8     -0.03      0.00
   -4  -13    8     -0.07      0.00
   -3  -13    8      0.52      0.00
   -2  -13    8      0.34      0.00
   -1  -13    8     -0.30      0.00
    0  -13    8     -0.83      0.00
    1  -13    8     -0.39      0.00
    2  -13    8      0.05      0.00
    3  -13    8     -0.22      0.00
    4  -13    8     -0.19      0.00
    5  -13    8      0.03      0.00
    6  -13    8      0.41      0.00
    7  -13    8      0.63      0.00
   -6  -12    8     -1.54      0.00
   -5  -12    8     -0.71      0.00
   -4  -12    8     -0.30      0.00
   -3  -12    8     -0.47      0.00
   -2  -12    8     -0.18      0.00
   -1  -12    8      0.27      0.00
    0  -12    8      0.62      0.00
    1  -12    8      0.50      0.00
    2  -12    8      0.43      0.00
    3  -12    8     -0.31      0.00
    4  -12    8     -0.89      0.00
    5  -12    8      0.35      0.00
    6  -12    8      0.86      0.00
    7  -12    8      0.11      0.00
    8  -12    8     -0.55      0.00
   -7  -11    8     -1.16      0.00
   -6  -11    8     -0.40      0.00
   -5  -11    8     -0.06      0.00
   -4  -11    8      0.02      0.00
   -3  -11    8      0.31      0.00
   -2  -11    8      0.65      0.00
   -1  -11    8      0.56      0.00
    0  -11    8     -0.26      0.00
    1  -11    8      0.72      0.00
    2  -11    8      0.83      0.00
    3  -11    8     -0.63      0.00
    4  -11    8     -0.43      0.00
    5  -11    8      0.00      0.00
    6  -11    8     -0.07      0.00
    7  -11    8     -0.32      0.00
    8  -11    8      0.16      0.00
    9  -11    8      0.33      0.00
   -8  -10    8      0.43      0.00
   -7  -10    8      0.38      0.00
   -6  -10    8     -0.12      0.00
   -5  -10    8      0.02      0.00
   -4  -10    8      0.06      0.00
   -3  -10    8     -0.25      0.00
   -2  -10    8      0.12      0.00
   -1  -10    8     -0.39      0.00
    0  -10    8      0.28      0.00
    1  -10    8      0.76      0.00
    2  -10    8      0.14      0.00
    3  -10    8     -0.08      0.00
    4  -10    8     -0.66      0.00
    5  -10    8     -0.67      0.00
    6  -10    8     -0.35      0.00
    7  -10    8      0.25      0.00
    8  -10    8      0.07      0.00
    9  -10    8      0.33      0.00
   10  -10    8      0.79      0.00
   -9   -9    8      0.36      0.00
   -8   -9    8      0.54      0.00
   -7   -9    8     -0.21      0.00
   -6   -9    8      0.01      0.00
   -5   -9    8      0.85      0.00
   -4   -9    8      0.36      0.00
   -3   -9    8      0.55      0.00
   -2   -9    8      0.63      0.00
   -1   -9    8      0.93      0.00
    0   -9    8      0.91      0.00
    1   -9    8      0.64      0.00
    2   -9    8      0.76      0.00
    3   -9    8      0.13      0.00
    4   -9    8     -0.65      0.00
    5   -9    8     -1.02      0.00
    6   -9    8     -0.07      0.00
    7   -9    8     -0.47      0.00
    8   -9    8     -1.08      0.00
    9   -9    8     -0.41      0.00
   10   -9    8      0.28      0.00
  -10   -8    8     -0.05      0.00
   -9   -8    8      0.74      0.00
   -8   -8    8      0.16      0.00
   -7   -8    8     -0.54      0.00
   -6   -8    8      0.41      0.00
   -5   -8    8      0.09      0.00
   -4   -8    8     -0.50      0.00
   -3   -8    8      0.06      0.00
   -2   -8    8      1.25      0.00
   -1   -8    8      1.36      0.00
    0   -8    8     -0.10      0.00
    1   -8    8     -0.77      0.00
    2   -8    8      0.27      0.00
    3   -8    8      1.04      0.00
    4   -8    8     -0.66      0.00
    5   -8    8     -1.07      0.00
    6   -8    8     -0.88      0.00
    7   -8    8     -1.44      0.00
    8   -8    8     -1.86      0.00
    9   -8    8     -0.57      0.00
   10   -8    8      0.80      0.00
   11   -8    8      0.84      0.00
  -11   -7    8     -0.80      0.00
  -10   -7    8     -0.11      0.00
   -9   -7    8     -0.14      0.00
   -8   -7    8     -1.20      0.00
   -7   -7    8     -0.40      0.00
   -6   -7    8      0.25      0.00
   -5   -7    8     -0.41      0.00
   -4   -7    8      0.09      0.00
   -3   -7    8      1.33      0.00
   -2   -7    8      1.68      0.00
   -1   -7    8      0.23      0.00
    0   -7    8     -1.08      0.00
    1   -7    8     -0.20      0.00
    2   -7    8      1.61      0.00
    3   -7    8      0.32      0.00
    4   -7    8     -0.90      0.00
    5   -7    8     -0.08      0.00
    6   -7    8      0.44      0.00
    7   -7    8     -0.73      0.00
    8   -7    8     -0.96      0.00
    9   -7    8      0.38      0.00
   10   -7    8      0.71      0.00
   11   -7    8     -0.10      0.00
  -11   -6    8     -0.45      0.00
  -10   -6    8      0.26      0.00
   -9   -6    8      0.15      0.00
   -8   -6    8      0.59      0.00
   -7   -6    8      1.49      0.00
   -6   -6    8      0.88      0.00
   -5   -6    8      1.04      0.00
   -4   -6    8      1.31      0.00
   -3   -6    8      1.07      0.00
   -2   -6    8      0.82      0.00
   -1   -6    8     -0.09      0.00
    0   -6    8     -1.28      0.00
    1   -6    8     -1.47      0.00
    2   -6    8     -2.61      0.00
    3   -6    8     -2.62      0.00
    4   -6    8      0.10      0.00
    5   -6    8      1.62      0.00
    6   -6    8      0.63      0.00
    7   -6    8     -0.75      0.00
    8   -6    8     -0.31      0.00
    9   -6    8      0.61      0.00
   10   -6    8      0.18      0.00
   11   -6    8      0.39      0.00
  -12   -5    8      0.54      0.00
  -11   -5    8      0.63      0.00
  -10   -5    8      0.77      0.00
   -9   -5    8      0.78      0.00
   -8   -5    8      1.09      0.00
   -7   -5    8      0.16      0.00
   -6   -5    8      0.18      0.00
   -5   -5    8      0.47      0.00
   -4   -5    8      0.85      0.00
   -3   -5    8      2.80      0.00
   -2   -5    8      1.65      0.00
   -1   -5    8     -2.11      0.00
    0   -5    8     -2.73      0.00
    1   -5    8     -2.45      0.00
    2   -5    8     -2.82      0.00
    3   -5    8     -1.18      0.00
    4   -5    8      0.25      0.00
    5   -5    8      1.37      0.00
    6   -5    8      1.23      0.00
    7   -5    8      0.68      0.00
    8   -5    8      1.50      0.00
    9   -5    8      1.80      0.00
   10   -5    8      1.27      0.00
   11   -5    8     -0.03      0.00
  -12   -4    8     -0.09      0.00
  -11   -4    8     -0.56      0.00
  -10   -4    8     -0.52      0.00
   -9   -4    8      0.13      0.00
   -8   -4    8     -0.14      0.00
   -7   -4    8      0.31      0.00
   -6   -4    8      0.78      0.00
   -5   -4    8      0.72      0.00
   -4   -4    8      3.57      0.00
   -3   -4    8      2.84      0.00
   -2   -4    8     -1.43      0.00
   -1   -4    8     -0.85      0.00
    0   -4    8      2.39      0.00
    1   -4    8      3.04      0.00
    2   -4    8      2.24      0.00
    3   -4    8      0.50      0.00
    4   -4    8      0.84      0.00
    5   -4    8      1.89      0.00
    6   -4    8      1.55      0.00
    7   -4    8      1.33      0.00
    8   -4    8      1.34      0.00
    9   -4    8      2.00      0.00
   10   -4    8      0.67      0.00
   11   -4    8      0.46      0.00
  -13   -3    8      0.26      0.00
  -12   -3    8     -0.19      0.00
  -11   -3    8     -0.69      0.00
  -10   -3    8     -0.61      0.00
   -9   -3    8     -0.20      0.00
   -8   -3    8      0.83      0.00
   -7   -3    8      1.47      0.00
   -6   -3    8      0.04      0.00
   -5   -3    8      0.29      0.00
   -4   -3    8     -0.01      0.00
   -3   -3    8      0.63      0.00
   -2   -3    8      4.66      0.00
   -1   -3    8      5.70      0.00
    0   -3    8      2.63      0.00
    1   -3    8      0.68      0.00
    2   -3    8     -0.04      0.00
    3   -3    8     -0.99      0.00
    4   -3    8     -1.30      0.00
    5   -3    8      0.11      0.00
    6   -3    8      1.01      0.00
    7   -3    8     -0.25      0.00
    8   -3    8     -0.23      0.00
    9   -3    8     -0.50      0.00
   10   -3    8      0.39      0.00
   11   -3    8      0.81      0.00
   12   -3    8      0.94      0.00
  -13   -2    8      0.66      0.00
  -12   -2    8     -0.19      0.00
  -11   -2    8     -2.02      0.00
  -10   -2    8     -1.84      0.00
   -9   -2    8     -0.36      0.00
   -8   -2    8     -0.01      0.00
   -7   -2    8     -0.81      0.00
   -6   -2    8     -0.81      0.00
   -5   -2    8     -1.24      0.00
   -4   -2    8      0.66      0.00
   -3   -2    8      5.25      0.00
   -2   -2    8      3.16      0.00
   -1   -2    8     -5.43      0.00
    0   -2    8     -9.94      0.00
    1   -2    8     -6.37      0.00
    2   -2    8     -3.51      0.00
    3   -2    8     -3.60      0.00
    4   -2    8     -1.26      0.00
    5   -2    8      0.40      0.00
    6   -2    8     -0.24      0.00
    7   -2    8      0.03      0.00
    8   -2    8     -0.55      0.00
    9   -2    8     -0.36      0.00
   10   -2    8      0.07      0.00
   11   -2    8      0.63      0.00
  -13   -1    8      0.99      0.00
  -12   -1    8     -0.96      0.00
  -11   -1    8     -1.81      0.00
  -10   -1    8     -0.58      0.00
   -9   -1    8     -0.87      0.00
   -8   -1    8     -1.55      0.00
   -7   -1    8     -0.82      0.00
   -6   -1    8      0.25      0.00
   -5   -1    8     -0.45      0.00
   -4   -1    8     -1.95      0.00
   -3   -1    8     -4.94      0.00
   -2   -1    8     -9.12      0.00
   -1   -1    8    -10.16      0.00
    0   -1    8     -4.92      0.00
    1   -1    8     -1.74      0.00
    2   -1    8     -2.54      0.00
    3   -1    8     -0.24      0.00
    4   -1    8      0.33      0.00
    5   -1    8     -0.06      0.00
    6   -1    8      1.91      0.00
    7   -1    8      2.56      0.00
    8   -1    8      1.22      0.00
    9   -1    8     -0.39      0.00
   10   -1    8     -0.07      0.00
   11   -1    8      0.64      0.00
  -13    0    8      1.10      0.00
  -12    0    8     -0.06      0.00
  -11    0    8     -0.60      0.00
  -10    0    8     -1.49      0.00
   -9    0    8     -1.22      0.00
   -8    0    8     -0.68      0.00
   -7    0    8      1.11      0.00
   -6    0    8      0.74      0.00
   -5    0    8     -3.07      0.00
   -4    0    8     -5.53      0.00
   -3    0    8     -4.55      0.00
   -2    0    8     -0.74      0.00
   -1    0    8      4.04      0.00
    0    0    8      4.44      0.00
    1    0    8      1.16      0.00
    2    0    8      1.63      0.00
    3    0    8      0.67      0.00
    4    0    8     -0.53      0.00
    5    0    8     -0.08      0.00
    6    0    8     -0.03      0.00
    7    0    8     -0.45      0.00
    8    0    8     -1.12      0.00
    9    0    8     -0.43      0.00
   10    0    8     -0.05      0.00
   11    0    8      0.05      0.00
  -13    1    8     -0.13      0.00
  -12    1    8     -0.65      0.00
  -11    1    8     -1.95      0.00
  -10    1    8     -1.46      0.00
   -9    1    8     -0.77      0.00
   -8    1    8      0.67      0.00
   -7    1    8      1.24      0.00
   -6    1    8     -0.11      0.00
   -5    1    8      0.32      0.00
   -4    1    8      2.64      0.00
   -3    1    8      5.90      0.00
   -2    1    8      5.72      0.00
   -1    1    8      1.59      0.00
    0    1    8     -2.46      0.00
    1    1    8     -2.03      0.00
    2    1    8     -2.95      0.00
    3    1    8     -3.70      0.00
    4    1    8     -3.31      0.00
    5    1    8     -3.50      0.00
    6    1    8     -3.02      0.00
    7    1    8     -2.01      0.00
    8    1    8     -0.42      0.00
    9    1    8     -0.46      0.00
   10    1    8     -0.87      0.00
   11    1    8     -1.14      0.00
  -13    2    8      0.15      0.00
  -12    2    8     -0.20      0.00
  -11    2    8     -0.75      0.00
  -10    2    8     -1.27      0.00
   -9    2    8     -0.86      0.00
   -8    2    8      0.13      0.00
   -7    2    8      0.91      0.00
   -6    2    8      2.28      0.00
   -5    2    8      2.84      0.00
   -4    2    8      4.02      0.00
   -3    2    8      0.99      0.00
   -2    2    8     -5.41      0.00
   -1    2    8     -8.86      0.00
    0    2    8     -5.67      0.00
    1    2    8     -3.11      0.00
    2    2    8     -3.38      0.00
    3    2    8     -3.32      0.00
    4    2    8     -2.30      0.00
    5    2    8     -0.94      0.00
    6    2    8     -0.48      0.00
    7    2    8      0.13      0.00
    8    2    8      0.10      0.00
    9    2    8      0.35      0.00
   10    2    8      0.06      0.00
   11    2    8     -0.53      0.00
  -13    3    8     -0.09      0.00
  -12    3    8     -0.07      0.00
  -11    3    8      0.19      0.00
  -10    3    8     -0.19      0.00
   -9    3    8     -0.09      0.00
   -8    3    8      1.14      0.00
   -7    3    8      2.19      0.00
   -6    3    8      0.92      0.00
   -5    3    8      0.07      0.00
   -4    3    8     -1.36      0.00
   -3    3    8     -2.83      0.00
   -2    3    8     -3.26      0.00
   -1    3    8     -0.71      0.00
    0    3    8      1.54      0.00
    1    3    8      0.52      0.00
    2    3    8     -0.62      0.00
    3    3    8      0.18      0.00
    4    3    8      1.51      0.00
    5    3    8      1.35      0.00
    6    3    8      0.70      0.00
    7    3    8      0.06      0.00
    8    3    8      0.31      0.00
    9    3    8      0.97      0.00
   10    3    8      0.40      0.00
  -13    4    8     -0.27      0.00
  -12    4    8      0.87      0.00
  -11    4    8      0.38      0.00
  -10    4    8     -0.39      0.00
   -9    4    8      0.06      0.00
   -8    4    8      0.50      0.00
   -7    4    8      0.37      0.00
   -6    4    8      0.36      0.00
   -5    4    8      0.84      0.00
   -4    4    8      2.76      0.00
   -3    4    8      3.67      0.00
   -2    4    8      3.25      0.00
   -1    4    8      1.64      0.00
    0    4    8      0.38      0.00
    1    4    8      1.20      0.00
    2    4    8      2.39      0.00
    3    4    8      2.17      0.00
    4    4    8      0.73      0.00
    5    4    8     -0.24      0.00
    6    4    8     -0.86      0.00
    7    4    8     -1.51      0.00
    8    4    8     -0.20      0.00
    9    4    8      1.06      0.00
   10    4    8      0.17      0.00
  -13    5    8      0.97      0.00
  -12    5    8     -0.03      0.00
  -11    5    8     -1.04      0.00
  -10    5    8     -0.84      0.00
   -9    5    8     -1.14      0.00
   -8    5    8     -1.37      0.00
   -7    5    8     -1.31      0.00
   -6    5    8      0.11      0.00
   -5    5    8      2.36      0.00
   -4    5    8      2.76      0.00
   -3    5    8      2.00      0.00
   -2    5    8     -0.59      0.00
   -1    5    8     -1.27      0.00
    0    5    8      0.39      0.00
    1    5    8      1.07      0.00
    2    5    8      0.48      0.00
    3    5    8     -0.62      0.00
    4    5    8     -0.63      0.00
    5    5    8      0.06      0.00
    6    5    8     -0.73      0.00
    7    5    8     -0.46      0.00
    8    5    8      0.18      0.00
    9    5    8     -0.02      0.00
  -13    6    8      0.81      0.00
  -12    6    8      0.12      0.00
  -11    6    8     -0.47      0.00
  -10    6    8     -0.47      0.00
   -9    6    8      0.25      0.00
   -8    6    8      0.06      0.00
   -7    6    8      0.18      0.00
   -6    6    8      0.42      0.00
   -5    6    8      0.17      0.00
   -4    6    8      0.87      0.00
   -3    6    8     -0.76      0.00
   -2    6    8     -0.96      0.00
   -1    6    8     -0.52      0.00
    0    6    8     -1.64      0.00
    1    6    8     -1.48      0.00
    2    6    8     -0.79      0.00
    3    6    8     -0.07      0.00
    4    6    8      0.53      0.00
    5    6    8     -0.05      0.00
    6    6    8      0.26      0.00
    7    6    8     -0.31      0.00
    8    6    8     -1.18      0.00
    9    6    8     -0.28      0.00
  -12    7    8     -0.54      0.00
  -11    7    8     -0.58      0.00
  -10    7    8      0.69      0.00
   -9    7    8      1.48      0.00
   -8    7    8      1.41      0.00
   -7    7    8      0.08      0.00
   -6    7    8     -0.67      0.00
   -5    7    8      0.42      0.00
   -4    7    8     -0.88      0.00
   -3    7    8     -0.81      0.00
   -2    7    8     -0.54      0.00
   -1    7    8     -1.85      0.00
    0    7    8     -1.55      0.00
    1    7    8     -0.77      0.00
    2    7    8      0.24      0.00
    3    7    8      0.46      0.00
    4    7    8     -0.76      0.00
    5    7    8     -0.03      0.00
    6    7    8      0.53      0.00
    7    7    8     -0.02      0.00
    8    7    8     -0.04      0.00
  -12    8    8      0.34      0.00
  -11    8    8      0.62      0.00
  -10    8    8      0.59      0.00
   -9    8    8      0.30      0.00
   -8    8    8     -0.38      0.00
   -7    8    8      0.05      0.00
   -6    8    8      0.66      0.00
   -5    8    8     -1.03      0.00
   -4    8    8     -1.02      0.00
   -3    8    8     -0.47      0.00
   -2    8    8     -0.51      0.00
   -1    8    8      0.30      0.00
    0    8    8      0.28      0.00
    1    8    8      0.90      0.00
    2    8    8      1.60      0.00
    3    8    8      0.13      0.00
    4    8    8     -0.41      0.00
    5    8    8      0.16      0.00
    6    8    8      0.62      0.00
    7    8    8     -0.09      0.00
  -11    9    8      1.08      0.00
  -10    9    8      0.36      0.00
   -9    9    8     -0.33      0.00
   -8    9    8      0.51      0.00
   -7    9    8      0.37      0.00
   -6    9    8     -1.01      0.00
   -5    9    8     -0.11      0.00
   -4    9    8      1.05      0.00
   -3    9    8      0.83      0.00
   -2    9    8      0.63      0.00
   -1    9    8      0.11      0.00
    0    9    8     -0.17      0.00
    1    9    8     -0.02      0.00
    2    9    8     -0.60      0.00
    3    9    8     -0.44      0.00
    4    9    8      0.06      0.00
    5    9    8      0.39      0.00
    6    9    8     -0.49      0.00
    7    9    8     -0.72      0.00
  -11   10    8     -0.17      0.00
  -10   10    8     -0.32      0.00
   -9   10    8      0.62      0.00
   -8   10    8      0.29      0.00
   -7   10    8     -1.10      0.00
   -6   10    8     -0.77      0.00
   -5   10    8      0.91      0.00
   -4   10    8      1.02      0.00
   -3   10    8     -0.35      0.00
   -2   10    8     -0.98      0.00
   -1   10    8     -0.81      0.00
    0   10    8     -0.58      0.00
    1   10    8     -1.00      0.00
    2   10    8     -0.25      0.00
    3   10    8      0.51      0.00
    4   10    8      0.31      0.00
    5   10    8     -0.28      0.00
    6   10    8     -0.15      0.00
  -10   11    8      0.30      0.00
   -9   11    8      0.50      0.00
   -8   11    8      0.09      0.00
   -7   11    8     -0.45      0.00
   -6   11    8      0.33      0.00
   -5   11    8      0.82      0.00
   -4   11    8      0.36      0.00
   -3   11    8      0.05      0.00
   -2   11    8     -0.16      0.00
   -1   11    8      0.39      0.00
    0   11    8      0.15      0.00
    1   11    8      0.29      0.00
    2   11    8      0.47      0.00
    3   11    8     -0.18      0.00
    4   11    8     -0.26      0.00
   -8   12    8      0.26      0.00
   -7   12    8      0.69      0.00
   -6   12    8     -0.24      0.00
   -5   12    8     -0.82      0.00
   -4   12    8     -0.32      0.00
   -3   12    8     -0.52      0.00
   -2   12    8      0.09      0.00
   -1   12    8      0.33      0.00
    0   12    8      0.77      0.00
    1   12    8      1.05      0.00
    2   12    8      0.45      0.00
    3   12    8      0.29      0.00
   -6   13    8     -0.70      0.00
   -5   13    8      0.11      0.00
   -4   13    8      0.10      0.00
   -3   13    8      0.42      0.00
   -2   13    8      0.31      0.00
   -1   13    8      0.47      0.00
    0   13    8      0.50      0.00
   -2  -14    9      0.52      0.00
   -1  -14    9      1.09      0.00
    0  -14    9      0.76      0.00
    1  -14    9      0.53      0.00
    2  -14    9     -0.23      0.00
    3  -14    9     -0.54      0.00
    4  -14    9      0.47      0.00
    5  -14    9      0.72      0.00
   -5  -13    9      0.55      0.00
   -4  -13    9      0.61      0.00
   -3  -13    9      0.86      0.00
   -2  -13    9      0.99      0.00
   -1  -13    9     -0.54      0.00
    0  -13    9     -0.86      0.00
    1  -13    9     -0.56      0.00
    2  -13    9     -0.60      0.00
    3  -13    9     -0.27      0.00
    4  -13    9      0.16      0.00
    5  -13    9      0.60      0.00
    6  -13    9      0.40      0.00
   -6  -12    9     -0.83      0.00
   -5  -12    9     -0.04      0.00
   -4  -12    9     -0.10      0.00
   -3  -12    9     -0.17      0.00
   -2  -12    9     -0.78      0.00
   -1  -12    9     -0.29      0.00
    0  -12    9      0.26      0.00
    1  -12    9      0.28      0.00
    2  -12    9     -0.05      0.00
    3  -12    9     -0.50      0.00
    4  -12    9     -0.25      0.00
    5  -12    9      0.17      0.00
    6  -12    9      0.83      0.00
    7  -12    9      0.39      0.00
    8  -12    9     -0.57      0.00
   -7  -11    9     -1.44      0.00
   -6  -11    9     -0.34      0.00
   -5  -11    9     -0.14      0.00
   -4  -11    9     -0.11      0.00
   -3  -11    9     -0.01      0.00
   -2  -11    9      0.57      0.00
   -1  -11    9      0.53      0.00
    0  -11    9      0.28      0.00
    1  -11    9      0.42      0.00
    2  -11    9      0.24      0.00
    3  -11    9     -0.66      0.00
    4  -11    9     -0.72      0.00
    5  -11    9      0.63      0.00
    6  -11    9      0.27      0.00
    7  -11    9     -0.48      0.00
    8  -11    9     -0.34      0.00
    9  -11    9     -0.16      0.00
   -8  -10    9      0.20      0.00
   -7  -10    9      0.32      0.00
   -6  -10    9     -0.04      0.00
   -5  -10    9     -0.07      0.00
   -4  -10    9      0.01      0.00
   -3  -10    9     -0.09      0.00
   -2  -10    9     -0.11      0.00
   -1  -10    9     -0.06      0.00
    0  -10    9      0.05      0.00
    1  -10    9      0.36      0.00
    2  -10    9     -0.74      0.00
    3  -10    9     -1.38      0.00
    4  -10    9     -0.13      0.00
    5  -10    9     -0.14      0.00
    6  -10    9     -0.32      0.00
    7  -10    9     -0.42      0.00
    8  -10    9     -0.29      0.00
    9  -10    9      0.59      0.00
   -9   -9    9      0.50      0.00
   -8   -9    9      0.44      0.00
   -7   -9    9     -0.01      0.00
   -6   -9    9      0.08      0.00
   -5   -9    9      0.65      0.00
   -4   -9    9      0.45      0.00
   -3   -9    9      0.52      0.00
   -2   -9    9      0.80      0.00
   -1   -9    9      0.25      0.00
    0   -9    9      0.56      0.00
    1   -9    9      0.38      0.00
    2   -9    9     -0.05      0.00
    3   -9    9     -0.10      0.00
    4   -9    9     -1.02      0.00
    5   -9    9     -0.63      0.00
    6   -9    9     -0.31      0.00
    7   -9    9     -1.02      0.00
    8   -9    9     -0.88      0.00
    9   -9    9      0.33      0.00
   10   -9    9      0.23      0.00
  -10   -8    9      0.15      0.00
   -9   -8    9      0.36      0.00
   -8   -8    9      0.22      0.00
   -7   -8    9      0.04      0.00
   -6   -8    9      0.63      0.00
   -5   -8    9      0.32      0.00
   -4   -8    9     -0.27      0.00
   -3   -8    9      0.47      0.00
   -2   -8    9      0.47      0.00
   -1   -8    9      0.41      0.00
    0   -8    9     -0.02      0.00
    1   -8    9     -0.08      0.00
    2   -8    9      0.48      0.00
    3   -8    9     -0.31      0.00
    4   -8    9     -1.16      0.00
    5   -8    9     -1.30      0.00
    6   -8    9     -1.36      0.00
    7   -8    9     -2.03      0.00
    8   -8    9     -1.89      0.00
    9   -8    9     -0.81      0.00
   10   -8    9      0.41      0.00
  -11   -7    9     -0.06      0.00
  -10   -7    9      0.21      0.00
   -9   -7    9     -0.04      0.00
   -8   -7    9     -0.91      0.00
   -7   -7    9     -0.28      0.00
   -6   -7    9      0.26      0.00
   -5   -7    9     -0.98      0.00
   -4   -7    9     -0.45      0.00
   -3   -7    9      0.51      0.00
   -2   -7    9      0.50      0.00
   -1   -7    9     -0.56      0.00
    0   -7    9     -1.14      0.00
    1   -7    9      0.35      0.00
    2   -7    9      1.61      0.00
    3   -7    9      0.56      0.00
    4   -7    9     -1.25      0.00
    5   -7    9     -0.96      0.00
    6   -7    9     -0.61      0.00
    7   -7    9     -1.19      0.00
    8   -7    9     -1.04      0.00
    9   -7    9      0.43      0.00
   10   -7    9      0.18      0.00
   11   -7    9      0.02      0.00
  -11   -6    9     -0.31      0.00
  -10   -6    9      0.29      0.00
   -9   -6    9     -0.28      0.00
   -8   -6    9      0.05      0.00
   -7   -6    9      1.45      0.00
   -6   -6    9      0.66      0.00
   -5   -6    9      0.35      0.00
   -4   -6    9      0.82      0.00
   -3   -6    9      0.59      0.00
   -2   -6    9      0.19      0.00
   -1   -6    9     -0.34      0.00
    0   -6    9     -0.37      0.00
    1   -6    9     -0.52      0.00
    2   -6    9     -1.20      0.00
    3   -6    9     -1.90      0.00
    4   -6    9     -0.33      0.00
    5   -6    9      1.14      0.00
    6   -6    9      0.28      0.00
    7   -6    9     -0.76      0.00
    8   -6    9      0.27      0.00
    9   -6    9     -0.15      0.00
   10   -6    9     -0.62      0.00
   11   -6    9      0.23      0.00
  -12   -5    9     -0.16      0.00
  -11   -5    9      0.58      0.00
  -10   -5    9      0.75      0.00
   -9   -5    9      0.66      0.00
   -8   -5    9      1.27      0.00
   -7   -5    9      0.90      0.00
   -6   -5    9      0.25      0.00
   -5   -5    9      0.36      0.00
   -4   -5    9      0.54      0.00
   -3   -5    9      1.65      0.00
   -2   -5    9      1.42      0.00
   -1   -5    9     -0.71      0.00
    0   -5    9     -2.83      0.00
    1   -5    9     -3.44      0.00
    2   -5    9     -4.16      0.00
    3   -5    9     -2.74      0.00
    4   -5    9      0.58      0.00
    5   -5    9      1.55      0.00
    6   -5    9      0.66      0.00
    7   -5    9      0.88      0.00
    8   -5    9      1.00      0.00
    9   -5    9      0.87      0.00
   10   -5    9      0.21      0.00
   11   -5    9      0.35      0.00
  -12   -4    9     -0.12      0.00
  -11   -4    9     -0.44      0.00
  -10   -4    9     -0.19      0.00
   -9   -4    9      0.20      0.00
   -8   -4    9      0.42      0.00
   -7   -4    9      0.05      0.00
   -6   -4    9      0.48      0.00
   -5   -4    9      0.89      0.00
   -4   -4    9      2.60      0.00
   -3   -4    9      2.55      0.00
   -2   -4    9     -1.15      0.00
   -1   -4    9     -2.86      0.00
    0   -4    9      0.05      0.00
    1   -4    9      0.41      0.00
    2   -4    9     -1.31      0.00
    3   -4    9      0.01      0.00
    4   -4    9      1.67      0.00
    5   -4    9      2.46      0.00
    6   -4    9      1.85      0.00
    7   -4    9      1.11      0.00
    8   -4    9      2.03      0.00
    9   -4    9      1.76      0.00
   10   -4    9      0.46      0.00
   11   -4    9     -0.19      0.00
  -13   -3    9      0.34      0.00
  -12   -3    9     -0.80      0.00
  -11   -3    9     -0.97      0.00
  -10   -3    9     -0.58      0.00
   -9   -3    9      0.37      0.00
   -8   -3    9      0.52      0.00
   -7   -3    9      1.67      0.00
   -6   -3    9      1.49      0.00
   -5   -3    9      0.71      0.00
   -4   -3    9      0.37      0.00
   -3   -3    9     -1.08      0.00
   -2   -3    9      0.18      0.00
   -1   -3    9      4.56      0.00
    0   -3    9      5.16      0.00
    1   -3    9      2.74      0.00
    2   -3    9      1.99      0.00
    3   -3    9      0.47      0.00
    4   -3    9      0.78      0.00
    5   -3    9      1.35      0.00
    6   -3    9      0.79      0.00
    7   -3    9      0.86      0.00
    8   -3    9      0.45      0.00
    9   -3    9      0.22      0.00
   10   -3    9     -0.09      0.00
   11   -3    9      0.60      0.00
  -13   -2    9      0.30      0.00
  -12   -2    9     -0.80      0.00
  -11   -2    9     -2.01      0.00
  -10   -2    9     -1.27      0.00
   -9   -2    9     -0.53      0.00
   -8   -2    9      0.85      0.00
   -7   -2    9      1.41      0.00
   -6   -2    9      0.31      0.00
   -5   -2    9     -0.51      0.00
   -4   -2    9     -0.55      0.00
   -3   -2    9      2.99      0.00
   -2   -2    9      5.22      0.00
   -1   -2    9      1.24      0.00
    0   -2    9     -2.37      0.00
    1   -2    9     -1.15      0.00
    2   -2    9     -1.73      0.00
    3   -2    9     -1.79      0.00
    4   -2    9     -0.40      0.00
    5   -2    9      0.25      0.00
    6   -2    9      0.07      0.00
    7   -2    9     -1.09      0.00
    8   -2    9     -0.88      0.00
    9   -2    9     -0.72      0.00
   10   -2    9      0.53      0.00
   11   -2    9      0.98      0.00
  -13   -1    9      0.61      0.00
  -12   -1    9     -1.62      0.00
  -11   -1    9     -2.44      0.00
  -10   -1    9     -1.30      0.00
   -9   -1    9     -0.42      0.00
   -8   -1    9     -0.37      0.00
   -7   -1    9      0.09      0.00
   -6   -1    9      0.86      0.00
   -5   -1    9     -0.49      0.00
   -4   -1    9     -0.58      0.00
   -3   -1    9     -1.43      0.00
   -2   -1    9     -5.91      0.00
   -1   -1    9     -8.58      0.00
    0   -1    9     -5.87      0.00
    1   -1    9     -4.19      0.00
    2   -1    9     -3.64      0.00
    3   -1    9     -2.05      0.00
    4   -1    9     -0.83      0.00
    5   -1    9     -0.36      0.00
    6   -1    9      0.37      0.00
    7   -1    9      2.12      0.00
    8   -1    9      0.94      0.00
    9   -1    9      0.13      0.00
   10   -1    9      0.52      0.00
   11   -1    9      1.23      0.00
  -13    0    9      0.79      0.00
  -12    0    9     -0.86      0.00
  -11    0    9     -1.02      0.00
  -10    0    9     -0.94      0.00
   -9    0    9     -1.32      0.00
   -8    0    9     -0.53      0.00
   -7    0    9      1.25      0.00
   -6    0    9      0.76      0.00
   -5    0    9     -2.07      0.00
   -4    0    9     -5.25      0.00
   -3    0    9     -7.16      0.00
   -2    0    9     -6.17      0.00
   -1    0    9     -1.82      0.00
    0    0    9      1.29      0.00
    1    0    9      1.01      0.00
    2    0    9      0.44      0.00
    3    0    9      0.77      0.00
    4    0    9      0.36      0.00
    5    0    9      0.17      0.00
    6    0    9      1.62      0.00
    7    0    9      0.73      0.00
    8    0    9     -0.53      0.00
    9    0    9     -0.37      0.00
   10    0    9      0.43      0.00
   11    0    9      0.34      0.00
  -13    1    9     -0.20      0.00
  -12    1    9     -0.61      0.00
  -11    1    9     -1.44      0.00
  -10    1    9     -1.80      0.00
   -9    1    9     -0.53      0.00
   -8    1    9      0.92      0.00
   -7    1    9      1.85      0.00
   -6    1    9      0.10      0.00
   -5    1    9     -1.75      0.00
   -4    1    9     -0.81      0.00
   -3    1    9      1.26      0.00
   -2    1    9      3.74      0.00
   -1    1    9      5.00      0.00
    0    1    9      3.82      0.00
    1    1    9      1.41      0.00
    2    1    9      0.15      0.00
    3    1    9     -0.92      0.00
    4    1    9     -2.05      0.00
    5    1    9     -2.29      0.00
    6    1    9     -2.70      0.00
    7    1    9     -2.16      0.00
    8    1    9     -0.80      0.00
    9    1    9     -0.53      0.00
   10    1    9     -1.59      0.00
   11    1    9     -1.39      0.00
  -13    2    9      0.13      0.00
  -12    2    9     -0.12      0.00
  -11    2    9     -1.13      0.00
  -10    2    9     -1.15      0.00
   -9    2    9     -0.85      0.00
   -8    2    9      0.82      0.00
   -7    2    9      0.69      0.00
   -6    2    9      0.51      0.00
   -5    2    9      2.23      0.00
   -4    2    9      3.29      0.00
   -3    2    9      2.52      0.00
   -2    2    9     -1.51      0.00
   -1    2    9     -4.09      0.00
    0    2    9     -3.82      0.00
    1    2    9     -2.44      0.00
    2    2    9     -2.78      0.00
    3    2    9     -3.62      0.00
    4    2    9     -2.94      0.00
    5    2    9     -2.40      0.00
    6    2    9     -2.10      0.00
    7    2    9     -0.81      0.00
    8    2    9      0.11      0.00
    9    2    9     -0.51      0.00
   10    2    9     -1.05      0.00
  -13    3    9      0.17      0.00
  -12    3    9     -0.18      0.00
  -11    3    9     -0.45      0.00
  -10    3    9     -0.95      0.00
   -9    3    9      0.02      0.00
   -8    3    9      0.68      0.00
   -7    3    9      1.79      0.00
   -6    3    9      2.22      0.00
   -5    3    9      0.73      0.00
   -4    3    9     -0.36      0.00
   -3    3    9     -4.16      0.00
   -2    3    9     -5.69      0.00
   -1    3    9     -3.89      0.00
    0    3    9     -0.98      0.00
    1    3    9     -0.87      0.00
    2    3    9     -2.70      0.00
    3    3    9     -1.52      0.00
    4    3    9      0.42      0.00
    5    3    9      0.40      0.00
    6    3    9      0.13      0.00
    7    3    9      0.35      0.00
    8    3    9      0.76      0.00
    9    3    9      0.88      0.00
   10    3    9     -0.60      0.00
  -13    4    9     -0.20      0.00
  -12    4    9      0.17      0.00
  -11    4    9      0.08      0.00
  -10    4    9     -0.09      0.00
   -9    4    9      0.06      0.00
   -8    4    9      1.63      0.00
   -7    4    9      2.32      0.00
   -6    4    9      1.06      0.00
   -5    4    9      0.93      0.00
   -4    4    9     -0.36      0.00
   -3    4    9      0.16      0.00
   -2    4    9      0.08      0.00
   -1    4    9     -0.01      0.00
    0    4    9      0.37      0.00
    1    4    9     -0.07      0.00
    2    4    9      1.35      0.00
    3    4    9      2.20      0.00
    4    4    9      1.29      0.00
    5    4    9      0.40      0.00
    6    4    9     -0.80      0.00
    7    4    9     -1.17      0.00
    8    4    9      0.14      0.00
    9    4    9      0.87      0.00
   10    4    9      0.09      0.00
  -13    5    9      0.73      0.00
  -12    5    9      0.36      0.00
  -11    5    9     -0.72      0.00
  -10    5    9     -0.74      0.00
   -9    5    9     -0.24      0.00
   -8    5    9     -0.86      0.00
   -7    5    9     -1.09      0.00
   -6    5    9      0.26      0.00
   -5    5    9      0.88      0.00
   -4    5    9      2.50      0.00
   -3    5    9      1.41      0.00
   -2    5    9     -0.46      0.00
   -1    5    9     -0.23      0.00
    0    5    9      0.55      0.00
    1    5    9      1.97      0.00
    2    5    9      1.28      0.00
    3    5    9     -0.33      0.00
    4    5    9     -0.35      0.00
    5    5    9     -0.51      0.00
    6    5    9     -1.03      0.00
    7    5    9     -0.90      0.00
    8    5    9      0.43      0.00
    9    5    9      0.90      0.00
  -13    6    9      1.32      0.00
  -12    6    9      0.05      0.00
  -11    6    9     -0.18      0.00
  -10    6    9      0.01      0.00
   -9    6    9     -0.74      0.00
   -8    6    9     -0.68      0.00
   -7    6    9     -0.29      0.00
   -6    6    9     -0.02      0.00
   -5    6    9      1.52      0.00
   -4    6    9      1.33      0.00
   -3    6    9      0.55      0.00
   -2    6    9      0.14      0.00
   -1    6    9     -0.25      0.00
    0    6    9     -0.21      0.00
    1    6    9     -0.72      0.00
    2    6    9     -0.86      0.00
    3    6    9     -0.42      0.00
    4    6    9     -0.03      0.00
    5    6    9      0.61      0.00
    6    6    9      0.15      0.00
    7    6    9     -0.26      0.00
    8    6    9     -0.41      0.00
    9    6    9     -0.07      0.00
  -12    7    9     -0.13      0.00
  -11    7    9     -0.37      0.00
  -10    7    9      0.14      0.00
   -9    7    9      1.62      0.00
   -8    7    9      1.34      0.00
   -7    7    9      0.16      0.00
   -6    7    9      0.13      0.00
   -5    7    9      0.36      0.00
   -4    7    9      0.80      0.00
   -3    7    9      0.10      0.00
   -2    7    9     -0.45      0.00
   -1    7    9     -1.15      0.00
    0    7    9     -1.73      0.00
    1    7    9     -0.76      0.00
    2    7    9     -0.10      0.00
    3    7    9     -0.31      0.00
    4    7    9      0.09      0.00
    5    7    9      0.52      0.00
    6    7    9      0.78      0.00
    7    7    9      0.03      0.00
    8    7    9      0.21      0.00
  -12    8    9     -0.62      0.00
  -11    8    9     -0.13      0.00
  -10    8    9      0.78      0.00
   -9    8    9      0.54      0.00
   -8    8    9      0.21      0.00
   -7    8    9      0.36      0.00
   -6    8    9      0.59      0.00
   -5    8    9      0.30      0.00
   -4    8    9     -1.27      0.00
   -3    8    9     -1.11      0.00
   -2    8    9     -0.63      0.00
   -1    8    9     -0.60      0.00
    0    8    9      0.20      0.00
    1    8    9      0.98      0.00
    2    8    9      1.32      0.00
    3    8    9      0.50      0.00
    4    8    9     -0.31      0.00
    5    8    9      0.63      0.00
    6    8    9      0.65      0.00
    7    8    9      0.33      0.00
  -11    9    9      1.50      0.00
  -10    9    9      0.71      0.00
   -9    9    9      0.20      0.00
   -8    9    9      0.41      0.00
   -7    9    9      0.72      0.00
   -6    9    9      0.04      0.00
   -5    9    9     -0.88      0.00
   -4    9    9     -0.06      0.00
   -3    9    9      0.35      0.00
   -2    9    9      0.40      0.00
   -1    9    9      0.63      0.00
    0    9    9      0.52      0.00
    1    9    9      0.76      0.00
    2    9    9      0.04      0.00
    3    9    9     -0.92      0.00
    4    9    9      0.01      0.00
    5    9    9      0.39      0.00
    6    9    9     -0.16      0.00
  -10   10    9     -0.08      0.00
   -9   10    9      0.06      0.00
   -8   10    9      0.41      0.00
   -7   10    9     -0.65      0.00
   -6   10    9     -0.70      0.00
   -5   10    9      0.91      0.00
   -4   10    9      0.82      0.00
   -3   10    9     -0.30      0.00
   -2   10    9     -0.51      0.00
   -1   10    9     -0.32      0.00
    0   10    9     -0.40      0.00
    1   10    9     -0.90      0.00
    2   10    9     -0.85      0.00
    3   10    9      0.36      0.00
    4   10    9      0.46      0.00
    5   10    9     -0.15      0.00
   -9   11    9      0.84      0.00
   -8   11    9     -0.08      0.00
   -7   11    9     -0.48      0.00
   -6   11    9      0.63      0.00
   -5   11    9      1.28      0.00
   -4   11    9      0.52      0.00
   -3   11    9     -0.03      0.00
   -2   11    9      0.39      0.00
   -1   11    9      0.40      0.00
    0   11    9      0.02      0.00
    1   11    9     -0.15      0.00
    2   11    9      0.48      0.00
    3   11    9      0.13      0.00
    4   11    9     -0.29      0.00
   -8   12    9      0.36      0.00
   -7   12    9      0.55      0.00
   -6   12    9      0.53      0.00
   -5   12    9     -0.31      0.00
   -4   12    9     -0.64      0.00
   -3   12    9     -0.25      0.00
   -2   12    9     -0.10      0.00
   -1   12    9      0.50      0.00
    0   12    9      0.61      0.00
    1   12    9      1.12      0.00
    2   12    9      0.73      0.00
   -6   13    9     -1.27      0.00
   -5   13    9     -0.75      0.00
   -4   13    9      0.07      0.00
   -3   13    9      0.03      0.00
   -2   13    9      0.64      0.00
   -1   13    9      0.46      0.00
    0   13    9      0.86      0.00
   -2  -14   10      0.01      0.00
   -1  -14   10     -0.28      0.00
    0  -14   10      0.02      0.00
    1  -14   10      0.01      0.00
    2  -14   10     -0.31      0.00
    3  -14   10     -0.31      0.00
    4  -14   10      0.60      0.00
   -5  -13   10      0.76      0.00
   -4  -13   10      0.50      0.00
   -3  -13   10      1.06      0.00
   -2  -13   10      0.53      0.00
   -1  -13   10     -0.50      0.00
    0  -13   10     -1.14      0.00
    1  -13   10     -0.51      0.00
    2  -13   10     -0.81      0.00
    3  -13   10     -0.49      0.00
    4  -13   10      0.88      0.00
    5  -13   10      0.80      0.00
    6  -13   10      0.47      0.00
   -6  -12   10     -0.09      0.00
   -5  -12   10      0.25      0.00
   -4  -12   10      0.34      0.00
   -3  -12   10     -0.36      0.00
   -2  -12   10     -0.85      0.00
   -1  -12   10     -0.97      0.00
    0  -12   10      0.38      0.00
    1  -12   10     -0.06      0.00
    2  -12   10     -0.65      0.00
    3  -12   10      0.06      0.00
    4  -12   10      0.18      0.00
    5  -12   10      0.41      0.00
    6  -12   10      0.40      0.00
    7  -12   10      0.41      0.00
   -7  -11   10     -1.44      0.00
   -6  -11   10     -0.32      0.00
   -5  -11   10      0.06      0.00
   -4  -11   10     -0.49      0.00
   -3  -11   10     -0.17      0.00
   -2  -11   10      0.16      0.00
   -1  -11   10      1.04      0.00
    0  -11   10      0.35      0.00
    1  -11   10     -0.06      0.00
    2  -11   10      0.11      0.00
    3  -11   10     -0.40      0.00
    4  -11   10     -0.05      0.00
    5  -11   10      0.23      0.00
    6  -11   10      0.28      0.00
    7  -11   10     -0.50      0.00
    8  -11   10     -0.73      0.00
   -8  -10   10     -0.19      0.00
   -7  -10   10      0.09      0.00
   -6  -10   10      0.13      0.00
   -5  -10   10     -0.27      0.00
   -4  -10   10     -0.02      0.00
   -3  -10   10     -0.21      0.00
   -2  -10   10      0.12      0.00
   -1  -10   10      0.02      0.00
    0  -10   10      0.23      0.00
    1  -10   10     -0.13      0.00
    2  -10   10     -1.43      0.00
    3  -10   10     -1.33      0.00
    4  -10   10     -0.20      0.00
    5  -10   10      0.58      0.00
    6  -10   10     -0.54      0.00
    7  -10   10     -1.02      0.00
    8  -10   10     -0.32      0.00
    9  -10   10      0.68      0.00
   -9   -9   10      0.69      0.00
   -8   -9   10      0.44      0.00
   -7   -9   10      0.20      0.00
   -6   -9   10     -0.03      0.00
   -5   -9   10      0.33      0.00
   -4   -9   10      0.28      0.00
   -3   -9   10      0.35      0.00
   -2   -9   10      0.47      0.00
   -1   -9   10      0.57      0.00
    0   -9   10      0.20      0.00
    1   -9   10     -0.47      0.00
    2   -9   10     -0.94      0.00
    3   -9   10     -0.90      0.00
    4   -9   10     -0.14      0.00
    5   -9   10     -0.34      0.00
    6   -9   10     -0.61      0.00
    7   -9   10     -1.14      0.00
    8   -9   10     -0.31      0.00
    9   -9   10      1.18      0.00
   10   -9   10      0.66      0.00
  -10   -8   10      0.36      0.00
   -9   -8   10      0.05      0.00
   -8   -8   10      0.30      0.00
   -7   -8   10      0.47      0.00
   -6   -8   10      0.54      0.00
   -5   -8   10      0.40      0.00
   -4   -8   10      0.13      0.00
   -3   -8   10      0.52      0.00
   -2   -8   10      0.61      0.00
   -1   -8   10     -0.01      0.00
    0   -8   10      0.17      0.00
    1   -8   10      0.34      0.00
    2   -8   10     -0.19      0.00
    3   -8   10     -0.83      0.00
    4   -8   10     -1.50      0.00
    5   -8   10     -0.84      0.00
    6   -8   10     -1.28      0.00
    7   -8   10     -2.07      0.00
    8   -8   10     -1.48      0.00
    9   -8   10     -0.65      0.00
   10   -8   10     -0.33      0.00
  -11   -7   10      0.70      0.00
  -10   -7   10      0.34      0.00
   -9   -7   10      0.01      0.00
   -8   -7   10     -0.19      0.00
   -7   -7   10     -0.08      0.00
   -6   -7   10      0.15      0.00
   -5   -7   10     -0.99      0.00
   -4   -7   10     -0.81      0.00
   -3   -7   10      0.24      0.00
   -2   -7   10     -0.63      0.00
   -1   -7   10     -1.17      0.00
    0   -7   10     -0.66      0.00
    1   -7   10      0.47      0.00
    2   -7   10      1.11      0.00
    3   -7   10     -0.42      0.00
    4   -7   10     -1.45      0.00
    5   -7   10     -1.25      0.00
    6   -7   10     -1.16      0.00
    7   -7   10     -1.44      0.00
    8   -7   10     -1.17      0.00
    9   -7   10     -0.27      0.00
   10   -7   10      0.34      0.00
  -11   -6   10      0.30      0.00
  -10   -6   10      0.42      0.00
   -9   -6   10     -0.22      0.00
   -8   -6   10     -0.23      0.00
   -7   -6   10      1.17      0.00
   -6   -6   10      0.19      0.00
   -5   -6   10     -0.73      0.00
   -4   -6   10      0.34      0.00
   -3   -6   10     -0.46      0.00
   -2   -6   10     -1.00      0.00
   -1   -6   10     -0.52      0.00
    0   -6   10      0.02      0.00
    1   -6   10      0.56      0.00
    2   -6   10     -0.25      0.00
    3   -6   10     -1.27      0.00
    4   -6   10     -0.60      0.00
    5   -6   10      0.27      0.00
    6   -6   10     -0.15      0.00
    7   -6   10     -0.47      0.00
    8   -6   10      0.01      0.00
    9   -6   10     -0.22      0.00
   10   -6   10     -1.14      0.00
   11   -6   10      0.45      0.00
  -12   -5   10     -0.32      0.00
  -11   -5   10      0.56      0.00
  -10   -5   10      0.59      0.00
   -9   -5   10      0.18      0.00
   -8   -5   10      1.29      0.00
   -7   -5   10      1.07      0.00
   -6   -5   10     -0.12      0.00
   -5   -5   10      0.27      0.00
   -4   -5   10     -0.30      0.00
   -3   -5   10      0.37      0.00
   -2   -5   10      1.34      0.00
   -1   -5   10      0.08      0.00
    0   -5   10     -1.67      0.00
    1   -5   10     -3.22      0.00
    2   -5   10     -4.03      0.00
    3   -5   10     -2.57      0.00
    4   -5   10     -0.13      0.00
    5   -5   10      0.62      0.00
    6   -5   10      0.14      0.00
    7   -5   10      0.51      0.00
    8   -5   10      0.88      0.00
    9   -5   10     -0.82      0.00
   10   -5   10     -0.25      0.00
   11   -5   10      0.88      0.00
  -12   -4   10     -0.29      0.00
  -11   -4   10     -0.27      0.00
  -10   -4   10     -0.14      0.00
   -9   -4   10      0.43      0.00
   -8   -4   10      0.56      0.00
   -7   -4   10      0.18      0.00
   -6   -4   10      0.30      0.00
   -5   -4   10     -0.03      0.00
   -4   -4   10      1.42      0.00
   -3   -4   10      2.29      0.00
   -2   -4   10     -0.39      0.00
   -1   -4   10     -2.25      0.00
    0   -4   10     -2.03      0.00
    1   -4   10     -2.46      0.00
    2   -4   10     -3.39      0.00
    3   -4   10     -1.53      0.00
    4   -4   10      1.50      0.00
    5   -4   10      1.73      0.00
    6   -4   10      0.82      0.00
    7   -4   10      1.36      0.00
    8   -4   10      1.02      0.00
    9   -4   10      1.04      0.00
   10   -4   10      0.15      0.00
   11   -4   10     -0.01      0.00
  -12   -3   10     -1.04      0.00
  -11   -3   10     -0.98      0.00
  -10   -3   10     -0.12      0.00
   -9   -3   10      0.35      0.00
   -8   -3   10      0.87      0.00
   -7   -3   10      1.44      0.00
   -6   -3   10      1.29      0.00
   -5   -3   10      0.85      0.00
   -4   -3   10      0.10      0.00
   -3   -3   10     -1.85      0.00
   -2   -3   10     -1.46      0.00
   -1   -3   10      1.97      0.00
    0   -3   10      4.08      0.00
    1   -3   10      1.80      0.00
    2   -3   10      0.22      0.00
    3   -3   10      1.39      0.00
    4   -3   10      1.33      0.00
    5   -3   10      0.65      0.00
    6   -3   10      0.95      0.00
    7   -3   10      0.95      0.00
    8   -3   10      1.39      0.00
    9   -3   10      0.39      0.00
   10   -3   10     -0.20      0.00
   11   -3   10     -0.01      0.00
  -13   -2   10     -0.22      0.00
  -12   -2   10     -1.40      0.00
  -11   -2   10     -1.45      0.00
  -10   -2   10     -0.79      0.00
   -9   -2   10      0.35      0.00
   -8   -2   10      1.11      0.00
   -7   -2   10      2.60      0.00
   -6   -2   10      1.69      0.00
   -5   -2   10     -0.74      0.00
   -4   -2   10     -1.60      0.00
   -3   -2   10      0.68      0.00
   -2   -2   10      4.24      0.00
   -1   -2   10      5.55      0.00
    0   -2   10      3.31      0.00
    1   -2   10      1.46      0.00
    2   -2   10      1.33      0.00
    3   -2   10      0.32      0.00
    4   -2   10      0.67      0.00
    5   -2   10      0.99      0.00
    6   -2   10     -0.07      0.00
    7   -2   10     -0.57      0.00
    8   -2   10     -1.25      0.00
    9   -2   10     -0.71      0.00
   10   -2   10      0.38      0.00
   11   -2   10      1.09      0.00
  -13   -1   10     -0.14      0.00
  -12   -1   10     -1.87      0.00
  -11   -1   10     -2.47      0.00
  -10   -1   10     -0.89      0.00
   -9   -1   10     -0.46      0.00
   -8   -1   10      1.18      0.00
   -7   -1   10      1.65      0.00
   -6   -1   10      0.58      0.00
   -5   -1   10     -0.33      0.00
   -4   -1   10     -0.36      0.00
   -3   -1   10      0.50      0.00
   -2   -1   10     -0.44      0.00
   -1   -1   10     -2.43      0.00
    0   -1   10     -2.82      0.00
    1   -1   10     -2.16      0.00
    2   -1   10     -2.81      0.00
    3   -1   10     -1.29      0.00
    4   -1   10     -0.55      0.00
    5   -1   10     -1.33      0.00
    6   -1   10     -0.32      0.00
    7   -1   10      0.54      0.00
    8   -1   10      0.55      0.00
    9   -1   10      0.33      0.00
   10   -1   10      1.43      0.00
   11   -1   10      1.36      0.00
  -13    0   10      0.25      0.00
  -12    0   10     -1.52      0.00
  -11    0   10     -1.17      0.00
  -10    0   10     -1.06      0.00
   -9    0   10     -0.48      0.00
   -8    0   10     -0.15      0.00
   -7    0   10      0.59      0.00
   -6    0   10      0.83      0.00
   -5    0   10     -1.42      0.00
   -4    0   10     -3.45      0.00
   -3    0   10     -5.75      0.00
   -2    0   10     -6.41      0.00
   -1    0   10     -4.27      0.00
    0    0   10     -1.38      0.00
    1    0   10     -1.71      0.00
    2    0   10     -1.26      0.00
    3    0   10     -0.48      0.00
    4    0   10     -0.95      0.00
    5    0   10      0.03      0.00
    6    0   10      1.55      0.00
    7    0   10      1.69      0.00
    8    0   10      0.02      0.00
    9    0   10      0.37      0.00
   10    0   10      0.98      0.00
   11    0   10      0.99      0.00
  -13    1   10     -0.39      0.00
  -12    1   10     -0.77      0.00
  -11    1   10     -1.22      0.00
  -10    1   10     -1.20      0.00
   -9    1   10     -0.66      0.00
   -8    1   10      0.83      0.00
   -7    1   10      1.98      0.00
   -6    1   10      0.20      0.00
   -5    1   10     -1.75      0.00
   -4    1   10     -2.86      0.00
   -3    1   10     -2.12      0.00
   -2    1   10      0.29      0.00
   -1    1   10      4.18      0.00
    0    1   10      4.52      0.00
    1    1   10      2.35      0.00
    2    1   10      1.09      0.00
    3    1   10      0.26      0.00
    4    1   10     -0.55      0.00
    5    1   10     -1.44      0.00
    6    1   10     -1.23      0.00
    7    1   10     -1.25      0.00
    8    1   10     -0.45      0.00
    9    1   10     -0.55      0.00
   10    1   10     -1.24      0.00
  -13    2   10     -0.14      0.00
  -12    2   10     -0.01      0.00
  -11    2   10     -0.87      0.00
  -10    2   10     -1.10      0.00
   -9    2   10     -0.10      0.00
   -8    2   10      1.19      0.00
   -7    2   10      0.76      0.00
   -6    2   10     -0.58      0.00
   -5    2   10     -0.17      0.00
   -4    2   10      1.70      0.00
   -3    2   10      1.64      0.00
   -2    2   10      1.36      0.00
   -1    2   10      0.52      0.00
    0    2   10     -0.22      0.00
    1    2   10     -0.31      0.00
    2    2   10     -0.84      0.00
    3    2   10     -1.72      0.00
    4    2   10     -2.80      0.00
    5    2   10     -2.75      0.00
    6    2   10     -2.43      0.00
    7    2   10     -1.00      0.00
    8    2   10     -0.09      0.00
    9    2   10     -1.16      0.00
   10    2   10     -2.37      0.00
  -13    3   10      0.62      0.00
  -12    3   10     -0.11      0.00
  -11    3   10     -0.71      0.00
  -10    3   10     -0.85      0.00
   -9    3   10     -0.32      0.00
   -8    3   10      0.65      0.00
   -7    3   10      0.31      0.00
   -6    3   10      0.58      0.00
   -5    3   10      0.88      0.00
   -4    3   10     -0.71      0.00
   -3    3   10     -2.73      0.00
   -2    3   10     -4.81      0.00
   -1    3   10     -3.44      0.00
    0    3   10     -1.10      0.00
    1    3   10     -1.52      0.00
    2    3   10     -3.03      0.00
    3    3   10     -2.96      0.00
    4    3   10     -1.06      0.00
    5    3   10     -0.85      0.00
    6    3   10     -0.83      0.00
    7    3   10      0.70      0.00
    8    3   10      1.04      0.00
    9    3   10     -0.42      0.00
   10    3   10     -1.36      0.00
  -13    4   10     -0.26      0.00
  -12    4   10     -0.18      0.00
  -11    4   10     -0.39      0.00
  -10    4   10     -0.48      0.00
   -9    4   10      0.50      0.00
   -8    4   10      1.32      0.00
   -7    4   10      2.79      0.00
   -6    4   10      2.10      0.00
   -5    4   10      0.01      0.00
   -4    4   10     -0.76      0.00
   -3    4   10     -2.59      0.00
   -2    4   10     -1.95      0.00
   -1    4   10     -1.03      0.00
    0    4   10     -1.13      0.00
    1    4   10     -1.41      0.00
    2    4   10     -1.01      0.00
    3    4   10      1.25      0.00
    4    4   10      1.38      0.00
    5    4   10      0.05      0.00
    6    4   10     -0.26      0.00
    7    4   10     -0.39      0.00
    8    4   10      0.08      0.00
    9    4   10      0.45      0.00
  -13    5   10      0.73      0.00
  -12    5   10      0.00      0.00
  -11    5   10     -0.48      0.00
  -10    5   10     -0.16      0.00
   -9    5   10     -0.02      0.00
   -8    5   10      0.64      0.00
   -7    5   10     -0.10      0.00
   -6    5   10     -0.56      0.00
   -5    5   10      0.74      0.00
   -4    5   10      0.19      0.00
   -3    5   10      0.34      0.00
   -2    5   10     -0.93      0.00
   -1    5   10     -0.85      0.00
    0    5   10      0.87      0.00
    1    5   10      1.07      0.00
    2    5   10      1.52      0.00
    3    5   10      0.51      0.00
    4    5   10     -0.32      0.00
    5    5   10     -0.44      0.00
    6    5   10     -1.62      0.00
    7    5   10     -1.12      0.00
    8    5   10      0.81      0.00
    9    5   10      0.99      0.00
  -12    6   10      0.50      0.00
  -11    6   10      0.07      0.00
  -10    6   10      0.03      0.00
   -9    6   10     -0.37      0.00
   -8    6   10     -1.60      0.00
   -7    6   10     -1.34      0.00
   -6    6   10      0.14      0.00
   -5    6   10      0.71      0.00
   -4    6   10      2.05      0.00
   -3    6   10      0.77      0.00
   -2    6   10      0.36      0.00
   -1    6   10      1.20      0.00
    0    6   10      0.29      0.00
    1    6   10      0.28      0.00
    2    6   10     -0.60      0.00
    3    6   10     -0.91      0.00
    4    6   10      0.14      0.00
    5    6   10     -0.02      0.00
    6    6   10     -0.25      0.00
    7    6   10     -0.16      0.00
    8    6   10      0.33      0.00
  -12    7   10     -0.08      0.00
  -11    7   10      0.09      0.00
  -10    7   10      0.38      0.00
   -9    7   10      0.54      0.00
   -8    7   10      0.99      0.00
   -7    7   10      0.09      0.00
   -6    7   10     -0.39      0.00
   -5    7   10      1.38      0.00
   -4    7   10      1.35      0.00
   -3    7   10      1.20      0.00
   -2    7   10      0.88      0.00
   -1    7   10     -0.82      0.00
    0    7   10     -0.98      0.00
    1    7   10     -0.99      0.00
    2    7   10     -1.10      0.00
    3    7   10     -0.47      0.00
    4    7   10      0.25      0.00
    5    7   10      1.12      0.00
    6    7   10      0.54      0.00
    7    7   10      0.29      0.00
    8    7   10      0.78      0.00
  -12    8   10     -0.83      0.00
  -11    8   10     -0.83      0.00
  -10    8   10     -0.19      0.00
   -9    8   10      0.88      0.00
   -8    8   10      0.13      0.00
   -7    8   10      0.00      0.00
   -6    8   10      1.13      0.00
   -5    8   10      0.67      0.00
   -4    8   10     -0.24      0.00
   -3    8   10     -0.81      0.00
   -2    8   10     -1.06      0.00
   -1    8   10     -0.79      0.00
    0    8   10     -0.44      0.00
    1    8   10      0.15      0.00
    2    8   10      0.74      0.00
    3    8   10      0.43      0.00
    4    8   10      0.59      0.00
    5    8   10      0.63      0.00
    6    8   10      0.67      0.00
    7    8   10      0.75      0.00
  -11    9   10      0.85      0.00
  -10    9   10      0.88      0.00
   -9    9   10      0.14      0.00
   -8    9   10      0.60      0.00
   -7    9   10      1.21      0.00
   -6    9   10      0.46      0.00
   -5    9   10     -0.71      0.00
   -4    9   10     -1.15      0.00
   -3    9   10     -0.34      0.00
   -2    9   10      0.28      0.00
   -1    9   10      0.56      0.00
    0    9   10      0.85      0.00
    1    9   10      1.43      0.00
    2    9   10      0.55      0.00
    3    9   10     -0.60      0.00
    4    9   10     -0.16      0.00
    5    9   10      0.49      0.00
    6    9   10      0.06      0.00
  -10   10   10      0.02      0.00
   -9   10   10      0.02      0.00
   -8   10   10      0.32      0.00
   -7   10   10     -0.07      0.00
   -6   10   10     -0.47      0.00
   -5   10   10      0.02      0.00
   -4   10   10      0.35      0.00
   -3   10   10     -0.18      0.00
   -2   10   10      0.03      0.00
   -1   10   10      0.19      0.00
    0   10   10      0.41      0.00
    1   10   10     -0.25      0.00
    2   10   10     -0.94      0.00
    3   10   10      0.09      0.00
    4   10   10      0.72      0.00
    5   10   10     -0.07      0.00
   -9   11   10      0.49      0.00
   -8   11   10      0.23      0.00
   -7   11   10     -0.45      0.00
   -6   11   10      0.63      0.00
   -5   11   10      1.25      0.00
   -4   11   10      0.50      0.00
   -3   11   10      0.61      0.00
   -2   11   10      0.90      0.00
   -1   11   10      0.97      0.00
    0   11   10      0.02      0.00
    1   11   10     -0.51      0.00
    2   11   10      0.36      0.00
    3   11   10      0.38      0.00
   -8   12   10      0.15      0.00
   -7   12   10      0.96      0.00
   -6   12   10      1.10      0.00
   -5   12   10      0.34      0.00
   -4   12   10     -0.03      0.00
   -3   12   10      0.05      0.00
   -2   12   10      0.56      0.00
   -1   12   10      0.28      0.00
    0   12   10      0.32      0.00
    1   12   10      0.92      0.00
   -5   13   10     -0.97      0.00
   -4   13   10     -0.46      0.00
   -3   13   10      0.19      0.00
   -2   13   10      0.19      0.00
   -2  -14   11     -0.93      0.00
   -1  -14   11     -0.72      0.00
    0  -14   11     -0.77      0.00
    1  -14   11     -0.39      0.00
    2  -14   11     -0.26      0.00
    3  -14   11     -0.04      0.00
   -4  -13   11      0.21      0.00
   -3  -13   11      0.46      0.00
   -2  -13   11      0.42      0.00
   -1  -13   11     -0.94      0.00
    0  -13   11     -1.06      0.00
    1  -13   11     -0.77      0.00
    2  -13   11     -0.82      0.00
    3  -13   11     -0.24      0.00
    4  -13   11      0.88      0.00
    5  -13   11      1.04      0.00
    6  -13   11      0.34      0.00
   -6  -12   11      0.39      0.00
   -5  -12   11      0.24      0.00
   -4  -12   11      0.26      0.00
   -3  -12   11     -0.14      0.00
   -2  -12   11     -1.22      0.00
   -1  -12   11     -0.85      0.00
    0  -12   11     -0.04      0.00
    1  -12   11     -0.07      0.00
    2  -12   11     -0.78      0.00
    3  -12   11      0.22      0.00
    4  -12   11      1.00      0.00
    5  -12   11      0.22      0.00
    6  -12   11      0.32      0.00
    7  -12   11      0.33      0.00
   -7  -11   11     -1.19      0.00
   -6  -11   11     -0.40      0.00
   -5  -11   11      0.05      0.00
   -4  -11   11     -0.54      0.00
   -3  -11   11     -0.67      0.00
   -2  -11   11      0.46      0.00
   -1  -11   11      1.03      0.00
    0  -11   11      0.72      0.00
    1  -11   11     -0.67      0.00
    2  -11   11      0.03      0.00
    3  -11   11      0.80      0.00
    4  -11   11     -0.06      0.00
    5  -11   11     -0.05      0.00
    6  -11   11     -0.24      0.00
    7  -11   11     -0.43      0.00
    8  -11   11     -0.68      0.00
   -8  -10   11     -0.68      0.00
   -7  -10   11     -0.34      0.00
   -6  -10   11      0.13      0.00
   -5  -10   11     -0.27      0.00
   -4  -10   11     -0.30      0.00
   -3  -10   11      0.17      0.00
   -2  -10   11      0.24      0.00
   -1  -10   11      0.62      0.00
    0  -10   11     -0.30      0.00
    1  -10   11     -0.47      0.00
    2  -10   11     -0.80      0.00
    3  -10   11     -1.11      0.00
    4  -10   11      0.22      0.00
    5  -10   11      0.11      0.00
    6  -10   11     -0.70      0.00
    7  -10   11     -1.13      0.00
    8  -10   11     -0.36      0.00
    9  -10   11      0.50      0.00
   -9   -9   11      0.69      0.00
   -8   -9   11      0.44      0.00
   -7   -9   11      0.26      0.00
   -6   -9   11     -0.09      0.00
   -5   -9   11     -0.03      0.00
   -4   -9   11      0.13      0.00
   -3   -9   11     -0.16      0.00
   -2   -9   11      0.52      0.00
   -1   -9   11      0.41      0.00
    0   -9   11      0.06      0.00
    1   -9   11     -1.16      0.00
    2   -9   11     -1.99      0.00
    3   -9   11     -0.69      0.00
    4   -9   11      0.13      0.00
    5   -9   11      0.09      0.00
    6   -9   11     -1.07      0.00
    7   -9   11     -1.16      0.00
    8   -9   11      0.48      0.00
    9   -9   11      1.80      0.00
  -10   -8   11      0.57      0.00
   -9   -8   11      0.05      0.00
   -8   -8   11      0.29      0.00
   -7   -8   11      0.60      0.00
   -6   -8   11      0.30      0.00
   -5   -8   11      0.19      0.00
   -4   -8   11      0.05      0.00
   -3   -8   11      0.60      0.00
   -2   -8   11      0.71      0.00
   -1   -8   11      0.59      0.00
    0   -8   11      0.14      0.00
    1   -8   11     -0.30      0.00
    2   -8   11     -0.60      0.00
    3   -8   11     -1.19      0.00
    4   -8   11     -0.55      0.00
    5   -8   11     -0.25      0.00
    6   -8   11     -0.97      0.00
    7   -8   11     -1.48      0.00
    8   -8   11     -0.59      0.00
    9   -8   11     -0.38      0.00
   10   -8   11     -0.60      0.00
  -11   -7   11      1.39      0.00
  -10   -7   11      0.25      0.00
   -9   -7   11     -0.19      0.00
   -8   -7   11      0.34      0.00
   -7   -7   11      0.18      0.00
   -6   -7   11     -0.21      0.00
   -5   -7   11     -0.71      0.00
   -4   -7   11     -0.50      0.00
   -3   -7   11      0.15      0.00
   -2   -7   11     -0.40      0.00
   -1   -7   11     -1.18      0.00
    0   -7   11     -0.42      0.00
    1   -7   11      0.52      0.00
    2   -7   11     -0.19      0.00
    3   -7   11     -1.10      0.00
    4   -7   11     -1.20      0.00
    5   -7   11     -0.66      0.00
    6   -7   11     -1.02      0.00
    7   -7   11     -1.35      0.00
    8   -7   11     -1.49      0.00
    9   -7   11     -0.66      0.00
   10   -7   11      0.15      0.00
  -11   -6   11      0.87      0.00
  -10   -6   11      0.44      0.00
   -9   -6   11      0.09      0.00
   -8   -6   11      0.07      0.00
   -7   -6   11      0.48      0.00
   -6   -6   11     -0.04      0.00
   -5   -6   11     -1.13      0.00
   -4   -6   11     -0.34      0.00
   -3   -6   11     -0.80      0.00
   -2   -6   11     -2.08      0.00
   -1   -6   11     -1.04      0.00
    0   -6   11      0.62      0.00
    1   -6   11      0.69      0.00
    2   -6   11     -0.27      0.00
    3   -6   11     -1.15      0.00
    4   -6   11     -0.61      0.00
    5   -6   11      0.12      0.00
    6   -6   11      0.00      0.00
    7   -6   11     -0.58      0.00
    8   -6   11     -0.19      0.00
    9   -6   11     -0.29      0.00
   10   -6   11     -0.44      0.00
  -12   -5   11     -0.08      0.00
  -11   -5   11      0.69      0.00
  -10   -5   11      0.49      0.00
   -9   -5   11      0.06      0.00
   -8   -5   11      0.64      0.00
   -7   -5   11      1.14      0.00
   -6   -5   11     -0.45      0.00
   -5   -5   11     -0.33      0.00
   -4   -5   11     -0.42      0.00
   -3   -5   11     -0.97      0.00
   -2   -5   11      0.61      0.00
   -1   -5   11      1.07      0.00
    0   -5   11     -0.68      0.00
    1   -5   11     -2.19      0.00
    2   -5   11     -2.84      0.00
    3   -5   11     -2.24      0.00
    4   -5   11     -0.67      0.00
    5   -5   11     -0.23      0.00
    6   -5   11     -0.37      0.00
    7   -5   11      0.59      0.00
    8   -5   11      0.29      0.00
    9   -5   11     -1.04      0.00
   10   -5   11     -0.52      0.00
   11   -5   11      1.44      0.00
  -12   -4   11     -0.38      0.00
  -11   -4   11     -0.18      0.00
  -10   -4   11     -0.13      0.00
   -9   -4   11     -0.02      0.00
   -8   -4   11      0.99      0.00
   -7   -4   11      0.26      0.00
   -6   -4   11      0.00      0.00
   -5   -4   11     -0.24      0.00
   -4   -4   11     -0.11      0.00
   -3   -4   11      1.96      0.00
   -2   -4   11      1.28      0.00
   -1   -4   11     -1.28      0.00
    0   -4   11     -2.44      0.00
    1   -4   11     -3.48      0.00
    2   -4   11     -4.26      0.00
    3   -4   11     -2.12      0.00
    4   -4   11      0.00      0.00
    5   -4   11      0.22      0.00
    6   -4   11      0.51      0.00
    7   -4   11      0.77      0.00
    8   -4   11      0.24      0.00
    9   -4   11     -0.33      0.00
   10   -4   11      0.56      0.00
   11   -4   11      0.43      0.00
  -12   -3   11     -0.90      0.00
  -11   -3   11     -0.65      0.00
  -10   -3   11     -0.11      0.00
   -9   -3   11      0.73      0.00
   -8   -3   11      0.82      0.00
   -7   -3   11      1.28      0.00
   -6   -3   11      0.83      0.00
   -5   -3   11     -0.35      0.00
   -4   -3   11      0.09      0.00
   -3   -3   11     -1.02      0.00
   -2   -3   11     -1.54      0.00
   -1   -3   11      0.68      0.00
    0   -3   11      1.42      0.00
    1   -3   11     -0.97      0.00
    2   -3   11     -1.40      0.00
    3   -3   11      0.00      0.00
    4   -3   11      0.07      0.00
    5   -3   11     -0.52      0.00
    6   -3   11      0.07      0.00
    7   -3   11      1.32      0.00
    8   -3   11      1.00      0.00
    9   -3   11      0.89      0.00
   10   -3   11     -0.17      0.00
   11   -3   11     -0.36      0.00
  -13   -2   11     -0.54      0.00
  -12   -2   11     -1.57      0.00
  -11   -2   11     -0.88      0.00
  -10   -2   11      0.20      0.00
   -9   -2   11      0.62      0.00
   -8   -2   11      1.70      0.00
   -7   -2   11      2.64      0.00
   -6   -2   11      1.56      0.00
   -5   -2   11     -0.54      0.00
   -4   -2   11     -2.38      0.00
   -3   -2   11     -0.96      0.00
   -2   -2   11      3.29      0.00
   -1   -2   11      5.86      0.00
    0   -2   11      4.10      0.00
    1   -2   11      1.59      0.00
    2   -2   11      1.10      0.00
    3   -2   11      1.04      0.00
    4   -2   11      0.38      0.00
    5   -2   11      0.37      0.00
    6   -2   11      1.00      0.00
    7   -2   11     -0.19      0.00
    8   -2   11     -0.65      0.00
    9   -2   11     -0.75      0.00
   10   -2   11      0.09      0.00
   11   -2   11      0.20      0.00
  -13   -1   11     -0.98      0.00
  -12   -1   11     -1.72      0.00
  -11   -1   11     -1.46      0.00
  -10   -1   11     -0.57      0.00
   -9   -1   11      0.41      0.00
   -8   -1   11      1.67      0.00
   -7   -1   11      2.73      0.00
   -6   -1   11      0.97      0.00
   -5   -1   11     -1.11      0.00
   -4   -1   11     -0.74      0.00
   -3   -1   11      1.23      0.00
   -2   -1   11      3.17      0.00
   -1   -1   11      2.94      0.00
    0   -1   11      0.90      0.00
    1   -1   11     -0.33      0.00
    2   -1   11      0.18      0.00
    3   -1   11      0.58      0.00
    4   -1   11     -0.04      0.00
    5   -1   11     -0.50      0.00
    6   -1   11     -0.85      0.00
    7   -1   11     -0.24      0.00
    8   -1   11     -0.22      0.00
    9   -1   11      0.57      0.00
   10   -1   11      1.30      0.00
   11   -1   11      1.11      0.00
  -13    0   11     -0.15      0.00
  -12    0   11     -1.44      0.00
  -11    0   11     -1.24      0.00
  -10    0   11     -0.53      0.00
   -9    0   11     -0.46      0.00
   -8    0   11      0.74      0.00
   -7    0   11      0.18      0.00
   -6    0   11     -0.17      0.00
   -5    0   11     -0.70      0.00
   -4    0   11     -2.32      0.00
   -3    0   11     -3.01      0.00
   -2    0   11     -3.14      0.00
   -1    0   11     -2.64      0.00
    0    0   11     -2.39      0.00
    1    0   11     -1.97      0.00
    2    0   11     -1.52      0.00
    3    0   11     -1.41      0.00
    4    0   11     -1.68      0.00
    5    0   11     -1.03      0.00
    6    0   11      1.36      0.00
    7    0   11      1.60      0.00
    8    0   11      0.52      0.00
    9    0   11      0.73      0.00
   10    0   11      1.73      0.00
  -13    1   11     -0.52      0.00
  -12    1   11     -0.90      0.00
  -11    1   11     -0.83      0.00
  -10    1   11     -1.25      0.00
   -9    1   11     -0.24      0.00
   -8    1   11     -0.09      0.00
   -7    1   11      1.10      0.00
   -6    1   11      0.78      0.00
   -5    1   11     -1.57      0.00
   -4    1   11     -2.55      0.00
   -3    1   11     -3.24      0.00
   -2    1   11     -1.27      0.00
   -1    1   11      1.48      0.00
    0    1   11      2.57      0.00
    1    1   11      0.92      0.00
    2    1   11     -0.09      0.00
    3    1   11     -0.04      0.00
    4    1   11     -0.92      0.00
    5    1   11     -0.49      0.00
    6    1   11      0.16      0.00
    7    1   11     -0.07      0.00
    8    1   11     -0.17      0.00
    9    1   11      0.14      0.00
   10    1   11     -0.63      0.00
  -13    2   11     -0.36      0.00
  -12    2   11     -0.08      0.00
  -11    2   11     -0.73      0.00
  -10    2   11     -0.54      0.00
   -9    2   11     -0.21      0.00
   -8    2   11      1.56      0.00
   -7    2   11      1.26      0.00
   -6    2   11     -1.03      0.00
   -5    2   11     -0.84      0.00
   -4    2   11     -0.41      0.00
   -3    2   11      0.83      0.00
   -2    2   11      1.51      0.00
   -1    2   11      2.56      0.00
    0    2   11      1.68      0.00
    1    2   11      0.74      0.00
    2    2   11      1.29      0.00
    3    2   11     -0.19      0.00
    4    2   11     -1.62      0.00
    5    2   11     -1.97      0.00
    6    2   11     -1.53      0.00
    7    2   11     -0.51      0.00
    8    2   11     -0.10      0.00
    9    2   11     -1.66      0.00
   10    2   11     -2.10      0.00
  -13    3   11      0.67      0.00
  -12    3   11      0.26      0.00
  -11    3   11     -0.47      0.00
  -10    3   11     -0.79      0.00
   -9    3   11      0.23      0.00
   -8    3   11      0.38      0.00
   -7    3   11     -0.93      0.00
   -6    3   11     -1.22      0.00
   -5    3   11     -0.89      0.00
   -4    3   11     -0.25      0.00
   -3    3   11     -1.96      0.00
   -2    3   11     -2.10      0.00
   -1    3   11     -1.09      0.00
    0    3   11     -0.13      0.00
    1    3   11      0.12      0.00
    2    3   11     -2.09      0.00
    3    3   11     -2.62      0.00
    4    3   11     -1.95      0.00
    5    3   11     -1.76      0.00
    6    3   11     -0.85      0.00
    7    3   11      0.81      0.00
    8    3   11      0.64      0.00
    9    3   11     -1.11      0.00
  -13    4   11      0.16      0.00
  -12    4   11     -0.53      0.00
  -11    4   11     -0.68      0.00
  -10    4   11     -0.53      0.00
   -9    4   11     -0.08      0.00
   -8    4   11      0.85      0.00
   -7    4   11      1.46      0.00
   -6    4   11      1.43      0.00
   -5    4   11      0.92      0.00
   -4    4   11     -1.15      0.00
   -3    4   11     -1.97      0.00
   -2    4   11     -2.00      0.00
   -1    4   11     -1.15      0.00
    0    4   11     -1.08      0.00
    1    4   11     -2.96      0.00
    2    4   11     -2.34      0.00
    3    4   11     -0.26      0.00
    4    4   11      0.37      0.00
    5    4   11     -0.04      0.00
    6    4   11      0.11      0.00
    7    4   11      0.60      0.00
    8    4   11      0.09      0.00
    9    4   11     -0.80      0.00
  -13    5   11      0.14      0.00
  -12    5   11     -0.23      0.00
  -11    5   11     -0.69      0.00
  -10    5   11     -0.29      0.00
   -9    5   11      0.71      0.00
   -8    5   11      0.92      0.00
   -7    5   11      0.96      0.00
   -6    5   11      0.45      0.00
   -5    5   11     -0.04      0.00
   -4    5   11      0.08      0.00
   -3    5   11     -1.29      0.00
   -2    5   11     -1.48      0.00
   -1    5   11     -1.04      0.00
    0    5   11     -0.85      0.00
    1    5   11      0.10      0.00
    2    5   11      0.78      0.00
    3    5   11      0.88      0.00
    4    5   11      0.23      0.00
    5    5   11     -0.69      0.00
    6    5   11     -1.18      0.00
    7    5   11     -0.87      0.00
    8    5   11      0.46      0.00
  -12    6   11      0.24      0.00
  -11    6   11      0.32      0.00
  -10    6   11      0.50      0.00
   -9    6   11     -0.57      0.00
   -8    6   11     -1.32      0.00
   -7    6   11     -1.69      0.00
   -6    6   11     -0.48      0.00
   -5    6   11      1.29      0.00
   -4    6   11      0.65      0.00
   -3    6   11      0.52      0.00
   -2    6   11      0.37      0.00
   -1    6   11      0.83      0.00
    0    6   11      1.01      0.00
    1    6   11      0.28      0.00
    2    6   11      0.08      0.00
    3    6   11     -0.34      0.00
    4    6   11     -0.32      0.00
    5    6   11     -0.51      0.00
    6    6   11     -1.02      0.00
    7    6   11     -0.04      0.00
    8    6   11      0.96      0.00
  -12    7   11      0.55      0.00
  -11    7   11      0.54      0.00
  -10    7   11      0.37      0.00
   -9    7   11      0.36      0.00
   -8    7   11     -0.12      0.00
   -7    7   11     -0.28      0.00
   -6    7   11      0.17      0.00
   -5    7   11      0.61      0.00
   -4    7   11      1.84      0.00
   -3    7   11      1.63      0.00
   -2    7   11      1.51      0.00
   -1    7   11      0.55      0.00
    0    7   11     -0.86      0.00
    1    7   11     -0.79      0.00
    2    7   11     -1.40      0.00
    3    7   11     -0.89      0.00
    4    7   11      0.36      0.00
    5    7   11      0.47      0.00
    6    7   11      0.42      0.00
    7    7   11      0.66      0.00
  -11    8   11     -0.96      0.00
  -10    8   11     -0.56      0.00
   -9    8   11      0.13      0.00
   -8    8   11      0.17      0.00
   -7    8   11     -0.34      0.00
   -6    8   11      0.41      0.00
   -5    8   11      1.42      0.00
   -4    8   11      0.47      0.00
   -3    8   11      0.04      0.00
   -2    8   11     -0.46      0.00
   -1    8   11     -1.31      0.00
    0    8   11     -0.97      0.00
    1    8   11     -1.12      0.00
    2    8   11     -0.55      0.00
    3    8   11      0.54      0.00
    4    8   11      0.85      0.00
    5    8   11      0.74      0.00
    6    8   11      0.42      0.00
  -11    9   11     -0.51      0.00
  -10    9   11     -0.03      0.00
   -9    9   11      0.44      0.00
   -8    9   11      0.31      0.00
   -7    9   11      1.11      0.00
   -6    9   11      1.00      0.00
   -5    9   11     -0.59      0.00
   -4    9   11     -1.14      0.00
   -3    9   11     -0.59      0.00
   -2    9   11     -0.25      0.00
   -1    9   11      0.08      0.00
    0    9   11      0.43      0.00
    1    9   11      0.99      0.00
    2    9   11      0.86      0.00
    3    9   11     -0.12      0.00
    4    9   11     -0.06      0.00
    5    9   11      0.08      0.00
  -10   10   11      0.31      0.00
   -9   10   11     -0.18      0.00
   -8   10   11      0.50      0.00
   -7   10   11      0.25      0.00
   -6   10   11     -0.43      0.00
   -5   10   11     -0.55      0.00
   -4   10   11     -0.18      0.00
   -3   10   11     -0.12      0.00
   -2   10   11     -0.12      0.00
   -1   10   11      0.51      0.00
    0   10   11      0.88      0.00
    1   10   11      0.66      0.00
    2   10   11     -0.49      0.00
    3   10   11     -0.11      0.00
    4   10   11      0.68      0.00
   -9   11   11      0.33      0.00
   -8   11   11      0.17      0.00
   -7   11   11     -0.11      0.00
   -6   11   11      0.16      0.00
   -5   11   11      0.77      0.00
   -4   11   11      0.54      0.00
   -3   11   11      0.65      0.00
   -2   11   11      1.59      0.00
   -1   11   11      1.13      0.00
    0   11   11      0.54      0.00
    1   11   11     -0.40      0.00
    2   11   11     -0.02      0.00
    3   11   11      0.74      0.00
   -7   12   11      0.82      0.00
   -6   12   11      1.56      0.00
   -5   12   11      0.82      0.00
   -4   12   11      0.46      0.00
   -3   12   11      1.24      0.00
   -2   12   11      0.81      0.00
   -1   12   11      0.54      0.00
    0   12   11     -0.07      0.00
    1   12   11      0.26      0.00
   -1  -14   12     -1.13      0.00
    0  -14   12     -0.43      0.00
    1  -14   12     -0.55      0.00
    2  -14   12     -0.04      0.00
    3  -14   12      0.52      0.00
   -4  -13   12     -0.35      0.00
   -3  -13   12      0.29      0.00
   -2  -13   12      0.04      0.00
   -1  -13   12     -0.45      0.00
    0  -13   12     -1.35      0.00
    1  -13   12     -0.85      0.00
    2  -13   12     -0.65      0.00
    3  -13   12     -0.32      0.00
    4  -13   12      0.82      0.00
    5  -13   12      0.60      0.00
   -6  -12   12      0.41      0.00
   -5  -12   12     -0.06      0.00
   -4  -12   12      0.30      0.00
   -3  -12   12     -0.10      0.00
   -2  -12   12     -0.78      0.00
   -1  -12   12     -1.29      0.00
    0  -12   12     -0.17      0.00
    1  -12   12     -0.30      0.00
    2  -12   12     -0.71      0.00
    3  -12   12      0.45      0.00
    4  -12   12      0.83      0.00
    5  -12   12      0.56      0.00
    6  -12   12      0.31      0.00
    7  -12   12      0.45      0.00
   -7  -11   12     -0.90      0.00
   -6  -11   12     -0.49      0.00
   -5  -11   12      0.00      0.00
   -4  -11   12     -0.58      0.00
   -3  -11   12     -0.60      0.00
   -2  -11   12      0.23      0.00
   -1  -11   12      1.43      0.00
    0  -11   12      0.45      0.00
    1  -11   12     -0.62      0.00
    2  -11   12      0.27      0.00
    3  -11   12      1.13      0.00
    4  -11   12      0.35      0.00
    5  -11   12     -0.76      0.00
    6  -11   12     -0.33      0.00
    7  -11   12     -0.19      0.00
    8  -11   12     -0.50      0.00
   -8  -10   12     -1.22      0.00
   -7  -10   12     -0.86      0.00
   -6  -10   12     -0.03      0.00
   -5  -10   12     -0.21      0.00
   -4  -10   12     -0.33      0.00
   -3  -10   12      0.40      0.00
   -2  -10   12      1.23      0.00
   -1  -10   12      0.50      0.00
    0  -10   12     -0.42      0.00
    1  -10   12     -0.64      0.00
    2  -10   12      0.07      0.00
    3  -10   12      0.09      0.00
    4  -10   12     -0.39      0.00
    5  -10   12     -0.27      0.00
    6  -10   12     -0.87      0.00
    7  -10   12     -0.79      0.00
    8  -10   12     -0.23      0.00
   -9   -9   12      0.26      0.00
   -8   -9   12      0.17      0.00
   -7   -9   12      0.17      0.00
   -6   -9   12     -0.01      0.00
   -5   -9   12     -0.26      0.00
   -4   -9   12     -0.01      0.00
   -3   -9   12      0.14      0.00
   -2   -9   12      0.12      0.00
   -1   -9   12      0.40      0.00
    0   -9   12     -0.59      0.00
    1   -9   12     -1.32      0.00
    2   -9   12     -1.65      0.00
    3   -9   12     -0.87      0.00
    4   -9   12      0.53      0.00
    5   -9   12     -0.39      0.00
    6   -9   12     -1.37      0.00
    7   -9   12     -0.90      0.00
    8   -9   12      0.79      0.00
    9   -9   12      1.67      0.00
  -10   -8   12      0.34      0.00
   -9   -8   12      0.19      0.00
   -8   -8   12      0.40      0.00
   -7   -8   12      0.66      0.00
   -6   -8   12      0.00      0.00
   -5   -8   12     -0.15      0.00
   -4   -8   12     -0.14      0.00
   -3   -8   12      0.01      0.00
   -2   -8   12      1.04      0.00
   -1   -8   12      0.66      0.00
    0   -8   12     -0.02      0.00
    1   -8   12     -1.01      0.00
    2   -8   12     -1.40      0.00
    3   -8   12     -0.38      0.00
    4   -8   12      0.19      0.00
    5   -8   12      0.25      0.00
    6   -8   12     -0.78      0.00
    7   -8   12     -0.73      0.00
    8   -8   12      0.38      0.00
    9   -8   12      0.07      0.00
  -11   -7   12      1.24      0.00
  -10   -7   12      0.06      0.00
   -9   -7   12     -0.39      0.00
   -8   -7   12      0.49      0.00
   -7   -7   12      0.13      0.00
   -6   -7   12     -0.46      0.00
   -5   -7   12     -0.57      0.00
   -4   -7   12     -0.39      0.00
   -3   -7   12      0.73      0.00
   -2   -7   12      0.28      0.00
   -1   -7   12     -0.42      0.00
    0   -7   12     -0.41      0.00
    1   -7   12     -0.32      0.00
    2   -7   12     -0.73      0.00
    3   -7   12     -1.15      0.00
    4   -7   12     -0.02      0.00
    5   -7   12      0.23      0.00
    6   -7   12     -0.68      0.00
    7   -7   12     -1.09      0.00
    8   -7   12     -1.26      0.00
    9   -7   12     -1.23      0.00
   10   -7   12     -0.09      0.00
  -11   -6   12      1.21      0.00
  -10   -6   12      0.22      0.00
   -9   -6   12      0.25      0.00
   -8   -6   12      0.31      0.00
   -7   -6   12      0.22      0.00
   -6   -6   12     -0.25      0.00
   -5   -6   12     -0.97      0.00
   -4   -6   12     -0.26      0.00
   -3   -6   12     -0.82      0.00
   -2   -6   12     -2.11      0.00
   -1   -6   12     -1.31      0.00
    0   -6   12      0.46      0.00
    1   -6   12      0.45      0.00
    2   -6   12     -1.21      0.00
    3   -6   12     -1.19      0.00
    4   -6   12      0.11      0.00
    5   -6   12      0.66      0.00
    6   -6   12      0.24      0.00
    7   -6   12     -0.47      0.00
    8   -6   12     -0.76      0.00
    9   -6   12      0.20      0.00
   10   -6   12     -0.01      0.00
  -12   -5   12      0.66      0.00
  -11   -5   12      0.84      0.00
  -10   -5   12      0.50      0.00
   -9   -5   12      0.09      0.00
   -8   -5   12      0.50      0.00
   -7   -5   12      0.68      0.00
   -6   -5   12     -0.38      0.00
   -5   -5   12     -0.58      0.00
   -4   -5   12     -0.71      0.00
   -3   -5   12     -1.50      0.00
   -2   -5   12     -0.31      0.00
   -1   -5   12      1.25      0.00
    0   -5   12      0.53      0.00
    1   -5   12     -1.60      0.00
    2   -5   12     -2.28      0.00
    3   -5   12     -1.53      0.00
    4   -5   12     -0.71      0.00
    5   -5   12     -0.24      0.00
    6   -5   12     -0.09      0.00
    7   -5   12      0.05      0.00
    8   -5   12      0.63      0.00
    9   -5   12     -0.49      0.00
   10   -5   12     -0.10      0.00
  -12   -4   12     -0.46      0.00
  -11   -4   12     -0.16      0.00
  -10   -4   12     -0.33      0.00
   -9   -4   12     -0.15      0.00
   -8   -4   12      0.65      0.00
   -7   -4   12      0.86      0.00
   -6   -4   12     -0.07      0.00
   -5   -4   12     -0.46      0.00
   -4   -4   12     -0.47      0.00
   -3   -4   12      1.31      0.00
   -2   -4   12      2.28      0.00
   -1   -4   12      0.41      0.00
    0   -4   12     -2.08      0.00
    1   -4   12     -3.23      0.00
    2   -4   12     -3.39      0.00
    3   -4   12     -2.65      0.00
    4   -4   12     -1.06      0.00
    5   -4   12     -0.30      0.00
    6   -4   12      0.07      0.00
    7   -4   12      0.82      0.00
    8   -4   12     -0.53      0.00
    9   -4   12     -0.67      0.00
   10   -4   12      0.63      0.00
  -12   -3   12     -0.58      0.00
  -11   -3   12     -0.31      0.00
  -10   -3   12      0.00      0.00
   -9   -3   12      0.29      0.00
   -8   -3   12      1.52      0.00
   -7   -3   12      1.02      0.00
   -6   -3   12      0.20      0.00
   -5   -3   12     -0.83      0.00
   -4   -3   12     -0.26      0.00
   -3   -3   12      0.59      0.00
   -2   -3   12      0.04      0.00
   -1   -3   12     -0.09      0.00
    0   -3   12     -0.59      0.00
    1   -3   12     -2.13      0.00
    2   -3   12     -2.68      0.00
    3   -3   12     -1.29      0.00
    4   -3   12     -1.47      0.00
    5   -3   12     -1.75      0.00
    6   -3   12      0.08      0.00
    7   -3   12      0.58      0.00
    8   -3   12      0.66      0.00
    9   -3   12      0.89      0.00
   10   -3   12      0.46      0.00
  -13   -2   12     -0.41      0.00
  -12   -2   12     -1.11      0.00
  -11   -2   12     -0.19      0.00
  -10   -2   12      0.37      0.00
   -9   -2   12      1.45      0.00
   -8   -2   12      1.57      0.00
   -7   -2   12      2.15      0.00
   -6   -2   12      0.99      0.00
   -5   -2   12     -1.13      0.00
   -4   -2   12     -1.84      0.00
   -3   -2   12     -0.99      0.00
   -2   -2   12      2.37      0.00
   -1   -2   12      4.19      0.00
    0   -2   12      2.21      0.00
    1   -2   12     -0.59      0.00
    2   -2   12     -0.41      0.00
    3   -2   12     -0.91      0.00
    4   -2   12     -1.80      0.00
    5   -2   12     -0.05      0.00
    6   -2   12      1.20      0.00
    7   -2   12      0.76      0.00
    8   -2   12     -0.19      0.00
    9   -2   12     -0.18      0.00
   10   -2   12     -0.76      0.00
  -13   -1   12     -1.38      0.00
  -12   -1   12     -1.27      0.00
  -11   -1   12     -0.51      0.00
  -10   -1   12      0.51      0.00
   -9   -1   12      0.59      0.00
   -8   -1   12      2.14      0.00
   -7   -1   12      2.91      0.00
   -6   -1   12      0.94      0.00
   -5   -1   12     -1.14      0.00
   -4   -1   12     -1.52      0.00
   -3   -1   12      1.40      0.00
   -2   -1   12      4.46      0.00
   -1   -1   12      4.61      0.00
    0   -1   12      1.43      0.00
    1   -1   12      0.42      0.00
    2   -1   12      1.26      0.00
    3   -1   12      1.16      0.00
    4   -1   12      0.79      0.00
    5   -1   12      0.37      0.00
    6   -1   12      0.10      0.00
    7   -1   12     -0.85      0.00
    8   -1   12     -0.48      0.00
    9   -1   12      0.08      0.00
   10   -1   12      0.55      0.00
  -13    0   12     -0.38      0.00
  -12    0   12     -0.81      0.00
  -11    0   12     -0.52      0.00
  -10    0   12     -0.47      0.00
   -9    0   12      0.16      0.00
   -8    0   12      0.99      0.00
   -7    0   12      0.42      0.00
   -6    0   12     -0.68      0.00
   -5    0   12     -1.27      0.00
   -4    0   12     -1.46      0.00
   -3    0   12     -1.12      0.00
   -2    0   12      0.25      0.00
   -1    0   12     -0.60      0.00
    0    0   12     -1.41      0.00
    1    0   12     -0.54      0.00
    2    0   12      0.21      0.00
    3    0   12     -0.53      0.00
    4    0   12     -1.83      0.00
    5    0   12     -0.61      0.00
    6    0   12      0.72      0.00
    7    0   12      1.08      0.00
    8    0   12      0.48      0.00
    9    0   12      0.99      0.00
   10    0   12      1.26      0.00
  -13    1   12     -0.24      0.00
  -12    1   12     -0.61      0.00
  -11    1   12     -0.72      0.00
  -10    1   12     -0.91      0.00
   -9    1   12     -0.63      0.00
   -8    1   12     -0.32      0.00
   -7    1   12     -0.28      0.00
   -6    1   12      0.32      0.00
   -5    1   12     -0.85      0.00
   -4    1   12     -2.42      0.00
   -3    1   12     -1.99      0.00
   -2    1   12     -1.50      0.00
   -1    1   12     -0.03      0.00
    0    1   12      0.55      0.00
    1    1   12     -0.16      0.00
    2    1   12     -1.03      0.00
    3    1   12     -1.93      0.00
    4    1   12     -1.31      0.00
    5    1   12     -0.20      0.00
    6    1   12      0.94      0.00
    7    1   12      0.50      0.00
    8    1   12      0.09      0.00
    9    1   12      0.40      0.00
   10    1   12      0.56      0.00
  -13    2   12     -0.48      0.00
  -12    2   12     -0.21      0.00
  -11    2   12     -0.66      0.00
  -10    2   12     -0.75      0.00
   -9    2   12      0.05      0.00
   -8    2   12      0.79      0.00
   -7    2   12      1.77      0.00
   -6    2   12     -0.08      0.00
   -5    2   12     -1.11      0.00
   -4    2   12     -0.13      0.00
   -3    2   12     -0.41      0.00
   -2    2   12      0.99      0.00
   -1    2   12      1.61      0.00
    0    2   12      1.16      0.00
    1    2   12      0.77      0.00
    2    2   12      0.86      0.00
    3    2   12      0.73      0.00
    4    2   12     -0.78      0.00
    5    2   12     -0.59      0.00
    6    2   12     -0.08      0.00
    7    2   12     -0.17      0.00
    8    2   12     -0.29      0.00
    9    2   12     -0.81      0.00
  -13    3   12      0.58      0.00
  -12    3   12      0.24      0.00
  -11    3   12     -0.23      0.00
  -10    3   12     -0.24      0.00
   -9    3   12      0.20      0.00
   -8    3   12      1.21      0.00
   -7    3   12     -1.12      0.00
   -6    3   12     -2.43      0.00
   -5    3   12     -1.13      0.00
   -4    3   12     -1.34      0.00
   -3    3   12     -0.87      0.00
   -2    3   12     -1.01      0.00
   -1    3   12      0.49      0.00
    0    3   12      1.48      0.00
    1    3   12      1.21      0.00
    2    3   12      0.50      0.00
    3    3   12     -1.67      0.00
    4    3   12     -1.66      0.00
    5    3   12     -1.23      0.00
    6    3   12     -0.70      0.00
    7    3   12      0.70      0.00
    8    3   12      0.52      0.00
    9    3   12     -1.30      0.00
  -13    4   12      0.25      0.00
  -12    4   12     -0.21      0.00
  -11    4   12     -0.72      0.00
  -10    4   12     -0.69      0.00
   -9    4   12      0.17      0.00
   -8    4   12     -0.37      0.00
   -7    4   12     -0.23      0.00
   -6    4   12      0.65      0.00
   -5    4   12      0.36      0.00
   -4    4   12      0.31      0.00
   -3    4   12     -1.29      0.00
   -2    4   12     -0.24      0.00
   -1    4   12      0.45      0.00
    0    4   12     -0.75      0.00
    1    4   12     -1.77      0.00
    2    4   12     -2.96      0.00
    3    4   12     -1.27      0.00
    4    4   12     -0.45      0.00
    5    4   12     -0.47      0.00
    6    4   12      0.88      0.00
    7    4   12      1.25      0.00
    8    4   12     -0.18      0.00
    9    4   12     -1.17      0.00
  -12    5   12     -1.02      0.00
  -11    5   12     -0.95      0.00
  -10    5   12     -0.37      0.00
   -9    5   12      0.18      0.00
   -8    5   12      1.18      0.00
   -7    5   12      1.44      0.00
   -6    5   12      1.29      0.00
   -5    5   12      1.38      0.00
   -4    5   12     -0.43      0.00
   -3    5   12     -0.72      0.00
   -2    5   12     -1.06      0.00
   -1    5   12     -1.58      0.00
    0    5   12     -1.31      0.00
    1    5   12     -1.63      0.00
    2    5   12      0.10      0.00
    3    5   12      0.66      0.00
    4    5   12      0.04      0.00
    5    5   12      0.09      0.00
    6    5   12     -0.30      0.00
    7    5   12     -0.26      0.00
    8    5   12      0.12      0.00
  -12    6   12      0.22      0.00
  -11    6   12      0.14      0.00
  -10    6   12      0.37      0.00
   -9    6   12      0.04      0.00
   -8    6   12     -1.27      0.00
   -7    6   12     -0.97      0.00
   -6    6   12      0.42      0.00
   -5    6   12      0.65      0.00
   -4    6   12      0.47      0.00
   -3    6   12     -0.46      0.00
   -2    6   12     -0.31      0.00
   -1    6   12      0.34      0.00
    0    6   12     -0.12      0.00
    1    6   12      0.55      0.00
    2    6   12      0.72      0.00
    3    6   12      0.16      0.00
    4    6   12     -0.11      0.00
    5    6   12     -1.01      0.00
    6    6   12     -0.94      0.00
    7    6   12      0.00      0.00
  -12    7   12      0.56      0.00
  -11    7   12      1.03      0.00
  -10    7   12      0.82      0.00
   -9    7   12     -0.33      0.00
   -8    7   12     -0.29      0.00
   -7    7   12     -0.12      0.00
   -6    7   12      0.25      0.00
   -5    7   12      0.72      0.00
   -4    7   12      0.60      0.00
   -3    7   12      1.54      0.00
   -2    7   12      1.77      0.00
   -1    7   12      0.60      0.00
    0    7   12     -0.13      0.00
    1    7   12     -0.31      0.00
    2    7   12     -0.77      0.00
    3    7   12     -0.67      0.00
    4    7   12     -0.35      0.00
    5    7   12     -0.20      0.00
    6    7   12      0.03      0.00
    7    7   12      0.79      0.00
  -11    8   12     -0.55      0.00
  -10    8   12     -0.68      0.00
   -9    8   12      0.11      0.00
   -8    8   12     -0.15      0.00
   -7    8   12     -0.47      0.00
   -6    8   12      0.16      0.00
   -5    8   12      0.72      0.00
   -4    8   12      1.24      0.00
   -3    8   12      0.82      0.00
   -2    8   12      0.00      0.00
   -1    8   12     -1.07      0.00
    0    8   12     -1.43      0.00
    1    8   12     -1.81      0.00
    2    8   12     -1.43      0.00
    3    8   12      0.16      0.00
    4    8   12      0.73      0.00
    5    8   12      0.35      0.00
    6    8   12      0.47      0.00
  -10    9   12     -0.69      0.00
   -9    9   12      0.17      0.00
   -8    9   12      0.32      0.00
   -7    9   12      0.62      0.00
   -6    9   12      0.82      0.00
   -5    9   12      0.09      0.00
   -4    9   12     -0.71      0.00
   -3    9   12     -0.45      0.00
   -2    9   12     -0.59      0.00
   -1    9   12     -0.59      0.00
    0    9   12     -0.53      0.00
    1    9   12     -0.17      0.00
    2    9   12      0.58      0.00
    3    9   12      0.24      0.00
    4    9   12     -0.13      0.00
    5    9   12     -0.21      0.00
  -10   10   12      0.33      0.00
   -9   10   12      0.17      0.00
   -8   10   12      0.21      0.00
   -7   10   12      0.39      0.00
   -6   10   12     -0.36      0.00
   -5   10   12     -0.62      0.00
   -4   10   12     -0.24      0.00
   -3   10   12     -0.36      0.00
   -2   10   12     -0.48      0.00
   -1   10   12     -0.05      0.00
    0   10   12      0.93      0.00
    1   10   12      1.10      0.00
    2   10   12      0.01      0.00
    3   10   12     -0.03      0.00
    4   10   12      0.41      0.00
   -8   11   12      0.24      0.00
   -7   11   12     -0.31      0.00
   -6   11   12     -0.04      0.00
   -5   11   12      0.17      0.00
   -4   11   12      0.20      0.00
   -3   11   12      0.41      0.00
   -2   11   12      0.93      0.00
   -1   11   12      1.50      0.00
    0   11   12      0.88      0.00
    1   11   12      0.00      0.00
    2   11   12      0.10      0.00
   -6   12   12      1.12      0.00
   -5   12   12      0.99      0.00
   -4   12   12      0.90      0.00
   -3   12   12      1.45      0.00
   -2   12   12      1.61      0.00
   -1   12   12      0.28      0.00
    0   12   12     -0.18      0.00
   -1  -14   13     -0.70      0.00
    0  -14   13     -0.21      0.00
    1  -14   13      0.13      0.00
    2  -14   13      0.27      0.00
   -4  -13   13     -0.55      0.00
   -3  -13   13     -0.09      0.00
   -2  -13   13      0.51      0.00
   -1  -13   13     -0.21      0.00
    0  -13   13     -0.62      0.00
    1  -13   13     -1.03      0.00
    2  -13   13     -0.48      0.00
    3  -13   13     -0.30      0.00
    4  -13   13      0.07      0.00
    5  -13   13      0.33      0.00
   -6  -12   13      0.46      0.00
   -5  -12   13     -0.27      0.00
   -4  -12   13      0.27      0.00
   -3  -12   13      0.58      0.00
   -2  -12   13     -0.60      0.00
   -1  -12   13     -0.94      0.00
    0  -12   13     -1.01      0.00
    1  -12   13     -0.36      0.00
    2  -12   13     -0.68      0.00
    3  -12   13     -0.12      0.00
    4  -12   13      0.73      0.00
    5  -12   13      0.44      0.00
    6  -12   13      0.81      0.00
   -7  -11   13     -0.31      0.00
   -6  -11   13     -0.45      0.00
   -5  -11   13      0.02      0.00
   -4  -11   13     -0.23      0.00
   -3  -11   13     -0.67      0.00
   -2  -11   13      0.34      0.00
   -1  -11   13      0.73      0.00
    0  -11   13      0.66      0.00
    1  -11   13     -0.46      0.00
    2  -11   13      0.28      0.00
    3  -11   13      1.26      0.00
    4  -11   13     -0.03      0.00
    5  -11   13     -0.45      0.00
    6  -11   13     -0.24      0.00
    7  -11   13      0.22      0.00
   -8  -10   13     -1.35      0.00
   -7  -10   13     -1.21      0.00
   -6  -10   13     -0.18      0.00
   -5  -10   13     -0.13      0.00
   -4  -10   13     -0.34      0.00
   -3  -10   13      0.84      0.00
   -2  -10   13      1.48      0.00
   -1  -10   13      0.99      0.00
    0  -10   13     -0.72      0.00
    1  -10   13     -0.31      0.00
    2  -10   13      0.98      0.00
    3  -10   13      0.31      0.00
    4  -10   13     -0.47      0.00
    5  -10   13     -0.93      0.00
    6  -10   13     -0.37      0.00
    7  -10   13     -0.11      0.00
    8  -10   13     -0.31      0.00
   -9   -9   13     -0.20      0.00
   -8   -9   13     -0.29      0.00
   -7   -9   13     -0.12      0.00
   -6   -9   13     -0.04      0.00
   -5   -9   13     -0.20      0.00
   -4   -9   13      0.19      0.00
   -3   -9   13      0.61      0.00
   -2   -9   13      0.56      0.00
   -1   -9   13     -0.42      0.00
    0   -9   13     -0.78      0.00
    1   -9   13     -0.86      0.00
    2   -9   13     -0.95      0.00
    3   -9   13     -0.34      0.00
    4   -9   13     -0.16      0.00
    5   -9   13     -0.63      0.00
    6   -9   13     -1.34      0.00
    7   -9   13     -0.60      0.00
    8   -9   13      0.49      0.00
    9   -9   13      0.74      0.00
  -10   -8   13      0.07      0.00
   -9   -8   13      0.33      0.00
   -8   -8   13      0.46      0.00
   -7   -8   13      0.64      0.00
   -6   -8   13      0.09      0.00
   -5   -8   13     -0.48      0.00
   -4   -8   13     -0.28      0.00
   -3   -8   13     -0.14      0.00
   -2   -8   13      0.22      0.00
   -1   -8   13      0.54      0.00
    0   -8   13     -0.51      0.00
    1   -8   13     -1.50      0.00
    2   -8   13     -1.29      0.00
    3   -8   13     -0.09      0.00
    4   -8   13      0.78      0.00
    5   -8   13     -0.12      0.00
    6   -8   13     -0.72      0.00
    7   -8   13     -0.05      0.00
    8   -8   13      0.90      0.00
    9   -8   13      0.04      0.00
  -10   -7   13     -0.14      0.00
   -9   -7   13     -0.49      0.00
   -8   -7   13      0.45      0.00
   -7   -7   13      0.25      0.00
   -6   -7   13     -0.92      0.00
   -5   -7   13     -0.63      0.00
   -4   -7   13     -0.33      0.00
   -3   -7   13      0.58      0.00
   -2   -7   13      1.33      0.00
   -1   -7   13      0.11      0.00
    0   -7   13     -0.74      0.00
    1   -7   13     -1.08      0.00
    2   -7   13     -0.94      0.00
    3   -7   13      0.12      0.00
    4   -7   13      1.04      0.00
    5   -7   13      0.75      0.00
    6   -7   13     -0.51      0.00
    7   -7   13     -0.53      0.00
    8   -7   13     -0.94      0.00
    9   -7   13     -1.60      0.00
  -11   -6   13      0.91      0.00
  -10   -6   13     -0.28      0.00
   -9   -6   13      0.09      0.00
   -8   -6   13      0.59      0.00
   -7   -6   13     -0.16      0.00
   -6   -6   13     -0.15      0.00
   -5   -6   13     -0.62      0.00
   -4   -6   13     -0.19      0.00
   -3   -6   13      0.13      0.00
   -2   -6   13     -1.54      0.00
   -1   -6   13     -1.29      0.00
    0   -6   13     -0.04      0.00
    1   -6   13     -0.47      0.00
    2   -6   13     -1.57      0.00
    3   -6   13     -0.73      0.00
    4   -6   13      1.14      0.00
    5   -6   13      1.07      0.00
    6   -6   13      0.32      0.00
    7   -6   13     -0.52      0.00
    8   -6   13     -0.82      0.00
    9   -6   13     -0.17      0.00
   10   -6   13      0.08      0.00
  -11   -5   13      0.88      0.00
  -10   -5   13      0.50      0.00
   -9   -5   13      0.44      0.00
   -8   -5   13      0.37      0.00
   -7   -5   13      0.75      0.00
   -6   -5   13     -0.39      0.00
   -5   -5   13     -0.78      0.00
   -4   -5   13     -0.45      0.00
   -3   -5   13     -1.80      0.00
   -2   -5   13     -0.93      0.00
   -1   -5   13      1.19      0.00
    0   -5   13      0.83      0.00
    1   -5   13     -1.56      0.00
    2   -5   13     -2.38      0.00
    3   -5   13     -0.95      0.00
    4   -5   13      0.16      0.00
    5   -5   13      0.39      0.00
    6   -5   13     -0.02      0.00
    7   -5   13      0.03      0.00
    8   -5   13      0.75      0.00
    9   -5   13      0.82      0.00
   10   -5   13     -0.04      0.00
  -12   -4   13     -0.24      0.00
  -11   -4   13     -0.14      0.00
  -10   -4   13     -0.40      0.00
   -9   -4   13     -0.38      0.00
   -8   -4   13      0.87      0.00
   -7   -4   13      0.84      0.00
   -6   -4   13      0.05      0.00
   -5   -4   13     -0.23      0.00
   -4   -4   13     -0.70      0.00
   -3   -4   13      0.85      0.00
   -2   -4   13      2.54      0.00
   -1   -4   13      1.50      0.00
    0   -4   13     -1.17      0.00
    1   -4   13     -2.75      0.00
    2   -4   13     -2.82      0.00
    3   -4   13     -2.25      0.00
    4   -4   13     -1.09      0.00
    5   -4   13     -0.11      0.00
    6   -4   13      0.35      0.00
    7   -4   13      0.43      0.00
    8   -4   13      0.15      0.00
    9   -4   13     -0.66      0.00
   10   -4   13      0.61      0.00
  -12   -3   13     -0.39      0.00
  -11   -3   13     -0.11      0.00
  -10   -3   13     -0.25      0.00
   -9   -3   13      0.37      0.00
   -8   -3   13      1.42      0.00
   -7   -3   13      1.43      0.00
   -6   -3   13     -0.09      0.00
   -5   -3   13     -1.07      0.00
   -4   -3   13      0.10      0.00
   -3   -3   13      1.75      0.00
   -2   -3   13      1.59      0.00
   -1   -3   13      0.05      0.00
    0   -3   13     -1.36      0.00
    1   -3   13     -2.12      0.00
    2   -3   13     -2.18      0.00
    3   -3   13     -1.85      0.00
    4   -3   13     -1.68      0.00
    5   -3   13     -1.22      0.00
    6   -3   13     -0.34      0.00
    7   -3   13      0.34      0.00
    8   -3   13     -0.10      0.00
    9   -3   13      0.88      0.00
   10   -3   13      0.74      0.00
  -12   -2   13     -0.24      0.00
  -11   -2   13      0.21      0.00
  -10   -2   13      0.56      0.00
   -9   -2   13      1.25      0.00
   -8   -2   13      2.14      0.00
   -7   -2   13      1.11      0.00
   -6   -2   13      0.11      0.00
   -5   -2   13     -1.09      0.00
   -4   -2   13     -1.22      0.00
   -3   -2   13      0.22      0.00
   -2   -2   13      1.90      0.00
   -1   -2   13      2.14      0.00
    0   -2   13      0.17      0.00
    1   -2   13     -1.48      0.00
    2   -2   13     -2.19      0.00
    3   -2   13     -3.18      0.00
    4   -2   13     -3.39      0.00
    5   -2   13     -1.02      0.00
    6   -2   13      1.54      0.00
    7   -2   13      0.88      0.00
    8   -2   13      0.56      0.00
    9   -2   13      0.08      0.00
   10   -2   13     -1.08      0.00
  -13   -1   13     -1.09      0.00
  -12   -1   13     -0.69      0.00
  -11   -1   13      0.30      0.00
  -10   -1   13      0.78      0.00
   -9   -1   13      1.52      0.00
   -8   -1   13      1.52      0.00
   -7   -1   13      2.63      0.00
   -6   -1   13      0.93      0.00
   -5   -1   13     -1.45      0.00
   -4   -1   13     -1.19      0.00
   -3   -1   13      1.23      0.00
   -2   -1   13      4.14      0.00
   -1   -1   13      3.20      0.00
    0   -1   13      0.32      0.00
    1   -1   13     -0.91      0.00
    2   -1   13     -0.17      0.00
    3   -1   13     -0.20      0.00
    4   -1   13      0.22      0.00
    5   -1   13      1.80      0.00
    6   -1   13      0.75      0.00
    7   -1   13     -0.65      0.00
    8   -1   13     -0.71      0.00
    9   -1   13     -0.47      0.00
   10   -1   13     -1.11      0.00
  -13    0   13     -0.41      0.00
  -12    0   13     -0.02      0.00
  -11    0   13      0.09      0.00
  -10    0   13      0.33      0.00
   -9    0   13      0.04      0.00
   -8    0   13      1.70      0.00
   -7    0   13      0.88      0.00
   -6    0   13     -0.97      0.00
   -5    0   13     -1.41      0.00
   -4    0   13     -1.58      0.00
   -3    0   13      0.24      0.00
   -2    0   13      1.14      0.00
   -1    0   13      0.35      0.00
    0    0   13     -0.77      0.00
    1    0   13      1.06      0.00
    2    0   13      2.12      0.00
    3    0   13      0.42      0.00
    4    0   13      0.02      0.00
    5    0   13      0.19      0.00
    6    0   13      0.39      0.00
    7    0   13      0.22      0.00
    8    0   13      0.38      0.00
    9    0   13      0.31      0.00
   10    0   13      0.45      0.00
  -13    1   13      0.25      0.00
  -12    1   13     -0.02      0.00
  -11    1   13     -0.23      0.00
  -10    1   13     -1.00      0.00
   -9    1   13     -0.17      0.00
   -8    1   13     -0.46      0.00
   -7    1   13     -0.95      0.00
   -6    1   13     -0.48      0.00
   -5    1   13     -1.38      0.00
   -4    1   13     -1.82      0.00
   -3    1   13     -1.69      0.00
   -2    1   13     -0.65      0.00
   -1    1   13     -0.60      0.00
    0    1   13      0.53      0.00
    1    1   13      0.79      0.00
    2    1   13     -1.42      0.00
    3    1   13     -2.25      0.00
    4    1   13     -1.68      0.00
    5    1   13      0.13      0.00
    6    1   13      0.81      0.00
    7    1   13      0.43      0.00
    8    1   13      0.12      0.00
    9    1   13      0.69      0.00
  -13    2   13     -0.28      0.00
  -12    2   13     -0.22      0.00
  -11    2   13     -0.85      0.00
  -10    2   13     -0.71      0.00
   -9    2   13     -0.30      0.00
   -8    2   13      0.48      0.00
   -7    2   13      1.27      0.00
   -6    2   13      0.54      0.00
   -5    2   13     -0.17      0.00
   -4    2   13     -0.22      0.00
   -3    2   13      0.11      0.00
   -2    2   13     -0.41      0.00
   -1    2   13      0.35      0.00
    0    2   13      0.38      0.00
    1    2   13     -0.66      0.00
    2    2   13     -0.25      0.00
    3    2   13     -0.41      0.00
    4    2   13     -0.02      0.00
    5    2   13      0.51      0.00
    6    2   13      0.46      0.00
    7    2   13     -0.07      0.00
    8    2   13     -0.15      0.00
    9    2   13     -0.11      0.00
  -13    3   13      0.30      0.00
  -12    3   13      0.01      0.00
  -11    3   13     -0.29      0.00
  -10    3   13     -0.07      0.00
   -9    3   13      0.82      0.00
   -8    3   13      1.42      0.00
   -7    3   13      0.13      0.00
   -6    3   13     -1.77      0.00
   -5    3   13     -1.30      0.00
   -4    3   13     -0.81      0.00
   -3    3   13     -1.92      0.00
   -2    3   13     -0.86      0.00
   -1    3   13      0.43      0.00
    0    3   13      1.32      0.00
    1    3   13      2.17      0.00
    2    3   13      1.17      0.00
    3    3   13      0.00      0.00
    4    3   13     -0.52      0.00
    5    3   13     -0.42      0.00
    6    3   13     -0.30      0.00
    7    3   13      0.19      0.00
    8    3   13      0.50      0.00
    9    3   13     -0.02      0.00
  -13    4   13      0.29      0.00
  -12    4   13     -0.12      0.00
  -11    4   13     -0.25      0.00
  -10    4   13     -0.19      0.00
   -9    4   13      0.20      0.00
   -8    4   13     -0.09      0.00
   -7    4   13     -1.56      0.00
   -6    4   13     -0.61      0.00
   -5    4   13      0.40      0.00
   -4    4   13     -0.50      0.00
   -3    4   13      0.11      0.00
   -2    4   13      0.78      0.00
   -1    4   13      1.71      0.00
    0    4   13      1.15      0.00
    1    4   13     -0.60      0.00
    2    4   13     -1.48      0.00
    3    4   13     -1.63      0.00
    4    4   13     -0.83      0.00
    5    4   13     -0.22      0.00
    6    4   13      0.81      0.00
    7    4   13      1.44      0.00
    8    4   13      0.20      0.00
  -12    5   13     -1.01      0.00
  -11    5   13     -1.34      0.00
  -10    5   13     -0.70      0.00
   -9    5   13      0.18      0.00
   -8    5   13      0.29      0.00
   -7    5   13      1.50      0.00
   -6    5   13      2.09      0.00
   -5    5   13      1.23      0.00
   -4    5   13      0.88      0.00
   -3    5   13     -0.03      0.00
   -2    5   13      0.43      0.00
   -1    5   13     -0.53      0.00
    0    5   13     -1.62      0.00
    1    5   13     -1.30      0.00
    2    5   13     -1.06      0.00
    3    5   13     -0.09      0.00
    4    5   13      0.04      0.00
    5    5   13      0.59      0.00
    6    5   13      1.06      0.00
    7    5   13      0.35      0.00
    8    5   13     -0.36      0.00
  -12    6   13     -0.62      0.00
  -11    6   13     -0.04      0.00
  -10    6   13      0.21      0.00
   -9    6   13     -0.13      0.00
   -8    6   13     -0.24      0.00
   -7    6   13      0.02      0.00
   -6    6   13      0.83      0.00
   -5    6   13      1.17      0.00
   -4    6   13     -0.20      0.00
   -3    6   13     -0.10      0.00
   -2    6   13     -0.65      0.00
   -1    6   13     -1.05      0.00
    0    6   13     -0.46      0.00
    1    6   13     -0.13      0.00
    2    6   13      0.98      0.00
    3    6   13      0.40      0.00
    4    6   13     -0.03      0.00
    5    6   13     -0.17      0.00
    6    6   13     -0.43      0.00
    7    6   13     -0.01      0.00
  -12    7   13      1.01      0.00
  -11    7   13      0.97      0.00
  -10    7   13      0.78      0.00
   -9    7   13     -0.10      0.00
   -8    7   13     -0.54      0.00
   -7    7   13      0.54      0.00
   -6    7   13      0.93      0.00
   -5    7   13      0.00      0.00
   -4    7   13      0.17      0.00
   -3    7   13      0.65      0.00
   -2    7   13      0.88      0.00
   -1    7   13      0.48      0.00
    0    7   13     -0.06      0.00
    1    7   13      0.82      0.00
    2    7   13      0.30      0.00
    3    7   13     -0.35      0.00
    4    7   13     -0.55      0.00
    5    7   13     -0.86      0.00
    6    7   13     -0.12      0.00
  -11    8   13      0.33      0.00
  -10    8   13     -0.07      0.00
   -9    8   13     -0.20      0.00
   -8    8   13      0.29      0.00
   -7    8   13     -0.19      0.00
   -6    8   13     -0.24      0.00
   -5    8   13      0.31      0.00
   -4    8   13      0.93      0.00
   -3    8   13      1.16      0.00
   -2    8   13      0.34      0.00
   -1    8   13     -0.76      0.00
    0    8   13     -0.92      0.00
    1    8   13     -1.39      0.00
    2    8   13     -1.43      0.00
    3    8   13     -0.22      0.00
    4    8   13      0.08      0.00
    5    8   13      0.03      0.00
  -10    9   13     -1.00      0.00
   -9    9   13      0.35      0.00
   -8    9   13      0.16      0.00
   -7    9   13      0.35      0.00
   -6    9   13      0.60      0.00
   -5    9   13      0.36      0.00
   -4    9   13     -0.10      0.00
   -3    9   13     -0.35      0.00
   -2    9   13     -0.53      0.00
   -1    9   13     -0.89      0.00
    0    9   13     -1.06      0.00
    1    9   13     -1.27      0.00
    2    9   13     -0.10      0.00
    3    9   13      0.33      0.00
    4    9   13     -0.36      0.00
   -9   10   13      0.40      0.00
   -8   10   13      0.20      0.00
   -7   10   13      0.14      0.00
   -6   10   13     -0.06      0.00
   -5   10   13     -0.39      0.00
   -4   10   13     -0.15      0.00
   -3   10   13     -0.30      0.00
   -2   10   13     -1.05      0.00
   -1   10   13     -0.37      0.00
    0   10   13      0.16      0.00
    1   10   13      0.87      0.00
    2   10   13      0.55      0.00
    3   10   13     -0.18      0.00
   -8   11   13     -0.17      0.00
   -7   11   13     -0.22      0.00
   -6   11   13     -0.44      0.00
   -5   11   13      0.04      0.00
   -4   11   13     -0.13      0.00
   -3   11   13     -0.60      0.00
   -2   11   13      0.30      0.00
   -1   11   13      0.87      0.00
    0   11   13      1.28      0.00
    1   11   13      0.61      0.00
   -5   12   13      0.54      0.00
   -4   12   13      0.62      0.00
   -3   12   13      1.41      0.00
   -2   12   13      1.20      0.00
   -3  -13   14     -0.19      0.00
   -2  -13   14      0.38      0.00
   -1  -13   14      0.80      0.00
    0  -13   14     -0.10      0.00
    1  -13   14     -0.44      0.00
    2  -13   14     -0.41      0.00
    3  -13   14     -0.45      0.00
    4  -13   14     -0.20      0.00
   -5  -12   14     -0.11      0.00
   -4  -12   14      0.32      0.00
   -3  -12   14      0.95      0.00
   -2  -12   14      0.40      0.00
   -1  -12   14     -0.92      0.00
    0  -12   14     -0.91      0.00
    1  -12   14     -0.98      0.00
    2  -12   14     -0.94      0.00
    3  -12   14     -0.65      0.00
    4  -12   14     -0.02      0.00
    5  -12   14      0.65      0.00
    6  -12   14      0.85      0.00
   -7  -11   14      0.25      0.00
   -6  -11   14      0.07      0.00
   -5  -11   14      0.09      0.00
   -4  -11   14      0.13      0.00
   -3  -11   14     -0.23      0.00
   -2  -11   14     -0.26      0.00
   -1  -11   14      0.48      0.00
    0  -11   14      0.00      0.00
    1  -11   14     -0.09      0.00
    2  -11   14      0.09      0.00
    3  -11   14      0.50      0.00
    4  -11   14      0.19      0.00
    5  -11   14     -0.19      0.00
    6  -11   14      0.41      0.00
    7  -11   14      0.42      0.00
   -8  -10   14     -1.04      0.00
   -7  -10   14     -0.95      0.00
   -6  -10   14     -0.22      0.00
   -5  -10   14      0.01      0.00
   -4  -10   14     -0.25      0.00
   -3  -10   14      0.55      0.00
   -2  -10   14      1.71      0.00
   -1  -10   14      0.65      0.00
    0  -10   14     -0.09      0.00
    1  -10   14     -0.04      0.00
    2  -10   14      0.96      0.00
    3  -10   14      0.47      0.00
    4  -10   14     -0.96      0.00
    5  -10   14     -0.55      0.00
    6  -10   14      0.17      0.00
    7  -10   14      0.53      0.00
    8  -10   14     -0.38      0.00
   -9   -9   14     -0.43      0.00
   -8   -9   14     -0.71      0.00
   -7   -9   14     -0.48      0.00
   -6   -9   14     -0.12      0.00
   -5   -9   14     -0.20      0.00
   -4   -9   14      0.38      0.00
   -3   -9   14      1.42      0.00
   -2   -9   14      0.68      0.00
   -1   -9   14     -0.28      0.00
    0   -9   14     -0.98      0.00
    1   -9   14     -0.18      0.00
    2   -9   14      0.11      0.00
    3   -9   14     -0.47      0.00
    4   -9   14     -0.33      0.00
    5   -9   14     -0.73      0.00
    6   -9   14     -0.52      0.00
    7   -9   14     -0.33      0.00
    8   -9   14     -0.44      0.00
  -10   -8   14     -0.22      0.00
   -9   -8   14      0.29      0.00
   -8   -8   14      0.48      0.00
   -7   -8   14      0.56      0.00
   -6   -8   14      0.14      0.00
   -5   -8   14     -0.27      0.00
   -4   -8   14      0.03      0.00
   -3   -8   14     -0.21      0.00
   -2   -8   14     -0.31      0.00
   -1   -8   14     -0.56      0.00
    0   -8   14     -0.67      0.00
    1   -8   14     -1.17      0.00
    2   -8   14     -1.13      0.00
    3   -8   14      0.25      0.00
    4   -8   14      0.23      0.00
    5   -8   14     -0.52      0.00
    6   -8   14     -0.59      0.00
    7   -8   14      0.27      0.00
    8   -8   14      0.51      0.00
    9   -8   14     -0.33      0.00
  -10   -7   14     -0.16      0.00
   -9   -7   14     -0.19      0.00
   -8   -7   14      0.44      0.00
   -7   -7   14      0.33      0.00
   -6   -7   14     -0.85      0.00
   -5   -7   14     -0.97      0.00
   -4   -7   14     -0.50      0.00
   -3   -7   14      0.28      0.00
   -2   -7   14      1.06      0.00
   -1   -7   14      0.52      0.00
    0   -7   14     -1.11      0.00
    1   -7   14     -1.74      0.00
    2   -7   14     -0.32      0.00
    3   -7   14      1.14      0.00
    4   -7   14      1.47      0.00
    5   -7   14      0.51      0.00
    6   -7   14     -0.24      0.00
    7   -7   14     -0.03      0.00
    8   -7   14     -0.55      0.00
    9   -7   14     -2.21      0.00
  -11   -6   14      0.51      0.00
  -10   -6   14     -0.74      0.00
   -9   -6   14     -0.30      0.00
   -8   -6   14      0.62      0.00
   -7   -6   14     -0.09      0.00
   -6   -6   14     -0.59      0.00
   -5   -6   14     -0.25      0.00
   -4   -6   14      0.07      0.00
   -3   -6   14      0.71      0.00
   -2   -6   14     -0.15      0.00
   -1   -6   14     -1.20      0.00
    0   -6   14     -1.01      0.00
    1   -6   14     -0.99      0.00
    2   -6   14     -1.03      0.00
    3   -6   14      0.40      0.00
    4   -6   14      1.72      0.00
    5   -6   14      0.84      0.00
    6   -6   14     -0.06      0.00
    7   -6   14     -0.07      0.00
    8   -6   14     -1.19      0.00
    9   -6   14     -1.07      0.00
  -11   -5   14      0.59      0.00
  -10   -5   14      0.25      0.00
   -9   -5   14      0.72      0.00
   -8   -5   14      0.84      0.00
   -7   -5   14      0.36      0.00
   -6   -5   14     -0.07      0.00
   -5   -5   14     -0.83      0.00
   -4   -5   14     -0.39      0.00
   -3   -5   14     -1.14      0.00
   -2   -5   14     -1.26      0.00
   -1   -5   14      0.70      0.00
    0   -5   14      0.53      0.00
    1   -5   14     -1.92      0.00
    2   -5   14     -2.43      0.00
    3   -5   14     -0.07      0.00
    4   -5   14      0.99      0.00
    5   -5   14      0.48      0.00
    6   -5   14      0.20      0.00
    7   -5   14     -0.20      0.00
    8   -5   14      0.93      0.00
    9   -5   14      1.08      0.00
   10   -5   14      0.02      0.00
  -12   -4   14     -0.07      0.00
  -11   -4   14     -0.10      0.00
  -10   -4   14     -0.36      0.00
   -9   -4   14      0.03      0.00
   -8   -4   14      0.66      0.00
   -7   -4   14      1.05      0.00
   -6   -4   14     -0.25      0.00
   -5   -4   14     -0.23      0.00
   -4   -4   14     -0.36      0.00
   -3   -4   14      0.05      0.00
   -2   -4   14      2.29      0.00
   -1   -4   14      2.06      0.00
    0   -4   14     -0.72      0.00
    1   -4   14     -2.88      0.00
    2   -4   14     -2.47      0.00
    3   -4   14     -1.62      0.00
    4   -4   14     -0.47      0.00
    5   -4   14      0.53      0.00
    6   -4   14      0.08      0.00
    7   -4   14      0.71      0.00
    8   -4   14      0.86      0.00
    9   -4   14      0.00      0.00
   10   -4   14      0.13      0.00
  -12   -3   14     -0.33      0.00
  -11   -3   14     -0.21      0.00
  -10   -3   14     -0.31      0.00
   -9   -3   14      0.12      0.00
   -8   -3   14      1.73      0.00
   -7   -3   14      1.13      0.00
   -6   -3   14      0.03      0.00
   -5   -3   14     -0.62      0.00
   -4   -3   14      0.06      0.00
   -3   -3   14      2.44      0.00
   -2   -3   14      2.48      0.00
   -1   -3   14      0.41      0.00
    0   -3   14     -1.59      0.00
    1   -3   14     -1.62      0.00
    2   -3   14     -1.50      0.00
    3   -3   14     -1.04      0.00
    4   -3   14     -0.16      0.00
    5   -3   14     -0.35      0.00
    6   -3   14     -0.11      0.00
    7   -3   14     -0.21      0.00
    8   -3   14     -0.29      0.00
    9   -3   14      0.20      0.00
   10   -3   14      0.97      0.00
  -12   -2   14      0.50      0.00
  -11   -2   14      0.50      0.00
  -10   -2   14      0.24      0.00
   -9   -2   14      1.43      0.00
   -8   -2   14      1.77      0.00
   -7   -2   14      0.79      0.00
   -6   -2   14     -0.55      0.00
   -5   -2   14     -1.12      0.00
   -4   -2   14     -0.12      0.00
   -3   -2   14      1.16      0.00
   -2   -2   14      1.78      0.00
   -1   -2   14      0.61      0.00
    0   -2   14     -0.29      0.00
    1   -2   14     -1.03      0.00
    2   -2   14     -2.10      0.00
    3   -2   14     -3.40      0.00
    4   -2   14     -3.60      0.00
    5   -2   14     -0.97      0.00
    6   -2   14      0.81      0.00
    7   -2   14      0.99      0.00
    8   -2   14      0.66      0.00
    9   -2   14      0.37      0.00
   10   -2   14     -1.06      0.00
  -13   -1   14     -0.33      0.00
  -12   -1   14     -0.02      0.00
  -11   -1   14      0.42      0.00
  -10   -1   14      1.08      0.00
   -9   -1   14      1.46      0.00
   -8   -1   14      1.53      0.00
   -7   -1   14      1.44      0.00
   -6   -1   14      0.67      0.00
   -5   -1   14     -1.21      0.00
   -4   -1   14     -1.03      0.00
   -3   -1   14      1.58      0.00
   -2   -1   14      2.81      0.00
   -1   -1   14      1.76      0.00
    0   -1   14     -0.84      0.00
    1   -1   14     -2.12      0.00
    2   -1   14     -2.61      0.00
    3   -1   14     -2.81      0.00
    4   -1   14     -0.31      0.00
    5   -1   14      1.81      0.00
    6   -1   14      1.42      0.00
    7   -1   14     -0.30      0.00
    8   -1   14     -0.65      0.00
    9   -1   14     -1.40      0.00
  -13    0   14     -0.23      0.00
  -12    0   14      0.39      0.00
  -11    0   14      0.69      0.00
  -10    0   14      0.59      0.00
   -9    0   14      0.76      0.00
   -8    0   14      1.42      0.00
   -7    0   14      1.71      0.00
   -6    0   14     -0.81      0.00
   -5    0   14     -1.75      0.00
   -4    0   14     -0.85      0.00
   -3    0   14      0.27      0.00
   -2    0   14      1.23      0.00
   -1    0   14     -0.34      0.00
    0    0   14     -0.54      0.00
    1    0   14      1.09      0.00
    2    0   14      1.70      0.00
    3    0   14      1.54      0.00
    4    0   14      1.46      0.00
    5    0   14      1.49      0.00
    6    0   14     -0.01      0.00
    7    0   14     -0.45      0.00
    8    0   14     -0.09      0.00
    9    0   14     -0.43      0.00
  -13    1   14      0.65      0.00
  -12    1   14      0.67      0.00
  -11    1   14      0.16      0.00
  -10    1   14     -0.32      0.00
   -9    1   14     -0.07      0.00
   -8    1   14      0.68      0.00
   -7    1   14     -1.13      0.00
   -6    1   14     -1.31      0.00
   -5    1   14     -1.55      0.00
   -4    1   14     -2.48      0.00
   -3    1   14     -1.31      0.00
   -2    1   14     -1.09      0.00
   -1    1   14      0.26      0.00
    0    1   14      1.82      0.00
    1    1   14      2.03      0.00
    2    1   14      0.07      0.00
    3    1   14     -1.73      0.00
    4    1   14     -0.47      0.00
    5    1   14      0.01      0.00
    6    1   14      0.02      0.00
    7    1   14      0.34      0.00
    8    1   14      0.40      0.00
    9    1   14      0.12      0.00
  -13    2   14      0.12      0.00
  -12    2   14      0.01      0.00
  -11    2   14     -0.65      0.00
  -10    2   14     -0.76      0.00
   -9    2   14      0.34      0.00
   -8    2   14     -0.12      0.00
   -7    2   14      0.50      0.00
   -6    2   14      0.41      0.00
   -5    2   14     -0.42      0.00
   -4    2   14      0.35      0.00
   -3    2   14     -0.45      0.00
   -2    2   14     -0.10      0.00
   -1    2   14      0.10      0.00
    0    2   14      0.27      0.00
    1    2   14     -0.86      0.00
    2    2   14     -2.37      0.00
    3    2   14     -0.93      0.00
    4    2   14     -0.09      0.00
    5    2   14      0.54      0.00
    6    2   14      0.53      0.00
    7    2   14     -0.03      0.00
    8    2   14     -0.10      0.00
    9    2   14      0.50      0.00
  -13    3   14      0.17      0.00
  -12    3   14     -0.36      0.00
  -11    3   14     -0.50      0.00
  -10    3   14      0.27      0.00
   -9    3   14      0.84      0.00
   -8    3   14      1.76      0.00
   -7    3   14      0.85      0.00
   -6    3   14     -0.51      0.00
   -5    3   14      0.03      0.00
   -4    3   14     -1.03      0.00
   -3    3   14     -1.76      0.00
   -2    3   14     -2.02      0.00
   -1    3   14     -0.32      0.00
    0    3   14      0.83      0.00
    1    3   14      0.47      0.00
    2    3   14      1.18      0.00
    3    3   14      0.45      0.00
    4    3   14      0.67      0.00
    5    3   14      0.43      0.00
    6    3   14     -0.56      0.00
    7    3   14     -0.19      0.00
    8    3   14      0.87      0.00
  -12    4   14      0.02      0.00
  -11    4   14      0.19      0.00
  -10    4   14      0.53      0.00
   -9    4   14      1.07      0.00
   -8    4   14      0.12      0.00
   -7    4   14     -1.34      0.00
   -6    4   14     -1.09      0.00
   -5    4   14     -0.68      0.00
   -4    4   14     -0.73      0.00
   -3    4   14     -0.85      0.00
   -2    4   14      1.07      0.00
   -1    4   14      2.17      0.00
    0    4   14      1.47      0.00
    1    4   14      1.16      0.00
    2    4   14     -0.56      0.00
    3    4   14     -0.70      0.00
    4    4   14     -0.30      0.00
    5    4   14     -0.43      0.00
    6    4   14      0.45      0.00
    7    4   14      1.17      0.00
    8    4   14      0.65      0.00
  -12    5   14     -0.85      0.00
  -11    5   14     -0.93      0.00
  -10    5   14     -0.53      0.00
   -9    5   14     -0.16      0.00
   -8    5   14      0.12      0.00
   -7    5   14      0.54      0.00
   -6    5   14      1.40      0.00
   -5    5   14      1.11      0.00
   -4    5   14      0.45      0.00
   -3    5   14      1.53      0.00
   -2    5   14      1.65      0.00
   -1    5   14      0.60      0.00
    0    5   14      0.07      0.00
    1    5   14     -0.85      0.00
    2    5   14     -1.09      0.00
    3    5   14     -0.75      0.00
    4    5   14     -0.14      0.00
    5    5   14      1.10      0.00
    6    5   14      1.44      0.00
    7    5   14      0.72      0.00
  -12    6   14     -0.93      0.00
  -11    6   14     -0.73      0.00
  -10    6   14     -0.22      0.00
   -9    6   14      0.19      0.00
   -8    6   14      0.03      0.00
   -7    6   14      0.76      0.00
   -6    6   14      0.91      0.00
   -5    6   14      0.47      0.00
   -4    6   14      0.78      0.00
   -3    6   14      0.41      0.00
   -2    6   14     -0.33      0.00
   -1    6   14     -1.09      0.00
    0    6   14     -0.90      0.00
    1    6   14     -0.29      0.00
    2    6   14      0.02      0.00
    3    6   14      0.06      0.00
    4    6   14      0.39      0.00
    5    6   14      0.75      0.00
    6    6   14      0.49      0.00
    7    6   14      0.02      0.00
  -11    7   14      0.86      0.00
  -10    7   14      0.63      0.00
   -9    7   14     -0.13      0.00
   -8    7   14      0.00      0.00
   -7    7   14      0.74      0.00
   -6    7   14      0.84      0.00
   -5    7   14      0.28      0.00
   -4    7   14     -0.30      0.00
   -3    7   14      0.16      0.00
   -2    7   14     -0.23      0.00
   -1    7   14     -0.29      0.00
    0    7   14      0.28      0.00
    1    7   14      1.06      0.00
    2    7   14      0.97      0.00
    3    7   14     -0.06      0.00
    4    7   14     -0.37      0.00
    5    7   14     -0.64      0.00
    6    7   14     -0.39      0.00
  -11    8   14      0.70      0.00
  -10    8   14      0.42      0.00
   -9    8   14      0.04      0.00
   -8    8   14      0.32      0.00
   -7    8   14      0.35      0.00
   -6    8   14     -0.19      0.00
   -5    8   14     -0.29      0.00
   -4    8   14      0.63      0.00
   -3    8   14      0.79      0.00
   -2    8   14      0.26      0.00
   -1    8   14     -0.19      0.00
    0    8   14     -0.05      0.00
    1    8   14     -0.17      0.00
    2    8   14     -0.77      0.00
    3    8   14     -0.24      0.00
    4    8   14     -0.43      0.00
    5    8   14     -0.43      0.00
  -10    9   14     -0.70      0.00
   -9    9   14      0.26      0.00
   -8    9   14      0.51      0.00
   -7    9   14      0.23      0.00
   -6    9   14      0.48      0.00
   -5    9   14      0.37      0.00
   -4    9   14      0.07      0.00
   -3    9   14     -0.29      0.00
   -2    9   14     -0.30      0.00
   -1    9   14     -0.32      0.00
    0    9   14     -0.98      0.00
    1    9   14     -1.48      0.00
    2    9   14     -0.46      0.00
    3    9   14     -0.06      0.00
    4    9   14     -0.58      0.00
   -9   10   14      0.74      0.00
   -8   10   14      0.20      0.00
   -7   10   14      0.33      0.00
   -6   10   14     -0.01      0.00
   -5   10   14     -0.07      0.00
   -4   10   14     -0.22      0.00
   -3   10   14     -0.19      0.00
   -2   10   14     -0.51      0.00
   -1   10   14     -0.81      0.00
    0   10   14     -0.31      0.00
    1   10   14      0.22      0.00
    2   10   14      0.43      0.00
   -7   11   14     -0.47      0.00
   -6   11   14     -0.24      0.00
   -5   11   14     -0.28      0.00
   -4   11   14     -0.24      0.00
   -3   11   14     -0.90      0.00
   -2   11   14     -0.86      0.00
   -1   11   14      0.67      0.00
    0   11   14      1.02      0.00
   -3  -13   15     -0.55      0.00
   -2  -13   15      0.34      0.00
   -1  -13   15      0.77      0.00
    0  -13   15      0.84      0.00
    1  -13   15     -0.16      0.00
    2  -13   15     -0.09      0.00
    3  -13   15     -0.17      0.00
   -5  -12   15     -0.01      0.00
   -4  -12   15      0.24      0.00
   -3  -12   15      1.22      0.00
   -2  -12   15      0.88      0.00
   -1  -12   15      0.12      0.00
    0  -12   15     -1.00      0.00
    1  -12   15     -1.06      0.00
    2  -12   15     -1.35      0.00
    3  -12   15     -1.24      0.00
    4  -12   15     -0.23      0.00
    5  -12   15      0.25      0.00
   -7  -11   15      0.88      0.00
   -6  -11   15      0.54      0.00
   -5  -11   15      0.24      0.00
   -4  -11   15      0.33      0.00
   -3  -11   15      0.08      0.00
   -2  -11   15     -0.08      0.00
   -1  -11   15     -0.33      0.00
    0  -11   15     -0.19      0.00
    1  -11   15     -0.54      0.00
    2  -11   15     -0.35      0.00
    3  -11   15      0.10      0.00
    4  -11   15     -0.01      0.00
    5  -11   15      0.56      0.00
    6  -11   15      0.61      0.00
   -8  -10   15     -0.39      0.00
   -7  -10   15     -0.18      0.00
   -6  -10   15      0.08      0.00
   -5  -10   15     -0.06      0.00
   -4  -10   15     -0.19      0.00
   -3  -10   15      0.28      0.00
   -2  -10   15      0.84      0.00
   -1  -10   15      0.72      0.00
    0  -10   15     -0.12      0.00
    1  -10   15      0.29      0.00
    2  -10   15      0.61      0.00
    3  -10   15     -0.15      0.00
    4  -10   15     -0.59      0.00
    5  -10   15     -0.27      0.00
    6  -10   15      0.70      0.00
    7  -10   15      0.67      0.00
   -9   -9   15     -0.30      0.00
   -8   -9   15     -0.64      0.00
   -7   -9   15     -0.63      0.00
   -6   -9   15     -0.42      0.00
   -5   -9   15     -0.21      0.00
   -4   -9   15      0.30      0.00
   -3   -9   15      1.40      0.00
   -2   -9   15      1.27      0.00
   -1   -9   15     -0.30      0.00
    0   -9   15     -0.34      0.00
    1   -9   15      0.20      0.00
    2   -9   15      0.31      0.00
    3   -9   15     -0.25      0.00
    4   -9   15     -0.53      0.00
    5   -9   15      0.13      0.00
    6   -9   15      0.43      0.00
    7   -9   15     -0.22      0.00
    8   -9   15     -1.47      0.00
   -9   -8   15      0.27      0.00
   -8   -8   15      0.19      0.00
   -7   -8   15      0.22      0.00
   -6   -8   15      0.24      0.00
   -5   -8   15     -0.04      0.00
   -4   -8   15      0.56      0.00
   -3   -8   15      0.45      0.00
   -2   -8   15     -0.93      0.00
   -1   -8   15     -1.02      0.00
    0   -8   15     -0.83      0.00
    1   -8   15     -0.52      0.00
    2   -8   15     -0.45      0.00
    3   -8   15     -0.21      0.00
    4   -8   15     -0.15      0.00
    5   -8   15     -0.58      0.00
    6   -8   15     -0.09      0.00
    7   -8   15     -0.03      0.00
    8   -8   15     -0.51      0.00
  -10   -7   15     -0.02      0.00
   -9   -7   15      0.16      0.00
   -8   -7   15      0.59      0.00
   -7   -7   15      0.53      0.00
   -6   -7   15     -0.69      0.00
   -5   -7   15     -0.82      0.00
   -4   -7   15     -0.48      0.00
   -3   -7   15     -0.57      0.00
   -2   -7   15      0.33      0.00
   -1   -7   15      0.04      0.00
    0   -7   15     -1.10      0.00
    1   -7   15     -1.56      0.00
    2   -7   15     -0.08      0.00
    3   -7   15      1.46      0.00
    4   -7   15      0.83      0.00
    5   -7   15      0.19      0.00
    6   -7   15      0.22      0.00
    7   -7   15      0.39      0.00
    8   -7   15     -0.79      0.00
    9   -7   15     -2.29      0.00
  -11   -6   15      0.00      0.00
  -10   -6   15     -0.93      0.00
   -9   -6   15     -0.40      0.00
   -8   -6   15      0.59      0.00
   -7   -6   15     -0.19      0.00
   -6   -6   15     -0.75      0.00
   -5   -6   15     -0.31      0.00
   -4   -6   15      0.08      0.00
   -3   -6   15      1.08      0.00
   -2   -6   15      0.62      0.00
   -1   -6   15     -0.86      0.00
    0   -6   15     -1.75      0.00
    1   -6   15     -1.20      0.00
    2   -6   15      0.29      0.00
    3   -6   15      1.34      0.00
    4   -6   15      1.44      0.00
    5   -6   15      0.22      0.00
    6   -6   15     -0.09      0.00
    7   -6   15      0.11      0.00
    8   -6   15     -1.32      0.00
    9   -6   15     -2.41      0.00
  -11   -5   15      0.17      0.00
  -10   -5   15     -0.11      0.00
   -9   -5   15      0.87      0.00
   -8   -5   15      1.04      0.00
   -7   -5   15      0.27      0.00
   -6   -5   15     -0.32      0.00
   -5   -5   15     -0.53      0.00
   -4   -5   15     -0.11      0.00
   -3   -5   15     -0.41      0.00
   -2   -5   15     -0.81      0.00
   -1   -5   15     -0.08      0.00
    0   -5   15     -0.31      0.00
    1   -5   15     -1.81      0.00
    2   -5   15     -1.63      0.00
    3   -5   15      0.66      0.00
    4   -5   15      1.14      0.00
    5   -5   15      0.00      0.00
    6   -5   15     -0.05      0.00
    7   -5   15      0.13      0.00
    8   -5   15      0.00      0.00
    9   -5   15      0.55      0.00
  -12   -4   15      0.25      0.00
  -11   -4   15     -0.15      0.00
  -10   -4   15     -0.15      0.00
   -9   -4   15      0.47      0.00
   -8   -4   15      0.87      0.00
   -7   -4   15      0.35      0.00
   -6   -4   15     -0.27      0.00
   -5   -4   15     -0.44      0.00
   -4   -4   15     -0.31      0.00
   -3   -4   15     -0.15      0.00
   -2   -4   15      1.52      0.00
   -1   -4   15      1.88      0.00
    0   -4   15     -0.82      0.00
    1   -4   15     -3.03      0.00
    2   -4   15     -2.34      0.00
    3   -4   15     -0.77      0.00
    4   -4   15     -0.11      0.00
    5   -4   15      0.26      0.00
    6   -4   15      0.22      0.00
    7   -4   15      0.49      0.00
    8   -4   15      1.58      0.00
    9   -4   15      0.46      0.00
  -12   -3   15     -0.49      0.00
  -11   -3   15     -0.45      0.00
  -10   -3   15     -0.40      0.00
   -9   -3   15      0.42      0.00
   -8   -3   15      1.04      0.00
   -7   -3   15      1.08      0.00
   -6   -3   15     -0.17      0.00
   -5   -3   15     -0.31      0.00
   -4   -3   15      0.19      0.00
   -3   -3   15      2.05      0.00
   -2   -3   15      2.89      0.00
   -1   -3   15      0.46      0.00
    0   -3   15     -1.76      0.00
    1   -3   15     -1.96      0.00
    2   -3   15     -0.95      0.00
    3   -3   15      0.04      0.00
    4   -3   15      1.16      0.00
    5   -3   15      0.82      0.00
    6   -3   15     -0.45      0.00
    7   -3   15     -0.14      0.00
    8   -3   15     -0.60      0.00
    9   -3   15     -0.34      0.00
  -12   -2   15      0.78      0.00
  -11   -2   15      0.41      0.00
  -10   -2   15      0.32      0.00
   -9   -2   15      0.86      0.00
   -8   -2   15      1.78      0.00
   -7   -2   15      0.17      0.00
   -6   -2   15     -0.66      0.00
   -5   -2   15     -0.85      0.00
   -4   -2   15      0.27      0.00
   -3   -2   15      2.13      0.00
   -2   -2   15      1.36      0.00
   -1   -2   15     -0.05      0.00
    0   -2   15     -0.41      0.00
    1   -2   15      0.30      0.00
    2   -2   15     -0.55      0.00
    3   -2   15     -1.62      0.00
    4   -2   15     -1.66      0.00
    5   -2   15     -1.18      0.00
    6   -2   15      0.24      0.00
    7   -2   15      0.38      0.00
    8   -2   15      0.41      0.00
    9   -2   15      0.28      0.00
  -12   -1   15      0.47      0.00
  -11   -1   15      0.47      0.00
  -10   -1   15      0.63      0.00
   -9   -1   15      1.69      0.00
   -8   -1   15      0.83      0.00
   -7   -1   15      0.70      0.00
   -6   -1   15      0.09      0.00
   -5   -1   15     -1.23      0.00
   -4   -1   15     -0.34      0.00
   -3   -1   15      1.26      0.00
   -2   -1   15      2.10      0.00
   -1   -1   15      0.77      0.00
    0   -1   15     -0.34      0.00
    1   -1   15     -2.18      0.00
    2   -1   15     -3.95      0.00
    3   -1   15     -3.70      0.00
    4   -1   15     -1.51      0.00
    5   -1   15      1.43      0.00
    6   -1   15      1.32      0.00
    7   -1   15      0.31      0.00
    8   -1   15     -0.65      0.00
    9   -1   15     -1.69      0.00
  -12    0   15      0.52      0.00
  -11    0   15      0.54      0.00
  -10    0   15      1.07      0.00
   -9    0   15      0.77      0.00
   -8    0   15      1.48      0.00
   -7    0   15      1.52      0.00
   -6    0   15     -0.59      0.00
   -5    0   15     -1.58      0.00
   -4    0   15     -0.56      0.00
   -3    0   15      1.04      0.00
   -2    0   15      0.63      0.00
   -1    0   15     -0.21      0.00
    0    0   15     -0.96      0.00
    1    0   15     -0.53      0.00
    2    0   15      0.26      0.00
    3    0   15      0.86      0.00
    4    0   15      2.61      0.00
    5    0   15      1.78      0.00
    6    0   15     -0.03      0.00
    7    0   15     -0.75      0.00
    8    0   15     -0.76      0.00
    9    0   15     -1.48      0.00
  -13    1   15      0.90      0.00
  -12    1   15      0.92      0.00
  -11    1   15      0.72      0.00
  -10    1   15      0.09      0.00
   -9    1   15      0.69      0.00
   -8    1   15      1.15      0.00
   -7    1   15     -0.33      0.00
   -6    1   15     -1.66      0.00
   -5    1   15     -1.70      0.00
   -4    1   15     -2.03      0.00
   -3    1   15     -2.10      0.00
   -2    1   15     -0.68      0.00
   -1    1   15      0.77      0.00
    0    1   15      2.76      0.00
    1    1   15      2.87      0.00
    2    1   15      0.77      0.00
    3    1   15      0.66      0.00
    4    1   15      0.59      0.00
    5    1   15     -0.15      0.00
    6    1   15     -0.62      0.00
    7    1   15      0.22      0.00
    8    1   15      0.49      0.00
    9    1   15     -0.26      0.00
  -12    2   15      0.48      0.00
  -11    2   15     -0.28      0.00
  -10    2   15     -0.10      0.00
   -9    2   15      0.76      0.00
   -8    2   15      0.34      0.00
   -7    2   15     -0.71      0.00
   -6    2   15     -0.28      0.00
   -5    2   15     -0.72      0.00
   -4    2   15     -0.88      0.00
   -3    2   15     -0.08      0.00
   -2    2   15      0.20      0.00
   -1    2   15      1.69      0.00
    0    2   15      1.34      0.00
    1    2   15     -1.09      0.00
    2    2   15     -2.07      0.00
    3    2   15     -1.41      0.00
    4    2   15     -0.19      0.00
    5    2   15     -0.13      0.00
    6    2   15      0.19      0.00
    7    2   15      0.61      0.00
    8    2   15      0.18      0.00
  -12    3   15     -0.41      0.00
  -11    3   15     -0.49      0.00
  -10    3   15      0.48      0.00
   -9    3   15      1.13      0.00
   -8    3   15      0.77      0.00
   -7    3   15      0.99      0.00
   -6    3   15      0.41      0.00
   -5    3   15      0.52      0.00
   -4    3   15      0.14      0.00
   -3    3   15     -1.99      0.00
   -2    3   15     -1.37      0.00
   -1    3   15     -0.62      0.00
    0    3   15     -0.41      0.00
    1    3   15     -0.78      0.00
    2    3   15     -0.72      0.00
    3    3   15      0.72      0.00
    4    3   15      0.90      0.00
    5    3   15      0.39      0.00
    6    3   15     -0.39      0.00
    7    3   15     -0.32      0.00
    8    3   15      0.69      0.00
  -12    4   15     -0.19      0.00
  -11    4   15      0.66      0.00
  -10    4   15      1.27      0.00
   -9    4   15      1.30      0.00
   -8    4   15      0.71      0.00
   -7    4   15     -0.93      0.00
   -6    4   15     -0.88      0.00
   -5    4   15     -0.47      0.00
   -4    4   15     -1.89      0.00
   -3    4   15     -1.15      0.00
   -2    4   15     -0.08      0.00
   -1    4   15      1.27      0.00
    0    4   15      1.15      0.00
    1    4   15      0.34      0.00
    2    4   15      0.60      0.00
    3    4   15      0.16      0.00
    4    4   15      0.35      0.00
    5    4   15     -0.44      0.00
    6    4   15     -0.47      0.00
    7    4   15      0.79      0.00
  -12    5   15     -0.03      0.00
  -11    5   15     -0.24      0.00
  -10    5   15      0.10      0.00
   -9    5   15      0.11      0.00
   -8    5   15     -0.55      0.00
   -7    5   15     -0.27      0.00
   -6    5   15      0.29      0.00
   -5    5   15     -0.29      0.00
   -4    5   15      0.30      0.00
   -3    5   15      1.18      0.00
   -2    5   15      2.18      0.00
   -1    5   15      1.64      0.00
    0    5   15      0.84      0.00
    1    5   15      0.64      0.00
    2    5   15     -0.91      0.00
    3    5   15     -0.45      0.00
    4    5   15      0.05      0.00
    5    5   15      0.57      0.00
    6    5   15      1.15      0.00
    7    5   15      0.71      0.00
  -12    6   15     -1.30      0.00
  -11    6   15     -0.91      0.00
  -10    6   15     -0.53      0.00
   -9    6   15     -0.04      0.00
   -8    6   15      0.37      0.00
   -7    6   15      0.30      0.00
   -6    6   15      0.02      0.00
   -5    6   15      0.10      0.00
   -4    6   15      0.91      0.00
   -3    6   15      1.58      0.00
   -2    6   15      0.44      0.00
   -1    6   15     -0.49      0.00
    0    6   15     -0.03      0.00
    1    6   15     -0.83      0.00
    2    6   15     -0.78      0.00
    3    6   15     -0.40      0.00
    4    6   15      0.43      0.00
    5    6   15      1.32      0.00
    6    6   15      0.85      0.00
  -11    7   15      0.19      0.00
  -10    7   15      0.36      0.00
   -9    7   15      0.36      0.00
   -8    7   15      0.01      0.00
   -7    7   15      0.52      0.00
   -6    7   15      0.39      0.00
   -5    7   15      0.30      0.00
   -4    7   15      0.38      0.00
   -3    7   15     -0.22      0.00
   -2    7   15     -0.90      0.00
   -1    7   15     -0.55      0.00
    0    7   15      0.02      0.00
    1    7   15      0.52      0.00
    2    7   15      0.47      0.00
    3    7   15     -0.03      0.00
    4    7   15      0.03      0.00
    5    7   15     -0.21      0.00
  -10    8   15      0.68      0.00
   -9    8   15      0.01      0.00
   -8    8   15      0.35      0.00
   -7    8   15      0.30      0.00
   -6    8   15     -0.12      0.00
   -5    8   15     -0.24      0.00
   -4    8   15      0.20      0.00
   -3    8   15      0.32      0.00
   -2    8   15      0.02      0.00
   -1    8   15      0.29      0.00
    0    8   15      0.46      0.00
    1    8   15      0.64      0.00
    2    8   15      0.07      0.00
    3    8   15     -0.16      0.00
    4    8   15     -0.46      0.00
   -9    9   15      0.14      0.00
   -8    9   15      0.52      0.00
   -7    9   15      0.41      0.00
   -6    9   15      0.31      0.00
   -5    9   15      0.33      0.00
   -4    9   15     -0.04      0.00
   -3    9   15     -0.33      0.00
   -2    9   15      0.21      0.00
   -1    9   15      0.14      0.00
    0    9   15     -0.17      0.00
    1    9   15     -0.92      0.00
    2    9   15     -0.53      0.00
    3    9   15     -0.14      0.00
   -8   10   15      0.57      0.00
   -7   10   15      0.45      0.00
   -6   10   15      0.30      0.00
   -5   10   15     -0.34      0.00
   -4   10   15     -0.27      0.00
   -3   10   15      0.20      0.00
   -2   10   15      0.08      0.00
   -1   10   15     -0.21      0.00
    0   10   15     -0.79      0.00
    1   10   15     -0.31      0.00
    2   10   15      0.26      0.00
   -6   11   15     -0.56      0.00
   -5   11   15     -0.14      0.00
   -4   11   15     -0.25      0.00
   -3   11   15     -0.72      0.00
   -2   11   15     -0.75      0.00
   -1   11   15     -0.08      0.00
   -2  -13   16     -0.38      0.00
   -1  -13   16      0.65      0.00
    0  -13   16      0.37      0.00
    1  -13   16      0.26      0.00
    2  -13   16      0.17      0.00
   -5  -12   16      0.17      0.00
   -4  -12   16     -0.02      0.00
   -3  -12   16      0.90      0.00
   -2  -12   16      1.44      0.00
   -1  -12   16      0.39      0.00
    0  -12   16     -0.18      0.00
    1  -12   16     -1.13      0.00
    2  -12   16     -1.25      0.00
    3  -12   16     -1.10      0.00
    4  -12   16     -0.40      0.00
   -6  -11   16      0.80      0.00
   -5  -11   16      0.01      0.00
   -4  -11   16      0.26      0.00
   -3  -11   16      0.60      0.00
   -2  -11   16     -0.01      0.00
   -1  -11   16     -0.06      0.00
    0  -11   16     -0.88      0.00
    1  -11   16     -0.87      0.00
    2  -11   16     -0.74      0.00
    3  -11   16     -0.34      0.00
    4  -11   16      0.23      0.00
    5  -11   16      0.55      0.00
    6  -11   16      0.81      0.00
   -7  -10   16      0.63      0.00
   -6  -10   16      0.30      0.00
   -5  -10   16     -0.14      0.00
   -4  -10   16     -0.10      0.00
   -3  -10   16     -0.02      0.00
   -2  -10   16      0.40      0.00
   -1  -10   16     -0.14      0.00
    0  -10   16     -0.07      0.00
    1  -10   16      0.10      0.00
    2  -10   16      0.10      0.00
    3  -10   16     -0.25      0.00
    4  -10   16     -0.55      0.00
    5  -10   16      0.19      0.00
    6  -10   16      0.41      0.00
    7  -10   16      0.46      0.00
   -8   -9   16     -0.25      0.00
   -7   -9   16     -0.34      0.00
   -6   -9   16     -0.61      0.00
   -5   -9   16     -0.50      0.00
   -4   -9   16      0.02      0.00
   -3   -9   16      0.95      0.00
   -2   -9   16      0.85      0.00
   -1   -9   16      0.26      0.00
    0   -9   16     -0.06      0.00
    1   -9   16      0.30      0.00
    2   -9   16      0.20      0.00
    3   -9   16     -0.49      0.00
    4   -9   16      0.00      0.00
    5   -9   16      0.80      0.00
    6   -9   16      1.07      0.00
    7   -9   16     -0.45      0.00
   -9   -8   16      0.16      0.00
   -8   -8   16      0.00      0.00
   -7   -8   16     -0.31      0.00
   -6   -8   16     -0.08      0.00
   -5   -8   16      0.23      0.00
   -4   -8   16      0.81      0.00
   -3   -8   16      0.87      0.00
   -2   -8   16     -0.45      0.00
   -1   -8   16     -1.29      0.00
    0   -8   16     -0.53      0.00
    1   -8   16      0.09      0.00
    2   -8   16     -0.22      0.00
    3   -8   16     -0.30      0.00
    4   -8   16     -0.17      0.00
    5   -8   16      0.24      0.00
    6   -8   16      0.36      0.00
    7   -8   16     -0.70      0.00
    8   -8   16     -1.72      0.00
  -10   -7   16      0.23      0.00
   -9   -7   16      0.58      0.00
   -8   -7   16      0.50      0.00
   -7   -7   16      0.51      0.00
   -6   -7   16     -0.10      0.00
   -5   -7   16     -0.54      0.00
   -4   -7   16     -0.22      0.00
   -3   -7   16     -0.91      0.00
   -2   -7   16     -1.00      0.00
   -1   -7   16     -0.38      0.00
    0   -7   16     -0.80      0.00
    1   -7   16     -1.09      0.00
    2   -7   16     -0.08      0.00
    3   -7   16      0.64      0.00
    4   -7   16      0.05      0.00
    5   -7   16      0.25      0.00
    6   -7   16      0.88      0.00
    7   -7   16      0.11      0.00
    8   -7   16     -1.05      0.00
  -11   -6   16     -0.07      0.00
  -10   -6   16     -0.64      0.00
   -9   -6   16     -0.34      0.00
   -8   -6   16      0.52      0.00
   -7   -6   16     -0.01      0.00
   -6   -6   16     -0.98      0.00
   -5   -6   16     -0.24      0.00
   -4   -6   16     -0.09      0.00
   -3   -6   16      0.50      0.00
   -2   -6   16      0.96      0.00
   -1   -6   16     -0.67      0.00
    0   -6   16     -1.91      0.00
    1   -6   16     -0.97      0.00
    2   -6   16      1.06      0.00
    3   -6   16      1.41      0.00
    4   -6   16      0.71      0.00
    5   -6   16      0.08      0.00
    6   -6   16      0.12      0.00
    7   -6   16      0.41      0.00
    8   -6   16     -1.59      0.00
    9   -6   16     -2.70      0.00
  -11   -5   16     -0.31      0.00
  -10   -5   16     -0.49      0.00
   -9   -5   16      0.83      0.00
   -8   -5   16      1.11      0.00
   -7   -5   16     -0.24      0.00
   -6   -5   16     -0.27      0.00
   -5   -5   16     -0.31      0.00
   -4   -5   16      0.06      0.00
   -3   -5   16      0.54      0.00
   -2   -5   16     -0.30      0.00
   -1   -5   16     -0.69      0.00
    0   -5   16     -1.06      0.00
    1   -5   16     -1.15      0.00
    2   -5   16     -0.38      0.00
    3   -5   16      1.09      0.00
    4   -5   16      0.64      0.00
    5   -5   16     -0.73      0.00
    6   -5   16      0.10      0.00
    7   -5   16      0.02      0.00
    8   -5   16     -0.89      0.00
    9   -5   16     -0.64      0.00
  -11   -4   16     -0.23      0.00
  -10   -4   16      0.14      0.00
   -9   -4   16      0.99      0.00
   -8   -4   16      0.50      0.00
   -7   -4   16     -0.04      0.00
   -6   -4   16     -0.61      0.00
   -5   -4   16     -0.49      0.00
   -4   -4   16     -0.09      0.00
   -3   -4   16     -0.17      0.00
   -2   -4   16      0.87      0.00
   -1   -4   16      0.93      0.00
    0   -4   16     -1.02      0.00
    1   -4   16     -2.71      0.00
    2   -4   16     -1.57      0.00
    3   -4   16     -0.22      0.00
    4   -4   16     -0.50      0.00
    5   -4   16     -0.21      0.00
    6   -4   16     -0.05      0.00
    7   -4   16      0.50      0.00
    8   -4   16      1.22      0.00
    9   -4   16      1.01      0.00
  -12   -3   16     -0.57      0.00
  -11   -3   16     -0.68      0.00
  -10   -3   16     -0.17      0.00
   -9   -3   16      0.32      0.00
   -8   -3   16      0.59      0.00
   -7   -3   16      0.20      0.00
   -6   -3   16     -0.13      0.00
   -5   -3   16     -0.30      0.00
   -4   -3   16     -0.01      0.00
   -3   -3   16      1.60      0.00
   -2   -3   16      2.32      0.00
   -1   -3   16      0.37      0.00
    0   -3   16     -2.27      0.00
    1   -3   16     -2.34      0.00
    2   -3   16     -1.03      0.00
    3   -3   16      0.29      0.00
    4   -3   16      1.56      0.00
    5   -3   16      0.79      0.00
    6   -3   16     -0.25      0.00
    7   -3   16     -0.38      0.00
    8   -3   16     -0.44      0.00
    9   -3   16     -0.61      0.00
  -12   -2   16      0.41      0.00
  -11   -2   16      0.24      0.00
  -10   -2   16      0.22      0.00
   -9   -2   16      0.78      0.00
   -8   -2   16      0.86      0.00
   -7   -2   16      0.27      0.00
   -6   -2   16     -0.88      0.00
   -5   -2   16     -0.71      0.00
   -4   -2   16      0.68      0.00
   -3   -2   16      2.24      0.00
   -2   -2   16      1.33      0.00
   -1   -2   16     -0.97      0.00
    0   -2   16     -0.50      0.00
    1   -2   16      0.84      0.00
    2   -2   16      1.06      0.00
    3   -2   16      0.92      0.00
    4   -2   16      0.00      0.00
    5   -2   16     -0.70      0.00
    6   -2   16     -0.77      0.00
    7   -2   16     -0.35      0.00
    8   -2   16     -0.37      0.00
    9   -2   16      0.30      0.00
  -12   -1   16      0.76      0.00
  -11   -1   16      0.27      0.00
  -10   -1   16      0.62      0.00
   -9   -1   16      1.01      0.00
   -8   -1   16      0.87      0.00
   -7   -1   16     -0.29      0.00
   -6   -1   16     -0.35      0.00
   -5   -1   16     -1.02      0.00
   -4   -1   16     -0.07      0.00
   -3   -1   16      1.43      0.00
   -2   -1   16      0.86      0.00
   -1   -1   16      0.89      0.00
    0   -1   16      0.48      0.00
    1   -1   16     -0.89      0.00
    2   -1   16     -2.71      0.00
    3   -1   16     -3.29      0.00
    4   -1   16     -1.62      0.00
    5   -1   16      0.04      0.00
    6   -1   16      1.06      0.00
    7   -1   16      0.59      0.00
    8   -1   16     -0.48      0.00
    9   -1   16     -1.43      0.00
  -12    0   16      0.27      0.00
  -11    0   16      0.37      0.00
  -10    0   16      0.71      0.00
   -9    0   16      1.20      0.00
   -8    0   16      0.72      0.00
   -7    0   16      1.14      0.00
   -6    0   16     -0.74      0.00
   -5    0   16     -1.58      0.00
   -4    0   16      0.24      0.00
   -3    0   16      1.03      0.00
   -2    0   16      1.39      0.00
   -1    0   16     -0.02      0.00
    0    0   16     -1.00      0.00
    1    0   16     -1.87      0.00
    2    0   16     -1.77      0.00
    3    0   16      0.31      0.00
    4    0   16      1.65      0.00
    5    0   16      1.75      0.00
    6    0   16      0.33      0.00
    7    0   16     -0.73      0.00
    8    0   16     -1.49      0.00
  -12    1   16      0.93      0.00
  -11    1   16      0.67      0.00
  -10    1   16      0.75      0.00
   -9    1   16      0.62      0.00
   -8    1   16      1.48      0.00
   -7    1   16     -0.02      0.00
   -6    1   16     -1.40      0.00
   -5    1   16     -0.96      0.00
   -4    1   16     -1.55      0.00
   -3    1   16     -1.17      0.00
   -2    1   16     -0.63      0.00
   -1    1   16      1.43      0.00
    0    1   16      2.30      0.00
    1    1   16      1.67      0.00
    2    1   16      1.64      0.00
    3    1   16      1.67      0.00
    4    1   16      1.76      0.00
    5    1   16     -0.29      0.00
    6    1   16     -0.99      0.00
    7    1   16      0.06      0.00
    8    1   16      0.25      0.00
  -12    2   16      0.63      0.00
  -11    2   16      0.34      0.00
  -10    2   16      0.24      0.00
   -9    2   16      1.35      0.00
   -8    2   16      0.50      0.00
   -7    2   16     -0.90      0.00
   -6    2   16     -0.76      0.00
   -5    2   16     -1.33      0.00
   -4    2   16     -1.42      0.00
   -3    2   16     -0.78      0.00
   -2    2   16      1.68      0.00
   -1    2   16      2.88      0.00
    0    2   16      1.79      0.00
    1    2   16     -0.08      0.00
    2    2   16     -1.39      0.00
    3    2   16     -0.15      0.00
    4    2   16     -0.68      0.00
    5    2   16     -1.01      0.00
    6    2   16      0.39      0.00
    7    2   16      1.27      0.00
    8    2   16      0.28      0.00
  -12    3   16     -0.05      0.00
  -11    3   16     -0.26      0.00
  -10    3   16      0.79      0.00
   -9    3   16      0.85      0.00
   -8    3   16     -0.08      0.00
   -7    3   16     -0.03      0.00
   -6    3   16      0.57      0.00
   -5    3   16      0.76      0.00
   -4    3   16      0.09      0.00
   -3    3   16     -0.31      0.00
   -2    3   16     -0.29      0.00
   -1    3   16      0.10      0.00
    0    3   16     -0.55      0.00
    1    3   16     -2.11      0.00
    2    3   16     -1.11      0.00
    3    3   16     -0.15      0.00
    4    3   16      0.30      0.00
    5    3   16      0.29      0.00
    6    3   16     -0.03      0.00
    7    3   16      0.05      0.00
  -12    4   16     -0.35      0.00
  -11    4   16      0.71      0.00
  -10    4   16      1.44      0.00
   -9    4   16      1.04      0.00
   -8    4   16      0.10      0.00
   -7    4   16     -0.18      0.00
   -6    4   16     -0.12      0.00
   -5    4   16     -0.16      0.00
   -4    4   16     -1.12      0.00
   -3    4   16     -1.67      0.00
   -2    4   16     -0.46      0.00
   -1    4   16      0.04      0.00
    0    4   16     -0.69      0.00
    1    4   16     -0.61      0.00
    2    4   16      0.06      0.00
    3    4   16      0.84      0.00
    4    4   16      0.58      0.00
    5    4   16     -0.70      0.00
    6    4   16     -0.77      0.00
    7    4   16      0.36      0.00
  -12    5   16      0.48      0.00
  -11    5   16      0.84      0.00
  -10    5   16      0.78      0.00
   -9    5   16      0.03      0.00
   -8    5   16     -0.78      0.00
   -7    5   16     -1.01      0.00
   -6    5   16     -0.42      0.00
   -5    5   16     -0.64      0.00
   -4    5   16     -0.85      0.00
   -3    5   16      0.60      0.00
   -2    5   16      1.20      0.00
   -1    5   16      1.22      0.00
    0    5   16      1.07      0.00
    1    5   16      0.79      0.00
    2    5   16      0.29      0.00
    3    5   16      0.22      0.00
    4    5   16      0.23      0.00
    5    5   16     -0.11      0.00
    6    5   16      0.23      0.00
  -11    6   16     -0.93      0.00
  -10    6   16     -0.53      0.00
   -9    6   16     -0.33      0.00
   -8    6   16     -0.24      0.00
   -7    6   16     -0.29      0.00
   -6    6   16     -0.78      0.00
   -5    6   16     -0.78      0.00
   -4    6   16      0.95      0.00
   -3    6   16      1.64      0.00
   -2    6   16      1.26      0.00
   -1    6   16      0.67      0.00
    0    6   16      0.53      0.00
    1    6   16     -0.43      0.00
    2    6   16     -1.10      0.00
    3    6   16     -0.24      0.00
    4    6   16      0.15      0.00
    5    6   16      0.81      0.00
    6    6   16      0.79      0.00
  -11    7   16     -0.16      0.00
  -10    7   16      0.07      0.00
   -9    7   16      0.55      0.00
   -8    7   16      0.21      0.00
   -7    7   16     -0.19      0.00
   -6    7   16     -0.20      0.00
   -5    7   16      0.54      0.00
   -4    7   16      0.86      0.00
   -3    7   16      0.03      0.00
   -2    7   16     -0.84      0.00
   -1    7   16     -0.52      0.00
    0    7   16     -0.29      0.00
    1    7   16     -0.63      0.00
    2    7   16     -0.31      0.00
    3    7   16     -0.51      0.00
    4    7   16      0.03      0.00
    5    7   16      0.10      0.00
  -10    8   16      0.78      0.00
   -9    8   16      0.22      0.00
   -8    8   16     -0.11      0.00
   -7    8   16      0.01      0.00
   -6    8   16     -0.13      0.00
   -5    8   16      0.13      0.00
   -4    8   16      0.06      0.00
   -3    8   16     -0.02      0.00
   -2    8   16     -0.04      0.00
   -1    8   16      0.24      0.00
    0    8   16      0.33      0.00
    1    8   16      0.45      0.00
    2    8   16      0.19      0.00
    3    8   16      0.03      0.00
    4    8   16     -0.43      0.00
   -9    9   16     -0.23      0.00
   -8    9   16      0.24      0.00
   -7    9   16      0.17      0.00
   -6    9   16      0.32      0.00
   -5    9   16      0.12      0.00
   -4    9   16      0.10      0.00
   -3    9   16     -0.25      0.00
   -2    9   16      0.24      0.00
   -1    9   16      0.61      0.00
    0    9   16      0.04      0.00
    1    9   16     -0.05      0.00
    2    9   16     -0.06      0.00
   -7   10   16      0.68      0.00
   -6   10   16      0.13      0.00
   -5   10   16     -0.22      0.00
   -4   10   16     -0.55      0.00
   -3   10   16      0.35      0.00
   -2   10   16      0.90      0.00
   -1   10   16     -0.16      0.00
    0   10   16     -0.43      0.00
    1   10   16     -0.54      0.00
   -5   11   16     -0.56      0.00
   -4   11   16      0.09      0.00
   -3   11   16      0.04      0.00
   -1  -13   17     -0.44      0.00
    0  -13   17     -0.28      0.00
    1  -13   17     -0.25      0.00
   -4  -12   17     -0.04      0.00
   -3  -12   17      0.49      0.00
   -2  -12   17      1.02      0.00
   -1  -12   17      0.62      0.00
    0  -12   17     -0.18      0.00
    1  -12   17     -0.32      0.00
    2  -12   17     -0.72      0.00
    3  -12   17     -0.58      0.00
    4  -12   17      0.19      0.00
   -6  -11   17      0.42      0.00
   -5  -11   17     -0.22      0.00
   -4  -11   17     -0.03      0.00
   -3  -11   17      0.69      0.00
   -2  -11   17      0.51      0.00
   -1  -11   17     -0.17      0.00
    0  -11   17     -0.50      0.00
    1  -11   17     -1.20      0.00
    2  -11   17     -0.84      0.00
    3  -11   17     -0.21      0.00
    4  -11   17      0.06      0.00
    5  -11   17      0.60      0.00
   -7  -10   17      0.97      0.00
   -6  -10   17      0.25      0.00
   -5  -10   17     -0.39      0.00
   -4  -10   17      0.08      0.00
   -3  -10   17      0.27      0.00
   -2  -10   17     -0.16      0.00
   -1  -10   17     -0.35      0.00
    0  -10   17     -0.74      0.00
    1  -10   17     -0.02      0.00
    2  -10   17      0.04      0.00
    3  -10   17     -0.43      0.00
    4  -10   17     -0.21      0.00
    5  -10   17      0.02      0.00
    6  -10   17     -0.06      0.00
   -8   -9   17      0.40      0.00
   -7   -9   17      0.04      0.00
   -6   -9   17     -0.63      0.00
   -5   -9   17     -0.60      0.00
   -4   -9   17     -0.17      0.00
   -3   -9   17      0.05      0.00
   -2   -9   17      0.33      0.00
   -1   -9   17     -0.13      0.00
    0   -9   17      0.30      0.00
    1   -9   17      0.21      0.00
    2   -9   17     -0.30      0.00
    3   -9   17     -0.38      0.00
    4   -9   17      0.14      0.00
    5   -9   17      0.98      0.00
    6   -9   17      0.70      0.00
    7   -9   17     -0.68      0.00
   -9   -8   17      0.19      0.00
   -8   -8   17     -0.25      0.00
   -7   -8   17     -0.59      0.00
   -6   -8   17     -0.51      0.00
   -5   -8   17      0.05      0.00
   -4   -8   17      0.60      0.00
   -3   -8   17      1.02      0.00
   -2   -8   17     -0.10      0.00
   -1   -8   17     -0.63      0.00
    0   -8   17     -0.30      0.00
    1   -8   17      0.19      0.00
    2   -8   17      0.02      0.00
    3   -8   17     -0.31      0.00
    4   -8   17      0.53      0.00
    5   -8   17      1.16      0.00
    6   -8   17      0.47      0.00
    7   -8   17     -1.55      0.00
  -10   -7   17      0.34      0.00
   -9   -7   17      0.55      0.00
   -8   -7   17      0.42      0.00
   -7   -7   17      0.21      0.00
   -6   -7   17      0.20      0.00
   -5   -7   17     -0.03      0.00
   -4   -7   17      0.04      0.00
   -3   -7   17     -0.90      0.00
   -2   -7   17     -1.42      0.00
   -1   -7   17     -0.83      0.00
    0   -7   17     -0.35      0.00
    1   -7   17     -0.46      0.00
    2   -7   17     -0.59      0.00
    3   -7   17     -0.21      0.00
    4   -7   17     -0.15      0.00
    5   -7   17      0.67      0.00
    6   -7   17      1.05      0.00
    7   -7   17     -0.36      0.00
    8   -7   17     -1.42      0.00
  -10   -6   17     -0.12      0.00
   -9   -6   17      0.07      0.00
   -8   -6   17      0.31      0.00
   -7   -6   17      0.10      0.00
   -6   -6   17     -0.60      0.00
   -5   -6   17     -0.39      0.00
   -4   -6   17     -0.35      0.00
   -3   -6   17     -0.27      0.00
   -2   -6   17      0.41      0.00
   -1   -6   17     -0.33      0.00
    0   -6   17     -1.49      0.00
    1   -6   17     -0.91      0.00
    2   -6   17      0.82      0.00
    3   -6   17      0.75      0.00
    4   -6   17      0.08      0.00
    5   -6   17      0.56      0.00
    6   -6   17      0.73      0.00
    7   -6   17      0.14      0.00
    8   -6   17     -1.01      0.00
  -11   -5   17     -0.43      0.00
  -10   -5   17     -0.59      0.00
   -9   -5   17      0.52      0.00
   -8   -5   17      0.79      0.00
   -7   -5   17     -0.32      0.00
   -6   -5   17     -0.50      0.00
   -5   -5   17      0.03      0.00
   -4   -5   17      0.07      0.00
   -3   -5   17      0.86      0.00
   -2   -5   17      0.37      0.00
   -1   -5   17     -1.01      0.00
    0   -5   17     -1.40      0.00
    1   -5   17     -0.47      0.00
    2   -5   17      0.64      0.00
    3   -5   17      0.91      0.00
    4   -5   17      0.22      0.00
    5   -5   17     -0.75      0.00
    6   -5   17      0.05      0.00
    7   -5   17      0.32      0.00
    8   -5   17     -1.59      0.00
  -11   -4   17     -0.41      0.00
  -10   -4   17      0.34      0.00
   -9   -4   17      1.08      0.00
   -8   -4   17      0.25      0.00
   -7   -4   17     -0.74      0.00
   -6   -4   17     -0.40      0.00
   -5   -4   17     -0.53      0.00
   -4   -4   17      0.13      0.00
   -3   -4   17      0.34      0.00
   -2   -4   17      0.11      0.00
   -1   -4   17     -0.10      0.00
    0   -4   17     -1.20      0.00
    1   -4   17     -1.54      0.00
    2   -4   17     -0.55      0.00
    3   -4   17      0.23      0.00
    4   -4   17     -0.88      0.00
    5   -4   17     -0.87      0.00
    6   -4   17      0.24      0.00
    7   -4   17     -0.04      0.00
    8   -4   17      0.71      0.00
  -12   -3   17     -0.67      0.00
  -11   -3   17     -0.54      0.00
  -10   -3   17      0.11      0.00
   -9   -3   17      0.32      0.00
   -8   -3   17     -0.44      0.00
   -7   -3   17     -0.19      0.00
   -6   -3   17     -0.47      0.00
   -5   -3   17     -0.34      0.00
   -4   -3   17      0.06      0.00
   -3   -3   17      0.75      0.00
   -2   -3   17      1.44      0.00
   -1   -3   17     -0.25      0.00
    0   -3   17     -2.08      0.00
    1   -3   17     -2.39      0.00
    2   -3   17     -1.07      0.00
    3   -3   17     -0.19      0.00
    4   -3   17      0.51      0.00
    5   -3   17      0.77      0.00
    6   -3   17     -0.37      0.00
    7   -3   17     -0.21      0.00
    8   -3   17     -0.16      0.00
  -12   -2   17     -0.13      0.00
  -11   -2   17     -0.03      0.00
  -10   -2   17      0.43      0.00
   -9   -2   17      0.17      0.00
   -8   -2   17      0.43      0.00
   -7   -2   17     -0.10      0.00
   -6   -2   17     -0.72      0.00
   -5   -2   17     -0.60      0.00
   -4   -2   17      0.66      0.00
   -3   -2   17      2.24      0.00
   -2   -2   17      0.71      0.00
   -1   -2   17     -1.31      0.00
    0   -2   17     -1.23      0.00
    1   -2   17      0.67      0.00
    2   -2   17      1.55      0.00
    3   -2   17      1.68      0.00
    4   -2   17      1.28      0.00
    5   -2   17     -0.67      0.00
    6   -2   17     -1.15      0.00
    7   -2   17     -1.32      0.00
    8   -2   17     -0.94      0.00
  -12   -1   17      0.57      0.00
  -11   -1   17      0.44      0.00
  -10   -1   17      0.39      0.00
   -9   -1   17      0.86      0.00
   -8   -1   17      0.38      0.00
   -7   -1   17     -0.40      0.00
   -6   -1   17     -0.83      0.00
   -5   -1   17     -0.65      0.00
   -4   -1   17      0.66      0.00
   -3   -1   17      1.00      0.00
   -2   -1   17      0.24      0.00
   -1   -1   17      0.23      0.00
    0   -1   17      1.40      0.00
    1   -1   17      0.70      0.00
    2   -1   17     -0.83      0.00
    3   -1   17     -1.28      0.00
    4   -1   17     -1.87      0.00
    5   -1   17     -0.74      0.00
    6   -1   17      0.21      0.00
    7   -1   17      0.38      0.00
    8   -1   17     -0.18      0.00
  -12    0   17      0.16      0.00
  -11    0   17     -0.16      0.00
  -10    0   17      0.66      0.00
   -9    0   17      0.86      0.00
   -8    0   17      0.59      0.00
   -7    0   17      0.10      0.00
   -6    0   17     -0.79      0.00
   -5    0   17     -1.23      0.00
   -4    0   17      0.28      0.00
   -3    0   17      1.39      0.00
   -2    0   17      1.25      0.00
   -1    0   17      0.97      0.00
    0    0   17     -0.85      0.00
    1    0   17     -2.21      0.00
    2    0   17     -1.79      0.00
    3    0   17     -1.03      0.00
    4    0   17      0.57      0.00
    5    0   17      1.05      0.00
    6    0   17      0.86      0.00
    7    0   17     -0.29      0.00
    8    0   17     -1.68      0.00
  -12    1   17      0.39      0.00
  -11    1   17      0.64      0.00
  -10    1   17      0.63      0.00
   -9    1   17      0.69      0.00
   -8    1   17      0.60      0.00
   -7    1   17      0.13      0.00
   -6    1   17     -1.04      0.00
   -5    1   17     -0.31      0.00
   -4    1   17     -0.05      0.00
   -3    1   17     -0.45      0.00
   -2    1   17      0.70      0.00
   -1    1   17      0.95      0.00
    0    1   17      0.93      0.00
    1    1   17      0.50      0.00
    2    1   17      0.74      0.00
    3    1   17      2.22      0.00
    4    1   17      1.58      0.00
    5    1   17      0.05      0.00
    6    1   17     -0.70      0.00
    7    1   17     -0.56      0.00
    8    1   17     -0.38      0.00
  -12    2   17      0.70      0.00
  -11    2   17      0.32      0.00
  -10    2   17      0.42      0.00
   -9    2   17      0.84      0.00
   -8    2   17      0.77      0.00
   -7    2   17     -0.65      0.00
   -6    2   17     -0.50      0.00
   -5    2   17     -0.95      0.00
   -4    2   17     -2.02      0.00
   -3    2   17     -0.22      0.00
   -2    2   17      1.76      0.00
   -1    2   17      3.08      0.00
    0    2   17      1.40      0.00
    1    2   17     -0.19      0.00
    2    2   17      0.58      0.00
    3    2   17      0.53      0.00
    4    2   17     -0.50      0.00
    5    2   17     -1.29      0.00
    6    2   17      0.31      0.00
    7    2   17      1.58      0.00
  -12    3   17      0.13      0.00
  -11    3   17      0.09      0.00
  -10    3   17      0.64      0.00
   -9    3   17      0.59      0.00
   -8    3   17     -0.85      0.00
   -7    3   17     -0.62      0.00
   -6    3   17      0.26      0.00
   -5    3   17     -0.08      0.00
   -4    3   17      0.26      0.00
   -3    3   17      0.41      0.00
   -2    3   17      1.50      0.00
   -1    3   17      0.75      0.00
    0    3   17     -0.56      0.00
    1    3   17     -1.06      0.00
    2    3   17     -1.26      0.00
    3    3   17     -0.32      0.00
    4    3   17     -0.66      0.00
    5    3   17      0.08      0.00
    6    3   17      0.91      0.00
    7    3   17      0.45      0.00
  -12    4   17     -0.35      0.00
  -11    4   17      0.46      0.00
  -10    4   17      0.88      0.00
   -9    4   17     -0.01      0.00
   -8    4   17     -0.59      0.00
   -7    4   17      0.04      0.00
   -6    4   17      0.56      0.00
   -5    4   17      0.56      0.00
   -4    4   17     -0.39      0.00
   -3    4   17     -0.36      0.00
   -2    4   17     -0.46      0.00
   -1    4   17     -0.72      0.00
    0    4   17     -1.42      0.00
    1    4   17     -2.08      0.00
    2    4   17     -0.28      0.00
    3    4   17      0.22      0.00
    4    4   17      0.20      0.00
    5    4   17     -0.46      0.00
    6    4   17     -0.69      0.00
  -11    5   17      1.28      0.00
  -10    5   17      1.05      0.00
   -9    5   17     -0.19      0.00
   -8    5   17     -1.10      0.00
   -7    5   17     -0.75      0.00
   -6    5   17     -0.25      0.00
   -5    5   17     -0.51      0.00
   -4    5   17     -0.80      0.00
   -3    5   17     -0.57      0.00
   -2    5   17     -0.09      0.00
   -1    5   17      0.02      0.00
    0    5   17     -0.22      0.00
    1    5   17      0.73      0.00
    2    5   17      0.73      0.00
    3    5   17      0.81      0.00
    4    5   17      0.25      0.00
    5    5   17     -0.68      0.00
    6    5   17     -0.30      0.00
  -11    6   17     -0.25      0.00
  -10    6   17     -0.45      0.00
   -9    6   17     -0.97      0.00
   -8    6   17     -0.77      0.00
   -7    6   17     -0.72      0.00
   -6    6   17     -0.94      0.00
   -5    6   17     -1.13      0.00
   -4    6   17     -0.07      0.00
   -3    6   17      1.13      0.00
   -2    6   17      1.35      0.00
   -1    6   17      1.13      0.00
    0    6   17      1.00      0.00
    1    6   17      0.13      0.00
    2    6   17     -0.21      0.00
    3    6   17      0.19      0.00
    4    6   17     -0.15      0.00
    5    6   17     -0.03      0.00
  -10    7   17     -0.10      0.00
   -9    7   17      0.48      0.00
   -8    7   17      0.20      0.00
   -7    7   17     -0.35      0.00
   -6    7   17     -0.48      0.00
   -5    7   17      0.39      0.00
   -4    7   17      1.04      0.00
   -3    7   17      0.40      0.00
   -2    7   17     -0.26      0.00
   -1    7   17     -0.37      0.00
    0    7   17     -0.50      0.00
    1    7   17     -1.10      0.00
    2    7   17     -0.80      0.00
    3    7   17     -0.84      0.00
    4    7   17     -0.65      0.00
   -9    8   17      0.56      0.00
   -8    8   17     -0.25      0.00
   -7    8   17     -0.29      0.00
   -6    8   17      0.05      0.00
   -5    8   17      0.43      0.00
   -4    8   17      0.24      0.00
   -3    8   17     -0.14      0.00
   -2    8   17     -0.16      0.00
   -1    8   17      0.05      0.00
    0    8   17     -0.44      0.00
    1    8   17     -0.20      0.00
    2    8   17     -0.17      0.00
    3    8   17     -0.48      0.00
   -8    9   17     -0.34      0.00
   -7    9   17     -0.19      0.00
   -6    9   17      0.07      0.00
   -5    9   17      0.37      0.00
   -4    9   17      0.09      0.00
   -3    9   17      0.00      0.00
   -2    9   17      0.17      0.00
   -1    9   17      0.07      0.00
    0    9   17      0.16      0.00
    1    9   17      0.26      0.00
   -7   10   17      0.42      0.00
   -6   10   17      0.25      0.00
   -5   10   17     -0.41      0.00
   -4   10   17     -0.30      0.00
   -3   10   17      0.15      0.00
   -2   10   17      0.66      0.00
   -1   10   17      0.18      0.00
   -3  -12   18      0.11      0.00
   -2  -12   18      0.53      0.00
   -1  -12   18     -0.23      0.00
    0  -12   18     -0.09      0.00
    1  -12   18      0.11      0.00
    2  -12   18      0.11      0.00
    3  -12   18      0.20      0.00
   -5  -11   18     -0.39      0.00
   -4  -11   18     -0.16      0.00
   -3  -11   18      0.45      0.00
   -2  -11   18      0.18      0.00
   -1  -11   18      0.17      0.00
    0  -11   18     -0.19      0.00
    1  -11   18     -0.67      0.00
    2  -11   18     -0.69      0.00
    3  -11   18     -0.08      0.00
    4  -11   18      0.37      0.00
   -7  -10   18      0.50      0.00
   -6  -10   18     -0.08      0.00
   -5  -10   18     -0.49      0.00
   -4  -10   18      0.14      0.00
   -3  -10   18      0.42      0.00
   -2  -10   18      0.03      0.00
   -1  -10   18     -0.60      0.00
    0  -10   18     -0.64      0.00
    1  -10   18     -0.17      0.00
    2  -10   18      0.12      0.00
    3  -10   18     -0.11      0.00
    4  -10   18     -0.26      0.00
    5  -10   18      0.03      0.00
   -8   -9   18      0.59      0.00
   -7   -9   18      0.44      0.00
   -6   -9   18     -0.48      0.00
   -5   -9   18     -0.49      0.00
   -4   -9   18     -0.03      0.00
   -3   -9   18     -0.34      0.00
   -2   -9   18     -0.72      0.00
   -1   -9   18     -0.40      0.00
    0   -9   18      0.12      0.00
    1   -9   18      0.19      0.00
    2   -9   18     -0.37      0.00
    3   -9   18     -0.55      0.00
    4   -9   18      0.14      0.00
    5   -9   18      0.29      0.00
    6   -9   18     -0.22      0.00
   -9   -8   18      0.07      0.00
   -8   -8   18     -0.03      0.00
   -7   -8   18     -0.69      0.00
   -6   -8   18     -0.78      0.00
   -5   -8   18     -0.17      0.00
   -4   -8   18      0.14      0.00
   -3   -8   18      0.40      0.00
   -2   -8   18      0.29      0.00
   -1   -8   18     -0.18      0.00
    0   -8   18      0.02      0.00
    1   -8   18      0.10      0.00
    2   -8   18     -0.13      0.00
    3   -8   18      0.14      0.00
    4   -8   18      1.09      0.00
    5   -8   18      1.41      0.00
    6   -8   18      0.07      0.00
    7   -8   18     -1.81      0.00
   -9   -7   18      0.43      0.00
   -8   -7   18      0.06      0.00
   -7   -7   18     -0.09      0.00
   -6   -7   18      0.18      0.00
   -5   -7   18      0.11      0.00
   -4   -7   18      0.15      0.00
   -3   -7   18     -0.30      0.00
   -2   -7   18     -1.20      0.00
   -1   -7   18     -0.67      0.00
    0   -7   18     -0.07      0.00
    1   -7   18     -0.28      0.00
    2   -7   18     -0.74      0.00
    3   -7   18     -0.52      0.00
    4   -7   18      0.17      0.00
    5   -7   18      1.00      0.00
    6   -7   18      0.69      0.00
    7   -7   18     -1.02      0.00
  -10   -6   18      0.38      0.00
   -9   -6   18      0.33      0.00
   -8   -6   18      0.23      0.00
   -7   -6   18      0.17      0.00
   -6   -6   18     -0.25      0.00
   -5   -6   18     -0.38      0.00
   -4   -6   18     -0.53      0.00
   -3   -6   18     -0.90      0.00
   -2   -6   18     -0.11      0.00
   -1   -6   18     -0.17      0.00
    0   -6   18     -1.02      0.00
    1   -6   18     -0.98      0.00
    2   -6   18     -0.13      0.00
    3   -6   18     -0.12      0.00
    4   -6   18     -0.01      0.00
    5   -6   18      1.09      0.00
    6   -6   18      0.95      0.00
    7   -6   18      0.13      0.00
    8   -6   18     -0.43      0.00
  -11   -5   18     -0.36      0.00
  -10   -5   18     -0.42      0.00
   -9   -5   18      0.20      0.00
   -8   -5   18      0.36      0.00
   -7   -5   18     -0.32      0.00
   -6   -5   18     -0.39      0.00
   -5   -5   18     -0.05      0.00
   -4   -5   18     -0.13      0.00
   -3   -5   18      0.74      0.00
   -2   -5   18      0.62      0.00
   -1   -5   18     -0.86      0.00
    0   -5   18     -1.40      0.00
    1   -5   18     -0.26      0.00
    2   -5   18      0.76      0.00
    3   -5   18      0.61      0.00
    4   -5   18      0.12      0.00
    5   -5   18     -0.32      0.00
    6   -5   18      0.34      0.00
    7   -5   18      0.34      0.00
    8   -5   18     -0.93      0.00
  -11   -4   18     -0.44      0.00
  -10   -4   18      0.26      0.00
   -9   -4   18      0.79      0.00
   -8   -4   18     -0.21      0.00
   -7   -4   18     -0.77      0.00
   -6   -4   18     -0.36      0.00
   -5   -4   18     -0.24      0.00
   -4   -4   18      0.32      0.00
   -3   -4   18      0.67      0.00
   -2   -4   18     -0.25      0.00
   -1   -4   18     -1.04      0.00
    0   -4   18     -1.08      0.00
    1   -4   18     -0.48      0.00
    2   -4   18      0.54      0.00
    3   -4   18      0.62      0.00
    4   -4   18     -0.79      0.00
    5   -4   18     -0.76      0.00
    6   -4   18      0.18      0.00
    7   -4   18     -0.01      0.00
    8   -4   18     -0.05      0.00
  -11   -3   18     -0.24      0.00
  -10   -3   18      0.56      0.00
   -9   -3   18     -0.12      0.00
   -8   -3   18     -0.93      0.00
   -7   -3   18     -0.80      0.00
   -6   -3   18     -0.39      0.00
   -5   -3   18     -0.41      0.00
   -4   -3   18      0.13      0.00
   -3   -3   18      0.12      0.00
   -2   -3   18     -0.04      0.00
   -1   -3   18     -0.53      0.00
    0   -3   18     -1.57      0.00
    1   -3   18     -1.45      0.00
    2   -3   18     -0.79      0.00
    3   -3   18     -0.72      0.00
    4   -3   18     -0.21      0.00
    5   -3   18      0.35      0.00
    6   -3   18      0.07      0.00
    7   -3   18     -0.23      0.00
    8   -3   18      0.51      0.00
  -12   -2   18     -0.54      0.00
  -11   -2   18      0.18      0.00
  -10   -2   18      0.27      0.00
   -9   -2   18     -0.11      0.00
   -8   -2   18     -0.46      0.00
   -7   -2   18     -0.03      0.00
   -6   -2   18     -0.74      0.00
   -5   -2   18     -0.40      0.00
   -4   -2   18      0.61      0.00
   -3   -2   18      1.27      0.00
   -2   -2   18      0.44      0.00
   -1   -2   18     -1.61      0.00
    0   -2   18     -1.27      0.00
    1   -2   18     -0.05      0.00
    2   -2   18      0.67      0.00
    3   -2   18      1.22      0.00
    4   -2   18      1.05      0.00
    5   -2   18     -0.02      0.00
    6   -2   18     -1.40      0.00
    7   -2   18     -1.61      0.00
    8   -2   18     -1.06      0.00
  -12   -1   18      0.36      0.00
  -11   -1   18      0.48      0.00
  -10   -1   18      0.73      0.00
   -9   -1   18      0.27      0.00
   -8   -1   18      0.50      0.00
   -7   -1   18     -0.52      0.00
   -6   -1   18     -0.75      0.00
   -5   -1   18     -0.05      0.00
   -4   -1   18      0.93      0.00
   -3   -1   18      1.02      0.00
   -2   -1   18     -0.79      0.00
   -1   -1   18      0.03      0.00
    0   -1   18      1.40      0.00
    1   -1   18      1.48      0.00
    2   -1   18      0.71      0.00
    3   -1   18     -0.33      0.00
    4   -1   18     -1.02      0.00
    5   -1   18     -1.47      0.00
    6   -1   18     -0.67      0.00
    7   -1   18     -0.24      0.00
    8   -1   18      0.17      0.00
  -12    0   18     -0.09      0.00
  -11    0   18     -0.08      0.00
  -10    0   18      0.11      0.00
   -9    0   18      0.93      0.00
   -8    0   18      0.26      0.00
   -7    0   18     -0.28      0.00
   -6    0   18     -0.71      0.00
   -5    0   18     -0.75      0.00
   -4    0   18      0.49      0.00
   -3    0   18      0.50      0.00
   -2    0   18      1.23      0.00
   -1    0   18      1.02      0.00
    0    0   18     -0.14      0.00
    1    0   18     -1.12      0.00
    2    0   18     -1.34      0.00
    3    0   18     -0.89      0.00
    4    0   18     -0.98      0.00
    5    0   18      0.48      0.00
    6    0   18      1.11      0.00
    7    0   18      0.24      0.00
  -12    1   18      0.05      0.00
  -11    1   18      0.02      0.00
  -10    1   18      0.73      0.00
   -9    1   18      0.25      0.00
   -8    1   18     -0.07      0.00
   -7    1   18     -0.32      0.00
   -6    1   18     -0.62      0.00
   -5    1   18      0.27      0.00
   -4    1   18      0.48      0.00
   -3    1   18      0.83      0.00
   -2    1   18      0.97      0.00
   -1    1   18      0.72      0.00
    0    1   18     -0.14      0.00
    1    1   18     -0.56      0.00
    2    1   18      0.54      0.00
    3    1   18      0.83      0.00
    4    1   18      1.28      0.00
    5    1   18      0.49      0.00
    6    1   18     -0.34      0.00
    7    1   18     -0.89      0.00
  -12    2   18      0.22      0.00
  -11    2   18      0.30      0.00
  -10    2   18     -0.23      0.00
   -9    2   18      0.06      0.00
   -8    2   18      0.30      0.00
   -7    2   18      0.09      0.00
   -6    2   18      0.16      0.00
   -5    2   18     -0.41      0.00
   -4    2   18     -1.18      0.00
   -3    2   18     -0.21      0.00
   -2    2   18      1.77      0.00
   -1    2   18      1.67      0.00
    0    2   18      0.01      0.00
    1    2   18     -0.16      0.00
    2    2   18      0.70      0.00
    3    2   18      1.44      0.00
    4    2   18     -0.25      0.00
    5    2   18     -1.15      0.00
    6    2   18      0.14      0.00
    7    2   18      0.99      0.00
  -12    3   18      0.23      0.00
  -11    3   18     -0.18      0.00
  -10    3   18      0.26      0.00
   -9    3   18      0.08      0.00
   -8    3   18     -0.66      0.00
   -7    3   18     -0.64      0.00
   -6    3   18     -0.08      0.00
   -5    3   18     -0.70      0.00
   -4    3   18     -0.57      0.00
   -3    3   18      1.02      0.00
   -2    3   18      1.48      0.00
   -1    3   18      0.74      0.00
    0    3   18     -0.05      0.00
    1    3   18     -0.14      0.00
    2    3   18      0.20      0.00
    3    3   18     -0.48      0.00
    4    3   18     -0.90      0.00
    5    3   18      0.19      0.00
    6    3   18      1.27      0.00
  -11    4   18      0.06      0.00
  -10    4   18     -0.05      0.00
   -9    4   18     -0.93      0.00
   -8    4   18     -1.07      0.00
   -7    4   18      0.21      0.00
   -6    4   18      0.67      0.00
   -5    4   18      0.33      0.00
   -4    4   18      0.66      0.00
   -3    4   18      0.59      0.00
   -2    4   18      0.40      0.00
   -1    4   18     -0.45      0.00
    0    4   18     -1.23      0.00
    1    4   18     -1.63      0.00
    2    4   18     -1.11      0.00
    3    4   18     -0.38      0.00
    4    4   18     -0.37      0.00
    5    4   18     -0.15      0.00
    6    4   18     -0.12      0.00
  -11    5   18      1.04      0.00
  -10    5   18      0.56      0.00
   -9    5   18     -0.45      0.00
   -8    5   18     -0.78      0.00
   -7    5   18     -0.09      0.00
   -6    5   18      0.18      0.00
   -5    5   18      0.22      0.00
   -4    5   18     -0.30      0.00
   -3    5   18     -0.60      0.00
   -2    5   18     -1.11      0.00
   -1    5   18     -1.23      0.00
    0    5   18     -1.14      0.00
    1    5   18     -0.26      0.00
    2    5   18      0.70      0.00
    3    5   18      0.30      0.00
    4    5   18      0.07      0.00
    5    5   18     -0.57      0.00
  -10    6   18     -0.22      0.00
   -9    6   18     -1.38      0.00
   -8    6   18     -1.08      0.00
   -7    6   18     -0.48      0.00
   -6    6   18     -0.60      0.00
   -5    6   18     -1.18      0.00
   -4    6   18     -0.90      0.00
   -3    6   18      0.08      0.00
   -2    6   18      0.76      0.00
   -1    6   18      0.92      0.00
    0    6   18      0.84      0.00
    1    6   18      0.86      0.00
    2    6   18      0.51      0.00
    3    6   18      0.69      0.00
    4    6   18     -0.25      0.00
  -10    7   18     -0.40      0.00
   -9    7   18     -0.03      0.00
   -8    7   18      0.30      0.00
   -7    7   18     -0.05      0.00
   -6    7   18     -0.37      0.00
   -5    7   18     -0.16      0.00
   -4    7   18      0.72      0.00
   -3    7   18      0.61      0.00
   -2    7   18      0.31      0.00
   -1    7   18     -0.16      0.00
    0    7   18     -0.47      0.00
    1    7   18     -0.60      0.00
    2    7   18     -0.44      0.00
    3    7   18     -1.05      0.00
   -9    8   18      0.92      0.00
   -8    8   18      0.12      0.00
   -7    8   18     -0.04      0.00
   -6    8   18      0.24      0.00
   -5    8   18      0.75      0.00
   -4    8   18      0.22      0.00
   -3    8   18      0.03      0.00
   -2    8   18     -0.23      0.00
   -1    8   18     -0.51      0.00
    0    8   18     -0.56      0.00
    1    8   18     -0.74      0.00
    2    8   18     -0.80      0.00
   -8    9   18     -0.76      0.00
   -7    9   18     -0.40      0.00
   -6    9   18      0.15      0.00
   -5    9   18      0.30      0.00
   -4    9   18      0.44      0.00
   -3    9   18      0.02      0.00
   -2    9   18     -0.31      0.00
   -1    9   18     -0.15      0.00
    0    9   18     -0.36      0.00
   -5   10   18      0.03      0.00
   -4   10   18     -0.37      0.00
   -3   10   18     -0.19      0.00
   -2   10   18      0.23      0.00
   -2  -12   19     -0.14      0.00
   -1  -12   19     -0.59      0.00
    0  -12   19     -0.74      0.00
    1  -12   19      0.46      0.00
   -5  -11   19     -0.21      0.00
   -4  -11   19     -0.15      0.00
   -3  -11   19     -0.20      0.00
   -2  -11   19     -0.24      0.00
   -1  -11   19     -0.27      0.00
    0  -11   19      0.50      0.00
    1  -11   19     -0.22      0.00
    2  -11   19     -0.49      0.00
    3  -11   19      0.38      0.00
    4  -11   19      0.72      0.00
   -6  -10   19     -0.47      0.00
   -5  -10   19     -0.43      0.00
   -4  -10   19     -0.13      0.00
   -3  -10   19      0.26      0.00
   -2  -10   19     -0.09      0.00
   -1  -10   19      0.09      0.00
    0  -10   19     -0.34      0.00
    1  -10   19     -0.06      0.00
    2  -10   19      0.42      0.00
    3  -10   19      0.09      0.00
    4  -10   19      0.06      0.00
    5  -10   19      0.19      0.00
   -7   -9   19      0.36      0.00
   -6   -9   19     -0.09      0.00
   -5   -9   19     -0.21      0.00
   -4   -9   19      0.25      0.00
   -3   -9   19     -0.50      0.00
   -2   -9   19     -0.95      0.00
   -1   -9   19     -0.83      0.00
    0   -9   19      0.12      0.00
    1   -9   19      0.41      0.00
    2   -9   19     -0.39      0.00
    3   -9   19     -0.42      0.00
    4   -9   19     -0.17      0.00
    5   -9   19     -0.45      0.00
    6   -9   19     -1.04      0.00
   -8   -8   19      0.06      0.00
   -7   -8   19     -0.26      0.00
   -6   -8   19     -0.77      0.00
   -5   -8   19     -0.22      0.00
   -4   -8   19     -0.23      0.00
   -3   -8   19     -0.23      0.00
   -2   -8   19     -0.07      0.00
   -1   -8   19      0.21      0.00
    0   -8   19      0.20      0.00
    1   -8   19     -0.21      0.00
    2   -8   19     -0.02      0.00
    3   -8   19      0.32      0.00
    4   -8   19      1.05      0.00
    5   -8   19      0.92      0.00
    6   -8   19     -0.47      0.00
   -9   -7   19      0.04      0.00
   -8   -7   19      0.00      0.00
   -7   -7   19     -0.48      0.00
   -6   -7   19     -0.07      0.00
   -5   -7   19      0.03      0.00
   -4   -7   19      0.13      0.00
   -3   -7   19      0.19      0.00
   -2   -7   19     -0.25      0.00
   -1   -7   19     -0.32      0.00
    0   -7   19     -0.13      0.00
    1   -7   19     -0.05      0.00
    2   -7   19     -0.59      0.00
    3   -7   19     -0.21      0.00
    4   -7   19      0.63      0.00
    5   -7   19      0.71      0.00
    6   -7   19      0.07      0.00
    7   -7   19     -0.99      0.00
  -10   -6   19      0.58      0.00
   -9   -6   19      0.60      0.00
   -8   -6   19      0.04      0.00
   -7   -6   19      0.16      0.00
   -6   -6   19      0.00      0.00
   -5   -6   19     -0.40      0.00
   -4   -6   19     -0.45      0.00
   -3   -6   19     -0.73      0.00
   -2   -6   19     -0.42      0.00
   -1   -6   19     -0.18      0.00
    0   -6   19     -0.66      0.00
    1   -6   19     -1.19      0.00
    2   -6   19     -0.84      0.00
    3   -6   19     -0.54      0.00
    4   -6   19     -0.17      0.00
    5   -6   19      1.19      0.00
    6   -6   19      0.98      0.00
    7   -6   19     -0.13      0.00
  -10   -5   19      0.00      0.00
   -9   -5   19     -0.07      0.00
   -8   -5   19      0.04      0.00
   -7   -5   19     -0.09      0.00
   -6   -5   19     -0.36      0.00
   -5   -5   19     -0.21      0.00
   -4   -5   19     -0.36      0.00
   -3   -5   19      0.21      0.00
   -2   -5   19      0.60      0.00
   -1   -5   19     -0.56      0.00
    0   -5   19     -1.29      0.00
    1   -5   19     -0.46      0.00
    2   -5   19      0.41      0.00
    3   -5   19      0.11      0.00
    4   -5   19      0.24      0.00
    5   -5   19      0.22      0.00
    6   -5   19      0.27      0.00
    7   -5   19      0.83      0.00
  -11   -4   19     -0.43      0.00
  -10   -4   19     -0.06      0.00
   -9   -4   19      0.11      0.00
   -8   -4   19     -0.38      0.00
   -7   -4   19     -0.64      0.00
   -6   -4   19     -0.06      0.00
   -5   -4   19     -0.07      0.00
   -4   -4   19      0.28      0.00
   -3   -4   19      0.82      0.00
   -2   -4   19     -0.41      0.00
   -1   -4   19     -1.36      0.00
    0   -4   19     -1.08      0.00
    1   -4   19      0.16      0.00
    2   -4   19      1.03      0.00
    3   -4   19      1.04      0.00
    4   -4   19     -0.18      0.00
    5   -4   19     -0.61      0.00
    6   -4   19      0.46      0.00
    7   -4   19     -0.04      0.00
  -11   -3   19      0.21      0.00
  -10   -3   19      0.59      0.00
   -9   -3   19     -0.33      0.00
   -8   -3   19     -1.30      0.00
   -7   -3   19     -0.71      0.00
   -6   -3   19     -0.41      0.00
   -5   -3   19     -0.32      0.00
   -4   -3   19      0.17      0.00
   -3   -3   19     -0.60      0.00
   -2   -3   19     -1.06      0.00
   -1   -3   19     -0.89      0.00
    0   -3   19     -0.59      0.00
    1   -3   19     -0.40      0.00
    2   -3   19      0.03      0.00
    3   -3   19     -0.28      0.00
    4   -3   19     -0.49      0.00
    5   -3   19      0.53      0.00
    6   -3   19      0.12      0.00
    7   -3   19      0.15      0.00
  -11   -2   19      0.49      0.00
  -10   -2   19      0.34      0.00
   -9   -2   19     -0.85      0.00
   -8   -2   19     -0.73      0.00
   -7   -2   19     -0.36      0.00
   -6   -2   19     -0.50      0.00
   -5   -2   19     -0.26      0.00
   -4   -2   19      0.06      0.00
   -3   -2   19      0.17      0.00
   -2   -2   19     -0.17      0.00
   -1   -2   19     -0.81      0.00
    0   -2   19     -1.09      0.00
    1   -2   19     -0.45      0.00
    2   -2   19     -0.22      0.00
    3   -2   19     -0.06      0.00
    4   -2   19      1.01      0.00
    5   -2   19      0.21      0.00
    6   -2   19     -0.85      0.00
    7   -2   19     -1.27      0.00
  -11   -1   19      0.90      0.00
  -10   -1   19      0.49      0.00
   -9   -1   19      0.29      0.00
   -8   -1   19      0.17      0.00
   -7   -1   19     -0.07      0.00
   -6   -1   19     -0.50      0.00
   -5   -1   19      0.27      0.00
   -4   -1   19      0.92      0.00
   -3   -1   19      0.45      0.00
   -2   -1   19     -0.56      0.00
   -1   -1   19     -0.37      0.00
    0   -1   19      1.31      0.00
    1   -1   19      1.24      0.00
    2   -1   19      0.36      0.00
    3   -1   19      0.37      0.00
    4   -1   19     -0.68      0.00
    5   -1   19     -1.24      0.00
    6   -1   19     -1.41      0.00
    7   -1   19     -0.81      0.00
  -12    0   19      0.09      0.00
  -11    0   19     -0.23      0.00
  -10    0   19      0.17      0.00
   -9    0   19      0.41      0.00
   -8    0   19      0.61      0.00
   -7    0   19     -0.34      0.00
   -6    0   19     -0.31      0.00
   -5    0   19     -0.09      0.00
   -4    0   19      0.10      0.00
   -3    0   19      0.11      0.00
   -2    0   19      0.22      0.00
   -1    0   19      1.31      0.00
    0    0   19      0.36      0.00
    1    0   19     -0.32      0.00
    2    0   19      0.03      0.00
    3    0   19     -0.94      0.00
    4    0   19     -1.19      0.00
    5    0   19     -0.36      0.00
    6    0   19      0.85      0.00
    7    0   19      0.85      0.00
  -12    1   19     -0.56      0.00
  -11    1   19     -0.17      0.00
  -10    1   19      0.21      0.00
   -9    1   19      0.44      0.00
   -8    1   19     -0.57      0.00
   -7    1   19     -0.53      0.00
   -6    1   19     -0.25      0.00
   -5    1   19      0.16      0.00
   -4    1   19      0.65      0.00
   -3    1   19      0.54      0.00
   -2    1   19      1.37      0.00
   -1    1   19      0.25      0.00
    0    1   19     -0.36      0.00
    1    1   19      0.03      0.00
    2    1   19     -0.08      0.00
    3    1   19      0.20      0.00
    4    1   19      0.20      0.00
    5    1   19      0.75      0.00
    6    1   19      0.30      0.00
    7    1   19     -0.77      0.00
  -11    2   19     -0.27      0.00
  -10    2   19     -0.54      0.00
   -9    2   19     -1.02      0.00
   -8    2   19     -0.25      0.00
   -7    2   19      0.53      0.00
   -6    2   19      0.61      0.00
   -5    2   19      0.27      0.00
   -4    2   19     -0.66      0.00
   -3    2   19      0.48      0.00
   -2    2   19      0.85      0.00
   -1    2   19      0.38      0.00
    0    2   19     -0.84      0.00
    1    2   19     -1.14      0.00
    2    2   19      0.67      0.00
    3    2   19      0.83      0.00
    4    2   19      0.22      0.00
    5    2   19     -0.82      0.00
    6    2   19     -0.45      0.00
  -11    3   19     -0.46      0.00
  -10    3   19     -0.59      0.00
   -9    3   19     -0.18      0.00
   -8    3   19     -0.07      0.00
   -7    3   19     -0.13      0.00
   -6    3   19     -0.23      0.00
   -5    3   19     -1.22      0.00
   -4    3   19     -0.79      0.00
   -3    3   19      0.18      0.00
   -2    3   19      0.64      0.00
   -1    3   19     -0.11      0.00
    0    3   19     -0.43      0.00
    1    3   19      0.93      0.00
    2    3   19      0.75      0.00
    3    3   19      0.32      0.00
    4    3   19     -0.63      0.00
    5    3   19      0.10      0.00
    6    3   19      1.19      0.00
  -11    4   19     -0.47      0.00
  -10    4   19     -0.62      0.00
   -9    4   19     -1.20      0.00
   -8    4   19     -0.83      0.00
   -7    4   19      0.19      0.00
   -6    4   19      0.11      0.00
   -5    4   19     -0.21      0.00
   -4    4   19      0.48      0.00
   -3    4   19      1.15      0.00
   -2    4   19      0.81      0.00
   -1    4   19      0.31      0.00
    0    4   19      0.30      0.00
    1    4   19     -0.79      0.00
    2    4   19     -0.76      0.00
    3    4   19     -0.75      0.00
    4    4   19     -0.49      0.00
    5    4   19      0.22      0.00
  -11    5   19      0.35      0.00
  -10    5   19     -0.20      0.00
   -9    5   19     -0.39      0.00
   -8    5   19      0.04      0.00
   -7    5   19      0.52      0.00
   -6    5   19      0.28      0.00
   -5    5   19      0.51      0.00
   -4    5   19      0.80      0.00
   -3    5   19      0.01      0.00
   -2    5   19     -1.08      0.00
   -1    5   19     -1.36      0.00
    0    5   19     -1.51      0.00
    1    5   19     -0.82      0.00
    2    5   19     -0.22      0.00
    3    5   19     -0.50      0.00
    4    5   19     -0.32      0.00
  -10    6   19     -0.08      0.00
   -9    6   19     -1.08      0.00
   -8    6   19     -0.79      0.00
   -7    6   19     -0.12      0.00
   -6    6   19     -0.35      0.00
   -5    6   19     -0.78      0.00
   -4    6   19     -1.03      0.00
   -3    6   19     -0.68      0.00
   -2    6   19     -0.02      0.00
   -1    6   19      0.32      0.00
    0    6   19      0.48      0.00
    1    6   19      0.87      0.00
    2    6   19      0.55      0.00
    3    6   19      0.45      0.00
    4    6   19      0.17      0.00
   -9    7   19     -0.67      0.00
   -8    7   19      0.34      0.00
   -7    7   19      0.25      0.00
   -6    7   19     -0.35      0.00
   -5    7   19     -0.67      0.00
   -4    7   19      0.00      0.00
   -3    7   19      0.74      0.00
   -2    7   19      0.56      0.00
   -1    7   19     -0.07      0.00
    0    7   19     -0.02      0.00
    1    7   19      0.09      0.00
    2    7   19      0.07      0.00
    3    7   19     -0.56      0.00
   -8    8   19      0.68      0.00
   -7    8   19      0.51      0.00
   -6    8   19      0.44      0.00
   -5    8   19      0.49      0.00
   -4    8   19      0.50      0.00
   -3    8   19      0.01      0.00
   -2    8   19     -0.29      0.00
   -1    8   19     -0.54      0.00
    0    8   19     -0.51      0.00
    1    8   19     -0.46      0.00
   -6    9   19      0.24      0.00
   -5    9   19      0.59      0.00
   -4    9   19      0.22      0.00
   -3    9   19      0.11      0.00
   -2    9   19     -0.53      0.00
   -1    9   19     -0.55      0.00
   -4  -11   20     -0.07      0.00
   -3  -11   20     -0.57      0.00
   -2  -11   20     -0.83      0.00
   -1  -11   20     -0.39      0.00
    0  -11   20      0.30      0.00
    1  -11   20      0.06      0.00
    2  -11   20     -0.35      0.00
    3  -11   20      0.61      0.00
   -6  -10   20     -0.45      0.00
   -5  -10   20     -0.36      0.00
   -4  -10   20     -0.62      0.00
   -3  -10   20     -0.57      0.00
   -2  -10   20     -0.01      0.00
   -1  -10   20      0.41      0.00
    0  -10   20      0.32      0.00
    1  -10   20     -0.01      0.00
    2  -10   20      0.46      0.00
    3  -10   20      0.70      0.00
    4  -10   20      0.38      0.00
   -7   -9   20      0.37      0.00
   -6   -9   20      0.12      0.00
   -5   -9   20      0.05      0.00
   -4   -9   20      0.09      0.00
   -3   -9   20     -0.21      0.00
   -2   -9   20     -0.84      0.00
   -1   -9   20     -0.41      0.00
    0   -9   20      0.21      0.00
    1   -9   20      0.58      0.00
    2   -9   20      0.11      0.00
    3   -9   20     -0.44      0.00
    4   -9   20     -0.14      0.00
    5   -9   20     -0.53      0.00
   -8   -8   20      0.41      0.00
   -7   -8   20      0.03      0.00
   -6   -8   20     -0.27      0.00
   -5   -8   20     -0.17      0.00
   -4   -8   20     -0.15      0.00
   -3   -8   20     -0.80      0.00
   -2   -8   20     -0.34      0.00
   -1   -8   20      0.12      0.00
    0   -8   20      0.27      0.00
    1   -8   20     -0.08      0.00
    2   -8   20     -0.25      0.00
    3   -8   20      0.35      0.00
    4   -8   20      0.62      0.00
    5   -8   20      0.10      0.00
    6   -8   20     -0.63      0.00
   -9   -7   20     -0.19      0.00
   -8   -7   20     -0.23      0.00
   -7   -7   20     -0.49      0.00
   -6   -7   20     -0.46      0.00
   -5   -7   20      0.04      0.00
   -4   -7   20     -0.01      0.00
   -3   -7   20      0.57      0.00
   -2   -7   20      0.38      0.00
   -1   -7   20      0.04      0.00
    0   -7   20     -0.07      0.00
    1   -7   20     -0.08      0.00
    2   -7   20      0.09      0.00
    3   -7   20      0.18      0.00
    4   -7   20      0.55      0.00
    5   -7   20      0.38      0.00
    6   -7   20     -0.30      0.00
   -9   -6   20      0.51      0.00
   -8   -6   20      0.05      0.00
   -7   -6   20     -0.12      0.00
   -6   -6   20      0.12      0.00
   -5   -6   20     -0.29      0.00
   -4   -6   20      0.01      0.00
   -3   -6   20     -0.12      0.00
   -2   -6   20     -0.25      0.00
   -1   -6   20     -0.30      0.00
    0   -6   20     -0.71      0.00
    1   -6   20     -0.85      0.00
    2   -6   20     -1.01      0.00
    3   -6   20     -0.79      0.00
    4   -6   20     -0.31      0.00
    5   -6   20      0.66      0.00
    6   -6   20      0.77      0.00
  -10   -5   20      0.54      0.00
   -9   -5   20      0.00      0.00
   -8   -5   20     -0.09      0.00
   -7   -5   20      0.17      0.00
   -6   -5   20     -0.25      0.00
   -5   -5   20     -0.34      0.00
   -4   -5   20     -0.47      0.00
   -3   -5   20     -0.16      0.00
   -2   -5   20      0.28      0.00
   -1   -5   20     -0.43      0.00
    0   -5   20     -0.99      0.00
    1   -5   20     -0.68      0.00
    2   -5   20     -0.09      0.00
    3   -5   20     -0.30      0.00
    4   -5   20     -0.05      0.00
    5   -5   20      0.42      0.00
    6   -5   20      0.38      0.00
    7   -5   20      0.70      0.00
  -10   -4   20     -0.53      0.00
   -9   -4   20     -0.52      0.00
   -8   -4   20     -0.45      0.00
   -7   -4   20     -0.19      0.00
   -6   -4   20      0.11      0.00
   -5   -4   20      0.05      0.00
   -4   -4   20      0.11      0.00
   -3   -4   20      0.58      0.00
   -2   -4   20     -0.21      0.00
   -1   -4   20     -1.29      0.00
    0   -4   20     -1.04      0.00
    1   -4   20      0.16      0.00
    2   -4   20      1.06      0.00
    3   -4   20      1.03      0.00
    4   -4   20      0.17      0.00
    5   -4   20     -0.34      0.00
    6   -4   20      0.26      0.00
    7   -4   20      0.44      0.00
  -11   -3   20      0.21      0.00
  -10   -3   20      0.36      0.00
   -9   -3   20     -0.70      0.00
   -8   -3   20     -0.89      0.00
   -7   -3   20     -0.43      0.00
   -6   -3   20     -0.13      0.00
   -5   -3   20     -0.29      0.00
   -4   -3   20     -0.11      0.00
   -3   -3   20     -0.86      0.00
   -2   -3   20     -1.69      0.00
   -1   -3   20     -0.86      0.00
    0   -3   20     -0.18      0.00
    1   -3   20      0.54      0.00
    2   -3   20      1.01      0.00
    3   -3   20      0.59      0.00
    4   -3   20      0.07      0.00
    5   -3   20      0.30      0.00
    6   -3   20      0.41      0.00
    7   -3   20      0.15      0.00
  -11   -2   20      1.04      0.00
  -10   -2   20      0.01      0.00
   -9   -2   20     -0.96      0.00
   -8   -2   20     -1.03      0.00
   -7   -2   20     -0.38      0.00
   -6   -2   20     -0.51      0.00
   -5   -2   20     -0.40      0.00
   -4   -2   20     -0.53      0.00
   -3   -2   20     -1.08      0.00
   -2   -2   20     -0.13      0.00
   -1   -2   20     -0.15      0.00
    0   -2   20     -0.38      0.00
    1   -2   20     -0.44      0.00
    2   -2   20     -0.50      0.00
    3   -2   20     -0.17      0.00
    4   -2   20      0.55      0.00
    5   -2   20      0.77      0.00
    6   -2   20     -0.30      0.00
    7   -2   20     -0.36      0.00
  -11   -1   20      0.89      0.00
  -10   -1   20      0.54      0.00
   -9   -1   20     -0.16      0.00
   -8   -1   20      0.26      0.00
   -7   -1   20      0.08      0.00
   -6   -1   20     -0.19      0.00
   -5   -1   20      0.15      0.00
   -4   -1   20      0.02      0.00
   -3   -1   20      0.37      0.00
   -2   -1   20     -0.15      0.00
   -1   -1   20      0.16      0.00
    0   -1   20      0.71      0.00
    1   -1   20      0.38      0.00
    2   -1   20     -0.17      0.00
    3   -1   20     -0.24      0.00
    4   -1   20      0.12      0.00
    5   -1   20     -0.98      0.00
    6   -1   20     -1.32      0.00
    7   -1   20     -0.93      0.00
  -11    0   20      0.16      0.00
  -10    0   20     -0.33      0.00
   -9    0   20      0.40      0.00
   -8    0   20      0.62      0.00
   -7    0   20      0.14      0.00
   -6    0   20     -0.04      0.00
   -5    0   20     -0.10      0.00
   -4    0   20      0.02      0.00
   -3    0   20     -0.34      0.00
   -2    0   20      0.28      0.00
   -1    0   20      0.96      0.00
    0    0   20      0.58      0.00
    1    0   20      0.14      0.00
    2    0   20      0.07      0.00
    3    0   20     -0.03      0.00
    4    0   20     -1.35      0.00
    5    0   20     -0.70      0.00
    6    0   20      0.45      0.00
  -11    1   20     -0.94      0.00
  -10    1   20      0.17      0.00
   -9    1   20      0.35      0.00
   -8    1   20     -0.19      0.00
   -7    1   20     -0.58      0.00
   -6    1   20     -0.18      0.00
   -5    1   20      0.04      0.00
   -4    1   20     -0.11      0.00
   -3    1   20      0.35      0.00
   -2    1   20      0.77      0.00
   -1    1   20      0.42      0.00
    0    1   20      0.09      0.00
    1    1   20      0.58      0.00
    2    1   20      0.79      0.00
    3    1   20     -0.62      0.00
    4    1   20     -0.36      0.00
    5    1   20      0.59      0.00
    6    1   20      0.78      0.00
  -11    2   20     -0.20      0.00
  -10    2   20     -0.93      0.00
   -9    2   20     -1.23      0.00
   -8    2   20     -0.85      0.00
   -7    2   20      0.53      0.00
   -6    2   20      0.84      0.00
   -5    2   20      0.16      0.00
   -4    2   20     -0.04      0.00
   -3    2   20      0.35      0.00
   -2    2   20      0.71      0.00
   -1    2   20     -0.23      0.00
    0    2   20     -1.07      0.00
    1    2   20     -1.04      0.00
    2    2   20     -0.49      0.00
    3    2   20      0.30      0.00
    4    2   20     -0.16      0.00
    5    2   20     -0.70      0.00
    6    2   20     -0.58      0.00
  -11    3   20     -1.10      0.00
  -10    3   20     -0.97      0.00
   -9    3   20     -0.47      0.00
   -8    3   20      0.44      0.00
   -7    3   20      0.41      0.00
   -6    3   20     -0.51      0.00
   -5    3   20     -0.98      0.00
   -4    3   20     -1.02      0.00
   -3    3   20     -0.34      0.00
   -2    3   20     -0.71      0.00
   -1    3   20     -1.11      0.00
    0    3   20     -0.94      0.00
    1    3   20      0.24      0.00
    2    3   20      1.21      0.00
    3    3   20      0.48      0.00
    4    3   20     -0.20      0.00
    5    3   20     -0.10      0.00
  -11    4   20     -0.50      0.00
  -10    4   20     -0.68      0.00
   -9    4   20     -0.68      0.00
   -8    4   20     -0.22      0.00
   -7    4   20     -0.18      0.00
   -6    4   20     -0.44      0.00
   -5    4   20     -0.87      0.00
   -4    4   20      0.00      0.00
   -3    4   20      0.48      0.00
   -2    4   20      0.72      0.00
   -1    4   20      1.00      0.00
    0    4   20      1.17      0.00
    1    4   20      0.61      0.00
    2    4   20     -0.25      0.00
    3    4   20     -0.01      0.00
    4    4   20     -0.17      0.00
  -10    5   20     -0.57      0.00
   -9    5   20      0.08      0.00
   -8    5   20      0.83      0.00
   -7    5   20      0.75      0.00
   -6    5   20     -0.10      0.00
   -5    5   20      0.54      0.00
   -4    5   20      1.49      0.00
   -3    5   20      0.87      0.00
   -2    5   20     -0.19      0.00
   -1    5   20     -0.71      0.00
    0    5   20     -0.90      0.00
    1    5   20     -1.13      0.00
    2    5   20     -0.63      0.00
    3    5   20     -1.03      0.00
    4    5   20     -0.45      0.00
   -9    6   20     -0.14      0.00
   -8    6   20     -0.04      0.00
   -7    6   20     -0.12      0.00
   -6    6   20     -0.33      0.00
   -5    6   20     -0.07      0.00
   -4    6   20     -0.36      0.00
   -3    6   20     -0.58      0.00
   -2    6   20     -0.61      0.00
   -1    6   20     -0.09      0.00
    0    6   20      0.08      0.00
    1    6   20      0.23      0.00
    2    6   20     -0.23      0.00
    3    6   20     -0.06      0.00
   -9    7   20     -0.94      0.00
   -8    7   20      0.05      0.00
   -7    7   20      0.13      0.00
   -6    7   20     -0.57      0.00
   -5    7   20     -0.98      0.00
   -4    7   20     -0.21      0.00
   -3    7   20      0.40      0.00
   -2    7   20      0.62      0.00
   -1    7   20      0.17      0.00
    0    7   20      0.02      0.00
    1    7   20      0.42      0.00
    2    7   20      0.24      0.00
   -7    8   20      0.62      0.00
   -6    8   20      0.28      0.00
   -5    8   20      0.29      0.00
   -4    8   20      0.27      0.00
   -3    8   20      0.26      0.00
   -2    8   20     -0.21      0.00
   -1    8   20     -0.55      0.00
    0    8   20      0.14      0.00
   -4    9   20      0.40      0.00
   -3    9   20     -0.07      0.00
   -3  -11   21     -0.52      0.00
   -2  -11   21     -0.51      0.00
   -1  -11   21     -0.72      0.00
    0  -11   21     -0.06      0.00
    1  -11   21     -0.12      0.00
   -5  -10   21     -0.29      0.00
   -4  -10   21     -1.15      0.00
   -3  -10   21     -1.06      0.00
   -2  -10   21     -0.36      0.00
   -1  -10   21      0.63      0.00
    0  -10   21      0.32      0.00
    1  -10   21     -0.19      0.00
    2  -10   21      0.62      0.00
    3  -10   21      1.00      0.00
   -6   -9   21      0.42      0.00
   -5   -9   21     -0.12      0.00
   -4   -9   21     -0.26      0.00
   -3   -9   21     -0.26      0.00
   -2   -9   21     -0.04      0.00
   -1   -9   21      0.02      0.00
    0   -9   21      0.43      0.00
    1   -9   21      0.96      0.00
    2   -9   21      0.33      0.00
    3   -9   21      0.00      0.00
    4   -9   21      0.19      0.00
   -8   -8   21      0.49      0.00
   -7   -8   21      0.56      0.00
   -6   -8   21      0.08      0.00
   -5   -8   21      0.08      0.00
   -4   -8   21     -0.13      0.00
   -3   -8   21     -0.59      0.00
   -2   -8   21     -0.69      0.00
   -1   -8   21      0.06      0.00
    0   -8   21      0.52      0.00
    1   -8   21     -0.09      0.00
    2   -8   21     -0.23      0.00
    3   -8   21      0.01      0.00
    4   -8   21      0.30      0.00
    5   -8   21      0.00      0.00
   -8   -7   21     -0.20      0.00
   -7   -7   21     -0.58      0.00
   -6   -7   21     -0.40      0.00
   -5   -7   21     -0.02      0.00
   -4   -7   21      0.16      0.00
   -3   -7   21      0.30      0.00
   -2   -7   21      0.57      0.00
   -1   -7   21      0.24      0.00
    0   -7   21     -0.13      0.00
    1   -7   21      0.24      0.00
    2   -7   21      0.32      0.00
    3   -7   21      0.41      0.00
    4   -7   21      0.56      0.00
    5   -7   21      0.11      0.00
   -9   -6   21      0.20      0.00
   -8   -6   21     -0.24      0.00
   -7   -6   21     -0.26      0.00
   -6   -6   21      0.03      0.00
   -5   -6   21      0.16      0.00
   -4   -6   21      0.38      0.00
   -3   -6   21      0.67      0.00
   -2   -6   21      0.01      0.00
   -1   -6   21     -0.49      0.00
    0   -6   21     -0.47      0.00
    1   -6   21     -0.48      0.00
    2   -6   21     -0.64      0.00
    3   -6   21     -0.84      0.00
    4   -6   21     -0.73      0.00
    5   -6   21      0.28      0.00
    6   -6   21      0.65      0.00
  -10   -5   21      0.83      0.00
   -9   -5   21      0.26      0.00
   -8   -5   21      0.10      0.00
   -7   -5   21      0.36      0.00
   -6   -5   21      0.05      0.00
   -5   -5   21     -0.38      0.00
   -4   -5   21     -0.26      0.00
   -3   -5   21     -0.41      0.00
   -2   -5   21     -0.11      0.00
   -1   -5   21     -0.39      0.00
    0   -5   21     -0.71      0.00
    1   -5   21     -0.44      0.00
    2   -5   21     -0.45      0.00
    3   -5   21     -0.93      0.00
    4   -5   21     -0.45      0.00
    5   -5   21      0.38      0.00
    6   -5   21      0.27      0.00
  -10   -4   21     -0.59      0.00
   -9   -4   21     -0.89      0.00
   -8   -4   21     -0.24      0.00
   -7   -4   21      0.16      0.00
   -6   -4   21      0.16      0.00
   -5   -4   21      0.07      0.00
   -4   -4   21     -0.21      0.00
   -3   -4   21      0.37      0.00
   -2   -4   21      0.05      0.00
   -1   -4   21     -0.87      0.00
    0   -4   21     -0.88      0.00
    1   -4   21      0.00      0.00
    2   -4   21      0.55      0.00
    3   -4   21      0.43      0.00
    4   -4   21      0.05      0.00
    5   -4   21     -0.42      0.00
    6   -4   21      0.25      0.00
  -10   -3   21     -0.45      0.00
   -9   -3   21     -0.62      0.00
   -8   -3   21     -0.40      0.00
   -7   -3   21      0.27      0.00
   -6   -3   21      0.19      0.00
   -5   -3   21     -0.35      0.00
   -4   -3   21     -0.30      0.00
   -3   -3   21     -0.84      0.00
   -2   -3   21     -1.47      0.00
   -1   -3   21     -1.05      0.00
    0   -3   21     -0.05      0.00
    1   -3   21      0.87      0.00
    2   -3   21      1.54      0.00
    3   -3   21      1.29      0.00
    4   -3   21      0.16      0.00
    5   -3   21      0.22      0.00
    6   -3   21      0.16      0.00
  -11   -2   21      0.97      0.00
  -10   -2   21      0.07      0.00
   -9   -2   21     -1.05      0.00
   -8   -2   21     -0.50      0.00
   -7   -2   21     -0.48      0.00
   -6   -2   21     -0.67      0.00
   -5   -2   21     -0.70      0.00
   -4   -2   21     -1.11      0.00
   -3   -2   21     -1.32      0.00
   -2   -2   21     -0.27      0.00
   -1   -2   21      0.56      0.00
    0   -2   21     -0.03      0.00
    1   -2   21      0.08      0.00
    2   -2   21      0.31      0.00
    3   -2   21     -0.02      0.00
    4   -2   21      0.65      0.00
    5   -2   21      0.65      0.00
    6   -2   21      0.36      0.00
  -11   -1   21      1.01      0.00
  -10   -1   21      0.00      0.00
   -9   -1   21      0.12      0.00
   -8   -1   21     -0.05      0.00
   -7   -1   21      0.09      0.00
   -6   -1   21     -0.18      0.00
   -5   -1   21     -0.48      0.00
   -4   -1   21     -0.57      0.00
   -3   -1   21      0.12      0.00
   -2   -1   21      0.99      0.00
   -1   -1   21      0.22      0.00
    0   -1   21      0.29      0.00
    1   -1   21     -0.05      0.00
    2   -1   21     -0.85      0.00
    3   -1   21     -0.26      0.00
    4   -1   21      0.03      0.00
    5   -1   21     -0.17      0.00
    6   -1   21     -0.74      0.00
  -11    0   21      0.01      0.00
  -10    0   21     -0.13      0.00
   -9    0   21     -0.11      0.00
   -8    0   21      0.78      0.00
   -7    0   21      0.41      0.00
   -6    0   21     -0.26      0.00
   -5    0   21     -0.44      0.00
   -4    0   21     -0.40      0.00
   -3    0   21      0.45      0.00
   -2    0   21      0.29      0.00
   -1    0   21      0.88      0.00
    0    0   21      0.32      0.00
    1    0   21     -0.36      0.00
    2    0   21      0.13      0.00
    3    0   21     -0.28      0.00
    4    0   21     -0.69      0.00
    5    0   21     -0.76      0.00
    6    0   21      0.19      0.00
  -11    1   21     -1.15      0.00
  -10    1   21     -0.59      0.00
   -9    1   21      0.70      0.00
   -8    1   21      0.20      0.00
   -7    1   21     -0.54      0.00
   -6    1   21     -0.33      0.00
   -5    1   21     -0.48      0.00
   -4    1   21     -0.18      0.00
   -3    1   21     -0.20      0.00
   -2    1   21      0.65      0.00
   -1    1   21      0.30      0.00
    0    1   21      0.29      0.00
    1    1   21      1.44      0.00
    2    1   21      0.92      0.00
    3    1   21     -0.17      0.00
    4    1   21     -0.93      0.00
    5    1   21      0.53      0.00
  -11    2   21     -0.58      0.00
  -10    2   21     -0.38      0.00
   -9    2   21     -1.18      0.00
   -8    2   21     -1.04      0.00
   -7    2   21      0.27      0.00
   -6    2   21      0.62      0.00
   -5    2   21      0.18      0.00
   -4    2   21     -0.28      0.00
   -3    2   21      0.51      0.00
   -2    2   21      0.57      0.00
   -1    2   21      0.04      0.00
    0    2   21     -0.26      0.00
    1    2   21     -0.89      0.00
    2    2   21     -0.45      0.00
    3    2   21     -0.90      0.00
    4    2   21     -0.70      0.00
    5    2   21     -0.60      0.00
  -10    3   21     -1.34      0.00
   -9    3   21     -0.46      0.00
   -8    3   21      0.55      0.00
   -7    3   21      0.55      0.00
   -6    3   21     -0.37      0.00
   -5    3   21     -0.90      0.00
   -4    3   21     -0.58      0.00
   -3    3   21     -0.73      0.00
   -2    3   21     -1.14      0.00
   -1    3   21     -1.52      0.00
    0    3   21     -1.86      0.00
    1    3   21     -0.40      0.00
    2    3   21      0.36      0.00
    3    3   21      0.23      0.00
    4    3   21     -0.49      0.00
  -10    4   21     -0.04      0.00
   -9    4   21      0.04      0.00
   -8    4   21      0.13      0.00
   -7    4   21     -0.50      0.00
   -6    4   21     -0.98      0.00
   -5    4   21     -0.72      0.00
   -4    4   21     -0.65      0.00
   -3    4   21     -0.40      0.00
   -2    4   21      0.24      0.00
   -1    4   21      0.80      0.00
    0    4   21      1.34      0.00
    1    4   21      0.99      0.00
    2    4   21      0.65      0.00
    3    4   21      0.65      0.00
    4    4   21      0.37      0.00
   -9    5   21      0.60      0.00
   -8    5   21      1.21      0.00
   -7    5   21      0.34      0.00
   -6    5   21     -0.14      0.00
   -5    5   21      0.43      0.00
   -4    5   21      1.58      0.00
   -3    5   21      1.43      0.00
   -2    5   21      0.62      0.00
   -1    5   21      0.24      0.00
    0    5   21     -0.29      0.00
    1    5   21     -0.69      0.00
    2    5   21     -0.34      0.00
    3    5   21     -0.50      0.00
   -9    6   21      0.95      0.00
   -8    6   21      0.53      0.00
   -7    6   21     -0.13      0.00
   -6    6   21     -0.35      0.00
   -5    6   21      0.78      0.00
   -4    6   21      0.89      0.00
   -3    6   21     -0.17      0.00
   -2    6   21     -0.52      0.00
   -1    6   21     -0.34      0.00
    0    6   21     -0.27      0.00
    1    6   21     -0.33      0.00
    2    6   21     -0.85      0.00
   -8    7   21     -0.24      0.00
   -7    7   21     -0.49      0.00
   -6    7   21     -0.66      0.00
   -5    7   21     -0.52      0.00
   -4    7   21     -0.26      0.00
   -3    7   21      0.36      0.00
   -2    7   21      0.32      0.00
   -1    7   21      0.19      0.00
    0    7   21      0.03      0.00
   -6    8   21     -0.11      0.00
   -5    8   21     -0.15      0.00
   -4    8   21      0.35      0.00
   -3    8   21      0.08      0.00
   -2    8   21      0.00      0.00
   -4  -10   22     -0.99      0.00
   -3  -10   22     -1.14      0.00
   -2  -10   22     -0.23      0.00
   -1  -10   22      0.06      0.00
    0  -10   22      0.01      0.00
    1  -10   22     -0.34      0.00
    2  -10   22      0.31      0.00
   -6   -9   22      0.22      0.00
   -5   -9   22     -0.20      0.00
   -4   -9   22     -0.84      0.00
   -3   -9   22     -0.04      0.00
   -2   -9   22      0.26      0.00
   -1   -9   22      0.50      0.00
    0   -9   22      0.56      0.00
    1   -9   22      0.89      0.00
    2   -9   22      0.87      0.00
    3   -9   22      0.22      0.00
   -7   -8   22      0.72      0.00
   -6   -8   22      0.60      0.00
   -5   -8   22     -0.05      0.00
   -4   -8   22      0.13      0.00
   -3   -8   22     -0.39      0.00
   -2   -8   22     -0.39      0.00
   -1   -8   22      0.07      0.00
    0   -8   22      0.68      0.00
    1   -8   22      0.34      0.00
    2   -8   22     -0.67      0.00
    3   -8   22     -0.04      0.00
    4   -8   22      0.57      0.00
   -8   -7   22     -0.23      0.00
   -7   -7   22     -0.24      0.00
   -6   -7   22     -0.40      0.00
   -5   -7   22      0.22      0.00
   -4   -7   22      0.02      0.00
   -3   -7   22      0.04      0.00
   -2   -7   22      0.07      0.00
   -1   -7   22      0.25      0.00
    0   -7   22      0.24      0.00
    1   -7   22     -0.06      0.00
    2   -7   22      0.42      0.00
    3   -7   22      0.51      0.00
    4   -7   22      0.70      0.00
    5   -7   22      0.54      0.00
   -9   -6   22     -0.34      0.00
   -8   -6   22     -0.55      0.00
   -7   -6   22     -0.58      0.00
   -6   -6   22      0.16      0.00
   -5   -6   22      0.35      0.00
   -4   -6   22      0.76      0.00
   -3   -6   22      0.77      0.00
   -2   -6   22      0.25      0.00
   -1   -6   22     -0.34      0.00
    0   -6   22     -0.44      0.00
    1   -6   22      0.11      0.00
    2   -6   22     -0.38      0.00
    3   -6   22     -0.73      0.00
    4   -6   22     -0.53      0.00
    5   -6   22      0.00      0.00
   -9   -5   22      0.37      0.00
   -8   -5   22      0.30      0.00
   -7   -5   22      0.67      0.00
   -6   -5   22      0.31      0.00
   -5   -5   22     -0.04      0.00
   -4   -5   22     -0.19      0.00
   -3   -5   22     -0.33      0.00
   -2   -5   22     -0.47      0.00
   -1   -5   22     -0.53      0.00
    0   -5   22     -0.21      0.00
    1   -5   22     -0.20      0.00
    2   -5   22     -0.67      0.00
    3   -5   22     -1.29      0.00
    4   -5   22     -0.84      0.00
    5   -5   22      0.37      0.00
  -10   -4   22     -0.37      0.00
   -9   -4   22     -0.59      0.00
   -8   -4   22      0.07      0.00
   -7   -4   22      0.41      0.00
   -6   -4   22      0.13      0.00
   -5   -4   22     -0.23      0.00
   -4   -4   22     -0.34      0.00
   -3   -4   22      0.08      0.00
   -2   -4   22      0.38      0.00
   -1   -4   22     -0.30      0.00
    0   -4   22     -0.46      0.00
    1   -4   22     -0.14      0.00
    2   -4   22     -0.24      0.00
    3   -4   22     -0.53      0.00
    4   -4   22     -0.36      0.00
    5   -4   22     -0.29      0.00
  -10   -3   22     -0.93      0.00
   -9   -3   22     -0.69      0.00
   -8   -3   22      0.26      0.00
   -7   -3   22      0.71      0.00
   -6   -3   22      0.42      0.00
   -5   -3   22     -0.21      0.00
   -4   -3   22     -0.42      0.00
   -3   -3   22     -0.23      0.00
   -2   -3   22     -1.05      0.00
   -1   -3   22     -1.02      0.00
    0   -3   22     -0.32      0.00
    1   -3   22      0.74      0.00
    2   -3   22      1.28      0.00
    3   -3   22      0.91      0.00
    4   -3   22      0.14      0.00
    5   -3   22     -0.26      0.00
    6   -3   22      0.07      0.00
  -10   -2   22     -0.21      0.00
   -9   -2   22     -0.32      0.00
   -8   -2   22     -0.05      0.00
   -7   -2   22     -0.20      0.00
   -6   -2   22     -0.82      0.00
   -5   -2   22     -1.06      0.00
   -4   -2   22     -0.90      0.00
   -3   -2   22     -1.15      0.00
   -2   -2   22     -0.14      0.00
   -1   -2   22      0.37      0.00
    0   -2   22      0.42      0.00
    1   -2   22      0.73      0.00
    2   -2   22      0.88      0.00
    3   -2   22      0.55      0.00
    4   -2   22      0.16      0.00
    5   -2   22      0.62      0.00
  -10   -1   22      0.21      0.00
   -9   -1   22      0.10      0.00
   -8   -1   22      0.14      0.00
   -7   -1   22     -0.39      0.00
   -6   -1   22     -0.48      0.00
   -5   -1   22     -0.63      0.00
   -4   -1   22     -0.84      0.00
   -3   -1   22      0.52      0.00
   -2   -1   22      1.19      0.00
   -1   -1   22      0.48      0.00
    0   -1   22     -0.06      0.00
    1   -1   22     -0.06      0.00
    2   -1   22     -0.43      0.00
    3   -1   22     -0.75      0.00
    4   -1   22      0.32      0.00
    5   -1   22      0.21      0.00
  -10    0   22     -0.29      0.00
   -9    0   22      0.17      0.00
   -8    0   22      0.27      0.00
   -7    0   22      0.41      0.00
   -6    0   22     -0.46      0.00
   -5    0   22     -1.11      0.00
   -4    0   22     -0.13      0.00
   -3    0   22      0.89      0.00
   -2    0   22      0.88      0.00
   -1    0   22      0.22      0.00
    0    0   22     -0.01      0.00
    1    0   22     -0.46      0.00
    2    0   22     -0.81      0.00
    3    0   22     -0.23      0.00
    4    0   22     -0.55      0.00
    5    0   22     -0.22      0.00
  -10    1   22     -0.63      0.00
   -9    1   22      0.25      0.00
   -8    1   22      0.64      0.00
   -7    1   22     -0.55      0.00
   -6    1   22     -1.07      0.00
   -5    1   22     -0.57      0.00
   -4    1   22     -0.22      0.00
   -3    1   22      0.25      0.00
   -2    1   22      0.11      0.00
   -1    1   22      0.21      0.00
    0    1   22      0.32      0.00
    1    1   22      1.06      0.00
    2    1   22      1.26      0.00
    3    1   22     -0.35      0.00
    4    1   22     -0.50      0.00
    5    1   22      0.68      0.00
  -10    2   22     -0.30      0.00
   -9    2   22     -0.43      0.00
   -8    2   22     -1.09      0.00
   -7    2   22     -0.31      0.00
   -6    2   22      0.62      0.00
   -5    2   22     -0.02      0.00
   -4    2   22     -0.07      0.00
   -3    2   22      0.18      0.00
   -2    2   22      0.81      0.00
   -1    2   22      0.44      0.00
    0    2   22      0.29      0.00
    1    2   22      0.21      0.00
    2    2   22     -0.67      0.00
    3    2   22     -1.14      0.00
    4    2   22     -1.18      0.00
  -10    3   22     -0.90      0.00
   -9    3   22     -0.68      0.00
   -8    3   22      0.33      0.00
   -7    3   22      0.82      0.00
   -6    3   22     -0.24      0.00
   -5    3   22     -0.44      0.00
   -4    3   22     -0.48      0.00
   -3    3   22     -0.36      0.00
   -2    3   22     -0.89      0.00
   -1    3   22     -1.53      0.00
    0    3   22     -1.86      0.00
    1    3   22     -1.27      0.00
    2    3   22     -0.24      0.00
    3    3   22     -1.03      0.00
    4    3   22     -1.11      0.00
   -9    4   22      0.66      0.00
   -8    4   22      0.25      0.00
   -7    4   22     -0.85      0.00
   -6    4   22     -0.84      0.00
   -5    4   22     -0.51      0.00
   -4    4   22     -0.74      0.00
   -3    4   22     -0.95      0.00
   -2    4   22     -0.37      0.00
   -1    4   22      0.27      0.00
    0    4   22      0.44      0.00
    1    4   22      1.02      0.00
    2    4   22      0.65      0.00
    3    4   22      0.75      0.00
   -9    5   22      0.77      0.00
   -8    5   22      0.83      0.00
   -7    5   22      0.05      0.00
   -6    5   22     -0.03      0.00
   -5    5   22      0.63      0.00
   -4    5   22      1.19      0.00
   -3    5   22      1.21      0.00
   -2    5   22      1.12      0.00
   -1    5   22      0.45      0.00
    0    5   22      0.14      0.00
    1    5   22     -0.04      0.00
    2    5   22      0.49      0.00
   -8    6   22      0.81      0.00
   -7    6   22     -0.21      0.00
   -6    6   22      0.22      0.00
   -5    6   22      1.51      0.00
   -4    6   22      1.61      0.00
   -3    6   22      0.56      0.00
   -2    6   22     -0.48      0.00
   -1    6   22     -0.43      0.00
    0    6   22     -0.27      0.00
    1    6   22     -0.45      0.00
   -6    7   22     -0.39      0.00
   -5    7   22      0.27      0.00
   -4    7   22      0.36      0.00
   -3    7   22      0.03      0.00
   -2    7   22      0.11      0.00
   -1    7   22      0.17      0.00
   -3  -10   23     -0.29      0.00
   -2  -10   23     -0.33      0.00
   -1  -10   23     -0.21      0.00
    0  -10   23     -0.35      0.00
   -5   -9   23     -0.42      0.00
   -4   -9   23     -0.58      0.00
   -3   -9   23     -0.18      0.00
   -2   -9   23      0.56      0.00
   -1   -9   23      0.38      0.00
    0   -9   23      0.44      0.00
    1   -9   23      0.89      0.00
    2   -9   23      0.73      0.00
   -6   -8   23      0.64      0.00
   -5   -8   23      0.16      0.00
   -4   -8   23     -0.04      0.00
   -3   -8   23      0.26      0.00
   -2   -8   23     -0.16      0.00
   -1   -8   23      0.37      0.00
    0   -8   23      1.03      0.00
    1   -8   23      0.23      0.00
    2   -8   23     -0.55      0.00
    3   -8   23     -0.09      0.00
   -7   -7   23      0.04      0.00
   -6   -7   23      0.03      0.00
   -5   -7   23      0.00      0.00
   -4   -7   23      0.16      0.00
   -3   -7   23     -0.57      0.00
   -2   -7   23     -0.31      0.00
   -1   -7   23      0.28      0.00
    0   -7   23      0.26      0.00
    1   -7   23     -0.17      0.00
    2   -7   23     -0.14      0.00
    3   -7   23      0.85      0.00
    4   -7   23      1.31      0.00
   -8   -6   23     -0.88      0.00
   -7   -6   23     -0.62      0.00
   -6   -6   23     -0.10      0.00
   -5   -6   23      0.54      0.00
   -4   -6   23      0.38      0.00
   -3   -6   23      0.61      0.00
   -2   -6   23      0.21      0.00
   -1   -6   23     -0.11      0.00
    0   -6   23     -0.16      0.00
    1   -6   23     -0.07      0.00
    2   -6   23      0.05      0.00
    3   -6   23     -0.15      0.00
    4   -6   23     -0.08      0.00
   -9   -5   23      0.20      0.00
   -8   -5   23      0.31      0.00
   -7   -5   23      0.77      0.00
   -6   -5   23      0.73      0.00
   -5   -5   23      0.05      0.00
   -4   -5   23      0.07      0.00
   -3   -5   23     -0.37      0.00
   -2   -5   23     -0.55      0.00
   -1   -5   23     -0.55      0.00
    0   -5   23     -0.20      0.00
    1   -5   23      0.07      0.00
    2   -5   23     -0.73      0.00
    3   -5   23     -1.23      0.00
    4   -5   23     -0.68      0.00
    5   -5   23      0.27      0.00
   -9   -4   23     -0.13      0.00
   -8   -4   23      0.62      0.00
   -7   -4   23      0.59      0.00
   -6   -4   23     -0.12      0.00
   -5   -4   23     -0.47      0.00
   -4   -4   23     -0.69      0.00
   -3   -4   23      0.02      0.00
   -2   -4   23      0.49      0.00
   -1   -4   23      0.24      0.00
    0   -4   23      0.08      0.00
    1   -4   23     -0.28      0.00
    2   -4   23     -0.94      0.00
    3   -4   23     -1.23      0.00
    4   -4   23     -0.45      0.00
    5   -4   23     -0.09      0.00
   -9   -3   23     -0.34      0.00
   -8   -3   23      0.33      0.00
   -7   -3   23      0.80      0.00
   -6   -3   23      0.49      0.00
   -5   -3   23     -0.22      0.00
   -4   -3   23     -0.04      0.00
   -3   -3   23      0.28      0.00
   -2   -3   23     -0.32      0.00
   -1   -3   23     -1.02      0.00
    0   -3   23     -0.48      0.00
    1   -3   23      0.10      0.00
    2   -3   23      0.19      0.00
    3   -3   23      0.20      0.00
    4   -3   23     -0.19      0.00
    5   -3   23     -0.21      0.00
  -10   -2   23     -0.03      0.00
   -9   -2   23     -0.06      0.00
   -8   -2   23      0.62      0.00
   -7   -2   23      0.09      0.00
   -6   -2   23     -0.74      0.00
   -5   -2   23     -0.79      0.00
   -4   -2   23     -0.50      0.00
   -3   -2   23     -0.43      0.00
   -2   -2   23     -0.61      0.00
   -1   -2   23      0.15      0.00
    0   -2   23      0.52      0.00
    1   -2   23      1.01      0.00
    2   -2   23      1.03      0.00
    3   -2   23      0.21      0.00
    4   -2   23      0.08      0.00
    5   -2   23      0.08      0.00
  -10   -1   23      0.09      0.00
   -9   -1   23      0.73      0.00
   -8   -1   23      0.02      0.00
   -7   -1   23     -0.68      0.00
   -6   -1   23     -0.55      0.00
   -5   -1   23     -0.43      0.00
   -4   -1   23     -0.07      0.00
   -3   -1   23      0.40      0.00
   -2   -1   23      1.20      0.00
   -1   -1   23      0.28      0.00
    0   -1   23      0.19      0.00
    1   -1   23      0.35      0.00
    2   -1   23     -0.40      0.00
    3   -1   23     -0.42      0.00
    4   -1   23      0.01      0.00
    5   -1   23      0.57      0.00
  -10    0   23      0.48      0.00
   -9    0   23      0.03      0.00
   -8    0   23      0.00      0.00
   -7    0   23      0.17      0.00
   -6    0   23     -0.42      0.00
   -5    0   23     -0.78      0.00
   -4    0   23     -0.08      0.00
   -3    0   23      1.43      0.00
   -2    0   23      0.60      0.00
   -1    0   23     -0.06      0.00
    0    0   23     -0.18      0.00
    1    0   23     -0.70      0.00
    2    0   23     -0.86      0.00
    3    0   23     -0.90      0.00
    4    0   23      0.03      0.00
  -10    1   23     -1.05      0.00
   -9    1   23      0.18      0.00
   -8    1   23      0.44      0.00
   -7    1   23     -0.50      0.00
   -6    1   23     -1.38      0.00
   -5    1   23     -0.95      0.00
   -4    1   23      0.41      0.00
   -3    1   23      0.30      0.00
   -2    1   23      0.03      0.00
   -1    1   23     -0.15      0.00
    0    1   23      0.03      0.00
    1    1   23      0.76      0.00
    2    1   23      0.24      0.00
    3    1   23     -0.03      0.00
    4    1   23     -0.09      0.00
  -10    2   23      0.21      0.00
   -9    2   23     -0.21      0.00
   -8    2   23     -0.79      0.00
   -7    2   23     -0.75      0.00
   -6    2   23      0.16      0.00
   -5    2   23      0.44      0.00
   -4    2   23     -0.09      0.00
   -3    2   23      0.33      0.00
   -2    2   23      0.64      0.00
   -1    2   23      0.58      0.00
    0    2   23      0.80      0.00
    1    2   23      0.36      0.00
    2    2   23     -0.23      0.00
    3    2   23     -1.21      0.00
   -9    3   23     -0.52      0.00
   -8    3   23      0.04      0.00
   -7    3   23      0.88      0.00
   -6    3   23      0.59      0.00
   -5    3   23     -0.34      0.00
   -4    3   23     -0.11      0.00
   -3    3   23     -0.07      0.00
   -2    3   23     -0.43      0.00
   -1    3   23     -1.13      0.00
    0    3   23     -1.70      0.00
    1    3   23     -1.08      0.00
    2    3   23     -1.08      0.00
    3    3   23     -1.79      0.00
   -9    4   23      0.68      0.00
   -8    4   23      0.25      0.00
   -7    4   23     -0.47      0.00
   -6    4   23     -0.76      0.00
   -5    4   23     -0.12      0.00
   -4    4   23     -0.73      0.00
   -3    4   23     -1.07      0.00
   -2    4   23     -0.69      0.00
   -1    4   23     -0.55      0.00
    0    4   23     -0.09      0.00
    1    4   23      0.46      0.00
    2    4   23      0.10      0.00
   -8    5   23      0.27      0.00
   -7    5   23     -0.33      0.00
   -6    5   23      0.44      0.00
   -5    5   23      0.63      0.00
   -4    5   23      0.53      0.00
   -3    5   23      0.80      0.00
   -2    5   23      0.73      0.00
   -1    5   23      0.37      0.00
    0    5   23      0.17      0.00
    1    5   23      0.41      0.00
   -7    6   23      0.11      0.00
   -6    6   23      0.82      0.00
   -5    6   23      1.80      0.00
   -4    6   23      1.77      0.00
   -3    6   23      0.52      0.00
   -2    6   23     -0.26      0.00
   -1    6   23     -0.57      0.00
   -4   -9   24     -0.20      0.00
   -3   -9   24      0.18      0.00
   -2   -9   24      0.19      0.00
   -1   -9   24      0.38      0.00
    0   -9   24      0.25      0.00
    1   -9   24      0.27      0.00
   -5   -8   24      0.18      0.00
   -4   -8   24      0.28      0.00
   -3   -8   24      0.30      0.00
   -2   -8   24      0.50      0.00
   -1   -8   24      0.66      0.00
    0   -8   24      0.94      0.00
    1   -8   24      0.44      0.00
    2   -8   24     -0.66      0.00
   -6   -7   24      0.22      0.00
   -5   -7   24      0.16      0.00
   -4   -7   24     -0.18      0.00
   -3   -7   24     -0.50      0.00
   -2   -7   24     -0.61      0.00
   -1   -7   24      0.29      0.00
    0   -7   24      0.38      0.00
    1   -7   24     -0.81      0.00
    2   -7   24     -0.23      0.00
    3   -7   24      1.04      0.00
   -7   -6   24     -0.68      0.00
   -6   -6   24     -0.23      0.00
   -5   -6   24     -0.06      0.00
   -4   -6   24      0.06      0.00
   -3   -6   24     -0.14      0.00
   -2   -6   24      0.21      0.00
   -1   -6   24      0.21      0.00
    0   -6   24     -0.37      0.00
    1   -6   24     -0.15      0.00
    2   -6   24      0.31      0.00
    3   -6   24      0.71      0.00
   -8   -5   24      0.06      0.00
   -7   -5   24      0.66      0.00
   -6   -5   24      0.59      0.00
   -5   -5   24      0.30      0.00
   -4   -5   24     -0.06      0.00
   -3   -5   24     -0.08      0.00
   -2   -5   24     -0.48      0.00
   -1   -5   24     -0.71      0.00
    0   -5   24     -0.41      0.00
    1   -5   24     -0.10      0.00
    2   -5   24     -0.31      0.00
    3   -5   24     -0.58      0.00
    4   -5   24     -0.37      0.00
   -8   -4   24      0.95      0.00
   -7   -4   24      0.75      0.00
   -6   -4   24     -0.17      0.00
   -5   -4   24     -0.92      0.00
   -4   -4   24     -0.73      0.00
   -3   -4   24     -0.24      0.00
   -2   -4   24      0.48      0.00
   -1   -4   24      0.41      0.00
    0   -4   24      0.34      0.00
    1   -4   24     -0.28      0.00
    2   -4   24     -1.19      0.00
    3   -4   24     -1.18      0.00
    4   -4   24     -0.27      0.00
   -9   -3   24     -0.28      0.00
   -8   -3   24      0.43      0.00
   -7   -3   24      0.42      0.00
   -6   -3   24      0.15      0.00
   -5   -3   24     -0.16      0.00
   -4   -3   24      0.04      0.00
   -3   -3   24      0.85      0.00
   -2   -3   24      0.14      0.00
   -1   -3   24     -0.57      0.00
    0   -3   24     -0.72      0.00
    1   -3   24     -0.77      0.00
    2   -3   24     -0.88      0.00
    3   -3   24     -0.52      0.00
    4   -3   24      0.14      0.00
   -9   -2   24      0.32      0.00
   -8   -2   24      0.49      0.00
   -7   -2   24      0.50      0.00
   -6   -2   24     -0.27      0.00
   -5   -2   24     -0.43      0.00
   -4   -2   24      0.23      0.00
   -3   -2   24     -0.25      0.00
   -2   -2   24     -0.81      0.00
   -1   -2   24     -0.52      0.00
    0   -2   24      0.49      0.00
    1   -2   24      0.68      0.00
    2   -2   24      0.28      0.00
    3   -2   24      0.14      0.00
    4   -2   24     -0.29      0.00
   -9   -1   24      0.53      0.00
   -8   -1   24      0.41      0.00
   -7   -1   24     -0.67      0.00
   -6   -1   24     -0.37      0.00
   -5   -1   24      0.41      0.00
   -4   -1   24      0.40      0.00
   -3   -1   24      0.41      0.00
   -2   -1   24      0.32      0.00
   -1   -1   24      0.61      0.00
    0   -1   24      0.53      0.00
    1   -1   24      0.36      0.00
    2   -1   24     -0.12      0.00
    3   -1   24     -0.63      0.00
    4   -1   24      0.20      0.00
   -9    0   24      0.56      0.00
   -8    0   24     -0.45      0.00
   -7    0   24      0.18      0.00
   -6    0   24      0.41      0.00
   -5    0   24     -0.11      0.00
   -4    0   24      0.49      0.00
   -3    0   24      0.88      0.00
   -2    0   24      0.62      0.00
   -1    0   24     -0.34      0.00
    0    0   24     -0.21      0.00
    1    0   24     -0.48      0.00
    2    0   24     -1.16      0.00
    3    0   24     -0.47      0.00
   -9    1   24     -0.43      0.00
   -8    1   24      0.46      0.00
   -7    1   24     -0.04      0.00
   -6    1   24     -1.32      0.00
   -5    1   24     -0.70      0.00
   -4    1   24      0.26      0.00
   -3    1   24      0.59      0.00
   -2    1   24     -0.40      0.00
   -1    1   24     -0.27      0.00
    0    1   24     -0.02      0.00
    1    1   24     -0.06      0.00
    2    1   24     -0.08      0.00
    3    1   24     -0.34      0.00
   -9    2   24      0.31      0.00
   -8    2   24     -0.51      0.00
   -7    2   24     -1.07      0.00
   -6    2   24     -0.12      0.00
   -5    2   24      0.34      0.00
   -4    2   24      0.43      0.00
   -3    2   24      0.17      0.00
   -2    2   24      0.62      0.00
   -1    2   24      0.61      0.00
    0    2   24      0.58      0.00
    1    2   24      0.47      0.00
    2    2   24     -0.59      0.00
   -8    3   24     -0.06      0.00
   -7    3   24      0.99      0.00
   -6    3   24      1.01      0.00
   -5    3   24      0.32      0.00
   -4    3   24     -0.03      0.00
   -3    3   24      0.33      0.00
   -2    3   24     -0.14      0.00
   -1    3   24     -1.00      0.00
    0    3   24     -1.03      0.00
    1    3   24     -1.11      0.00
    2    3   24     -1.09      0.00
   -8    4   24      0.33      0.00
   -7    4   24      0.04      0.00
   -6    4   24     -0.15      0.00
   -5    4   24     -0.25      0.00
   -4    4   24     -0.52      0.00
   -3    4   24     -0.96      0.00
   -2    4   24     -1.11      0.00
   -1    4   24     -0.78      0.00
    0    4   24     -0.42      0.00
    1    4   24      0.10      0.00
   -7    5   24     -0.22      0.00
   -6    5   24      0.31      0.00
   -5    5   24      0.46      0.00
   -4    5   24     -0.09      0.00
   -3    5   24      0.02      0.00
   -2    5   24      0.37      0.00
   -1    5   24      0.03      0.00
   -5    6   24      1.40      0.00
   -4    6   24      1.03      0.00
   -3    6   24      0.39      0.00
   -4   -8   25      0.20      0.00
   -3   -8   25      0.61      0.00
   -2   -8   25      0.70      0.00
   -1   -8   25      0.97      0.00
    0   -8   25      0.77      0.00
   -5   -7   25      0.04      0.00
   -4   -7   25      0.05      0.00
   -3   -7   25     -0.49      0.00
   -2   -7   25     -0.20      0.00
   -1   -7   25      0.24      0.00
    0   -7   25     -0.01      0.00
    1   -7   25     -0.72      0.00
    2   -7   25     -0.49      0.00
   -6   -6   25     -0.60      0.00
   -5   -6   25     -0.40      0.00
   -4   -6   25     -0.71      0.00
   -3   -6   25     -0.40      0.00
   -2   -6   25     -0.04      0.00
   -1   -6   25      0.18      0.00
    0   -6   25     -0.37      0.00
    1   -6   25     -0.49      0.00
    2   -6   25      0.84      0.00
   -7   -5   25      0.15      0.00
   -6   -5   25      0.28      0.00
   -5   -5   25     -0.05      0.00
   -4   -5   25      0.17      0.00
   -3   -5   25      0.05      0.00
   -2   -5   25     -0.17      0.00
   -1   -5   25     -0.83      0.00
    0   -5   25     -0.99      0.00
    1   -5   25     -0.07      0.00
    2   -5   25      0.27      0.00
    3   -5   25      0.17      0.00
   -8   -4   25      1.14      0.00
   -7   -4   25      0.83      0.00
   -6   -4   25     -0.26      0.00
   -5   -4   25     -0.80      0.00
   -4   -4   25     -0.85      0.00
   -3   -4   25     -0.17      0.00
   -2   -4   25      0.12      0.00
   -1   -4   25      0.14      0.00
    0   -4   25      0.23      0.00
    1   -4   25     -0.13      0.00
    2   -4   25     -0.71      0.00
    3   -4   25     -0.65      0.00
   -8   -3   25      0.30      0.00
   -7   -3   25      0.10      0.00
   -6   -3   25     -0.24      0.00
   -5   -3   25     -0.55      0.00
   -4   -3   25      0.13      0.00
   -3   -3   25      0.81      0.00
   -2   -3   25      0.64      0.00
   -1   -3   25     -0.23      0.00
    0   -3   25     -0.68      0.00
    1   -3   25     -1.41      0.00
    2   -3   25     -1.47      0.00
    3   -3   25     -0.39      0.00
   -8   -2   25      0.43      0.00
   -7   -2   25      0.58      0.00
   -6   -2   25      0.06      0.00
   -5   -2   25      0.01      0.00
   -4   -2   25      0.31      0.00
   -3   -2   25      0.01      0.00
   -2   -2   25     -1.15      0.00
   -1   -2   25     -0.73      0.00
    0   -2   25     -0.22      0.00
    1   -2   25     -0.12      0.00
    2   -2   25     -0.18      0.00
    3   -2   25     -0.10      0.00
   -8   -1   25      0.44      0.00
   -7   -1   25     -0.04      0.00
   -6   -1   25      0.08      0.00
   -5   -1   25      0.71      0.00
   -4   -1   25      0.74      0.00
   -3   -1   25     -0.32      0.00
   -2   -1   25     -0.11      0.00
   -1   -1   25      0.47      0.00
    0   -1   25      0.87      0.00
    1   -1   25      0.27      0.00
    2   -1   25     -0.48      0.00
    3   -1   25     -0.23      0.00
   -8    0   25     -0.05      0.00
   -7    0   25      0.36      0.00
   -6    0   25      1.19      0.00
   -5    0   25      0.96      0.00
   -4    0   25      0.40      0.00
   -3    0   25      0.61      0.00
   -2    0   25      0.26      0.00
   -1    0   25      0.06      0.00
    0    0   25     -0.29      0.00
    1    0   25     -0.71      0.00
    2    0   25     -0.53      0.00
   -8    1   25      0.31      0.00
   -7    1   25      0.79      0.00
   -6    1   25     -0.30      0.00
   -5    1   25     -0.64      0.00
   -4    1   25      0.30      0.00
   -3    1   25      0.14      0.00
   -2    1   25     -0.31      0.00
   -1    1   25     -0.51      0.00
    0    1   25     -0.22      0.00
    1    1   25     -0.02      0.00
    2    1   25     -0.45      0.00
   -8    2   25      0.14      0.00
   -7    2   25     -0.87      0.00
   -6    2   25     -0.72      0.00
   -5    2   25      0.33      0.00
   -4    2   25      0.24      0.00
   -3    2   25      0.35      0.00
   -2    2   25      0.44      0.00
   -1    2   25      0.65      0.00
    0    2   25      0.61      0.00
    1    2   25     -0.09      0.00
   -7    3   25      0.64      0.00
   -6    3   25      1.36      0.00
   -5    3   25      0.56      0.00
   -4    3   25      0.47      0.00
   -3    3   25      0.51      0.00
   -2    3   25      0.05      0.00
   -1    3   25     -0.66      0.00
    0    3   25     -0.90      0.00
   -6    4   25      0.22      0.00
   -5    4   25      0.00      0.00
   -4    4   25     -0.38      0.00
   -3    4   25     -0.87      0.00
   -2    4   25     -1.19      0.00
   -1    4   25     -0.98      0.00
   -4    5   25     -0.59      0.00
   -3    5   25     -0.38      0.00
   -4   -7   26     -0.07      0.00
   -3   -7   26      0.22      0.00
   -2   -7   26      0.15      0.00
   -1   -7   26      0.12      0.00
    0   -7   26     -0.16      0.00
   -5   -6   26     -0.86      0.00
   -4   -6   26     -0.75      0.00
   -3   -6   26     -0.73      0.00
   -2   -6   26     -0.19      0.00
   -1   -6   26     -0.10      0.00
    0   -6   26     -0.53      0.00
    1   -6   26     -0.16      0.00
   -6   -5   26     -0.42      0.00
   -5   -5   26     -0.22      0.00
   -4   -5   26      0.02      0.00
   -3   -5   26      0.45      0.00
   -2   -5   26     -0.06      0.00
   -1   -5   26     -0.91      0.00
    0   -5   26     -1.14      0.00
    1   -5   26     -0.04      0.00
   -7   -4   26      0.73      0.00
   -6   -4   26     -0.14      0.00
   -5   -4   26     -0.64      0.00
   -4   -4   26     -0.29      0.00
   -3   -4   26     -0.14      0.00
   -2   -4   26     -0.16      0.00
   -1   -4   26     -0.51      0.00
    0   -4   26     -0.07      0.00
    1   -4   26      0.23      0.00
    2   -4   26      0.01      0.00
   -7   -3   26     -0.07      0.00
   -6   -3   26     -0.61      0.00
   -5   -3   26     -0.72      0.00
   -4   -3   26     -0.18      0.00
   -3   -3   26      0.75      0.00
   -2   -3   26      0.60      0.00
   -1   -3   26      0.22      0.00
    0   -3   26     -0.56      0.00
    1   -3   26     -1.34      0.00
    2   -3   26     -1.19      0.00
   -8   -2   26      0.11      0.00
   -7   -2   26      0.55      0.00
   -6   -2   26      0.06      0.00
   -5   -2   26     -0.19      0.00
   -4   -2   26      0.31      0.00
   -3   -2   26     -0.11      0.00
   -2   -2   26     -0.76      0.00
   -1   -2   26     -1.08      0.00
    0   -2   26     -0.80      0.00
    1   -2   26     -0.83      0.00
    2   -2   26     -0.43      0.00
   -8   -1   26      0.85      0.00
   -7   -1   26      0.46      0.00
   -6   -1   26      0.20      0.00
   -5   -1   26      0.67      0.00
   -4   -1   26      0.24      0.00
   -3   -1   26     -0.59      0.00
   -2   -1   26     -0.85      0.00
   -1   -1   26      0.40      0.00
    0   -1   26      0.61      0.00
    1   -1   26      0.09      0.00
    2   -1   26     -0.25      0.00
   -8    0   26      0.29      0.00
   -7    0   26      0.67      0.00
   -6    0   26      1.51      0.00
   -5    0   26      1.13      0.00
   -4    0   26      0.45      0.00
   -3    0   26     -0.06      0.00
   -2    0   26      0.48      0.00
   -1    0   26      0.19      0.00
    0    0   26     -0.30      0.00
    1    0   26     -0.65      0.00
   -7    1   26      1.42      0.00
   -6    1   26      0.61      0.00
   -5    1   26     -0.08      0.00
   -4    1   26     -0.10      0.00
   -3    1   26      0.20      0.00
   -2    1   26     -0.45      0.00
   -1    1   26     -0.61      0.00
    0    1   26     -0.39      0.00
    1    1   26     -0.08      0.00
   -7    2   26     -0.30      0.00
   -6    2   26     -0.76      0.00
   -5    2   26     -0.29      0.00
   -4    2   26      0.16      0.00
   -3    2   26      0.05      0.00
   -2    2   26      0.41      0.00
   -1    2   26      0.70      0.00
    0    2   26      0.54      0.00
   -6    3   26      0.88      0.00
   -5    3   26      0.84      0.00
   -4    3   26      0.55      0.00
   -3    3   26      0.78      0.00
   -2    3   26      0.37      0.00
   -1    3   26     -0.39      0.00
   -3   -6   27     -0.40      0.00
   -2   -6   27     -0.53      0.00
   -1   -6   27     -0.55      0.00
   -5   -5   27     -0.68      0.00
   -4   -5   27      0.19      0.00
   -3   -5   27      0.39      0.00
   -2   -5   27     -0.07      0.00
   -1   -5   27     -0.82      0.00
    0   -5   27     -0.91      0.00
   -6   -4   27     -0.24      0.00
   -5   -4   27     -0.08      0.00
   -4   -4   27      0.24      0.00
   -3   -4   27      0.25      0.00
   -2   -4   27     -0.47      0.00
   -1   -4   27     -0.94      0.00
    0   -4   27     -0.35      0.00
   -6   -3   27     -0.62      0.00
   -5   -3   27     -0.75      0.00
   -4   -3   27     -0.10      0.00
   -3   -3   27      0.42      0.00
   -2   -3   27      0.48      0.00
   -1   -3   27      0.21      0.00
    0   -3   27     -0.01      0.00
   -6   -2   27     -0.28      0.00
   -5   -2   27     -0.44      0.00
   -4   -2   27     -0.01      0.00
   -3   -2   27      0.09      0.00
   -2   -2   27     -0.47      0.00
   -1   -2   27     -0.67      0.00
    0   -2   27     -1.24      0.00
   -6   -1   27     -0.01      0.00
   -5   -1   27      0.11      0.00
   -4   -1   27     -0.03      0.00
   -3   -1   27     -0.93      0.00
   -2   -1   27     -0.89      0.00
   -1   -1   27     -0.34      0.00
    0   -1   27      0.39      0.00
   -6    0   27      0.99      0.00
   -5    0   27      0.88      0.00
   -4    0   27     -0.02      0.00
   -3    0   27     -0.16      0.00
   -2    0   27      0.12      0.00
   -1    0   27      0.50      0.00
    0    0   27     -0.21      0.00
   -6    1   27      1.13      0.00
   -5    1   27      0.10      0.00
   -4    1   27      0.11      0.00
   -3    1   27      0.05      0.00
   -2    1   27     -0.16      0.00
   -1    1   27     -0.88      0.00
   -5    2   27     -0.45      0.00
   -4    2   27     -0.32      0.00
   -3    2   27     -0.05      0.00
   -2    2   27      0.04      0.00
   -4   -3   28      0.11      0.00
   -3   -3   28      0.31      0.00
   -2   -3   28      0.08      0.00
   -4   -2   28     -0.05      0.00
   -3   -2   28      0.05      0.00
   -2   -2   28      0.08      0.00
   -4   -1   28     -0.25      0.00
   -3   -1   28     -0.64      0.00
   -2   -1   28     -0.95      0.00
    1    0    0     76.31      0.00
   14    0    0      0.10      0.00
  -14    1    0      0.68      0.00
   -3    1    0      1.80      0.00
   -1    1    0     50.73      0.00
    0    1    0     38.25      0.00
    3    1    0     -9.69      0.00
   14    1    0     -0.20      0.00
  -14    2    0     -0.27      0.00
   13    2    0      0.60      0.00
   14    2    0      0.75      0.00
  -14    3    0     -0.15      0.00
   13    3    0      0.43      0.00
  -14    4    0      0.25      0.00
   13    4    0      0.29      0.00
  -14    5    0      0.42      0.00
   12    5    0      0.71      0.00
  -14    6    0      0.05      0.00
   12    6    0      0.69      0.00
  -14    7    0      0.40      0.00
  -13    7    0      1.30      0.00
   11    7    0      0.36      0.00
  -13    8    0      0.43      0.00
   10    8    0      0.43      0.00
   11    8    0      0.47      0.00
  -13    9    0      0.85      0.00
  -12    9    0      0.93      0.00
   10    9    0      0.69      0.00
  -12   10    0     -0.46      0.00
    9   10    0      0.73      0.00
  -12   11    0     -0.44      0.00
  -11   11    0     -0.17      0.00
    8   11    0      0.06      0.00
  -11   12    0      0.30      0.00
  -10   12    0      0.05      0.00
    6   12    0      0.14      0.00
    7   12    0     -0.31      0.00
  -10   13    0     -0.54      0.00
   -9   13    0     -0.95      0.00
    5   13    0      0.12      0.00
    6   13    0      0.07      0.00
   -9   14    0     -0.77      0.00
   -8   14    0     -0.59      0.00
   -7   14    0      0.00      0.00
    3   14    0     -0.85      0.00
    4   14    0     -0.55      0.00
    5   14    0      0.18      0.00
   -7   15    0     -0.64      0.00
   -6   15    0     -0.56      0.00
   -5   15    0      0.01      0.00
   -4   15    0     -0.23      0.00
   -3   15    0     -0.99      0.00
   -2   15    0     -0.98      0.00
   -1   15    0     -0.71      0.00
    0   15    0     -0.29      0.00
    1   15    0     -0.04      0.00
    2   15    0     -0.68      0.00
    3   15    0     -0.63      0.00
   -3  -15    1     -0.78      0.00
   -2  -15    1     -0.58      0.00
   -1  -15    1      0.04      0.00
    0  -15    1     -0.15      0.00
    1  -15    1     -0.70      0.00
    2  -15    1     -0.84      0.00
    3  -15    1     -0.43      0.00
    4  -15    1      0.31      0.00
    5  -15    1      0.02      0.00
    6  -15    1     -0.54      0.00
    7  -15    1     -1.07      0.00
   -5  -14    1      0.31      0.00
   -4  -14    1     -0.68      0.00
   -3  -14    1     -0.83      0.00
    7  -14    1     -0.55      0.00
    8  -14    1     -0.77      0.00
    9  -14    1     -0.95      0.00
   -6  -13    1      0.36      0.00
   -5  -13    1     -0.06      0.00
    9  -13    1     -0.75      0.00
   10  -13    1     -0.84      0.00
   -8  -12    1     -0.10      0.00
   -7  -12    1     -0.33      0.00
   10  -12    1     -0.30      0.00
   11  -12    1     -0.05      0.00
   -9  -11    1     -0.03      0.00
   -8  -11    1     -0.33      0.00
   11  -11    1      0.12      0.00
   12  -11    1     -0.30      0.00
   -9  -10    1      0.63      0.00
   12  -10    1     -0.45      0.00
  -10   -9    1      0.89      0.00
   12   -9    1      0.62      0.00
   13   -9    1      0.46      0.00
  -11   -8    1      0.67      0.00
   13   -8    1      0.33      0.00
  -12   -7    1      0.33      0.00
  -11   -7    1      0.12      0.00
   13   -7    1      0.61      0.00
  -12   -6    1      0.07      0.00
   13   -6    1      0.74      0.00
   14   -6    1     -0.32      0.00
  -13   -5    1      0.40      0.00
  -12   -5    1      0.36      0.00
   14   -5    1      0.27      0.00
  -13   -4    1      0.36      0.00
   14   -4    1      0.54      0.00
  -13   -3    1     -0.15      0.00
    1   -3    1      8.89      0.00
   14   -3    1      0.06      0.00
  -14   -2    1      0.57      0.00
  -13   -2    1      0.62      0.00
   14   -2    1     -0.37      0.00
  -14   -1    1      0.17      0.00
   -1   -1    1     10.73      0.00
    0   -1    1      6.01      0.00
   14   -1    1      0.21      0.00
  -14    0    1     -0.17      0.00
   -1    0    1     61.85      0.00
    0    0    1     93.86      0.00
   14    0    1      0.16      0.00
  -14    1    1      1.08      0.00
   -1    1    1     80.34      0.00
    0    1    1     67.04      0.00
   13    1    1      0.21      0.00
   14    1    1     -0.21      0.00
  -14    2    1      0.19      0.00
   13    2    1      0.67      0.00
  -14    3    1     -0.19      0.00
   13    3    1      0.68      0.00
  -14    4    1      0.15      0.00
   12    4    1      0.05      0.00
   13    4    1      0.44      0.00
  -14    5    1      0.47      0.00
   12    5    1      0.85      0.00
  -14    6    1      0.16      0.00
   12    6    1      0.70      0.00
  -14    7    1      0.67      0.00
  -13    7    1      1.26      0.00
   11    7    1      0.39      0.00
  -13    8    1      0.59      0.00
   10    8    1      0.13      0.00
   11    8    1      0.27      0.00
  -13    9    1      0.77      0.00
  -12    9    1      0.92      0.00
    9    9    1      0.69      0.00
   10    9    1      0.28      0.00
  -12   10    1     -0.33      0.00
    9   10    1      0.41      0.00
  -12   11    1     -0.50      0.00
  -11   11    1     -0.25      0.00
    8   11    1      0.23      0.00
  -11   12    1      0.25      0.00
  -10   12    1      0.66      0.00
    6   12    1      0.59      0.00
    7   12    1     -0.06      0.00
  -10   13    1     -0.42      0.00
   -9   13    1     -0.30      0.00
    5   13    1      0.46      0.00
    6   13    1      0.01      0.00
   -9   14    1     -0.91      0.00
   -8   14    1     -0.30      0.00
   -7   14    1      0.21      0.00
    2   14    1     -0.67      0.00
    3   14    1     -0.38      0.00
    4   14    1     -0.48      0.00
   -7   15    1     -0.30      0.00
   -6   15    1     -0.03      0.00
   -5   15    1     -0.14      0.00
   -4   15    1     -0.27      0.00
   -3   15    1     -0.91      0.00
   -2   15    1     -1.15      0.00
   -1   15    1     -0.69      0.00
    0   15    1     -0.64      0.00
    1   15    1     -0.38      0.00
    2   15    1     -0.49      0.00
   -3  -15    2     -0.62      0.00
   -2  -15    2     -0.71      0.00
   -1  -15    2     -0.10      0.00
    0  -15    2     -0.19      0.00
    1  -15    2     -0.83      0.00
    2  -15    2     -0.28      0.00
    3  -15    2      0.24      0.00
    4  -15    2      0.70      0.00
    5  -15    2      0.36      0.00
    6  -15    2     -0.64      0.00
    7  -15    2     -0.84      0.00
   -5  -14    2      0.06      0.00
   -4  -14    2     -0.63      0.00
   -3  -14    2     -0.85      0.00
    7  -14    2     -1.22      0.00
    8  -14    2     -1.14      0.00
    9  -14    2     -0.67      0.00
   -6  -13    2      0.56      0.00
   -5  -13    2      0.00      0.00
    9  -13    2     -0.71      0.00
   10  -13    2     -0.26      0.00
   -8  -12    2     -0.16      0.00
   -7  -12    2      0.11      0.00
   10  -12    2     -0.89      0.00
   11  -12    2     -0.04      0.00
   -9  -11    2     -0.22      0.00
   -8  -11    2     -0.29      0.00
   11  -11    2      0.05      0.00
   12  -11    2      0.12      0.00
  -10  -10    2      0.20      0.00
   -9  -10    2      0.52      0.00
   12  -10    2     -0.33      0.00
  -10   -9    2      0.90      0.00
   12   -9    2      0.32      0.00
   13   -9    2      0.16      0.00
  -11   -8    2      0.61      0.00
   13   -8    2     -0.09      0.00
  -12   -7    2      0.22      0.00
  -11   -7    2      0.03      0.00
   13   -7    2     -0.08      0.00
  -12   -6    2     -0.33      0.00
   13   -6    2      0.31      0.00
   14   -6    2     -0.41      0.00
  -13   -5    2     -0.12      0.00
  -12   -5    2     -0.54      0.00
   13   -5    2      0.38      0.00
   14   -5    2      0.08      0.00
  -13   -4    2     -0.11      0.00
   14   -4    2      0.86      0.00
  -13   -3    2     -0.41      0.00
   14   -3    2      0.42      0.00
  -14   -2    2      0.44      0.00
   -2   -2    2     23.15      0.00
    0   -2    2     23.66      0.00
   14   -2    2     -0.39      0.00
  -14   -1    2      0.54      0.00
    2   -1    2    -26.15      0.00
   14   -1    2     -0.21      0.00
  -14    0    2     -0.21      0.00
   -2    0    2      8.17      0.00
    0    0    2     46.09      0.00
   13    0    2      0.18      0.00
   14    0    2      0.10      0.00
  -14    1    2      1.19      0.00
   -1    1    2     80.84      0.00
    1    1    2     21.65      0.00
   13    1    2      0.22      0.00
  -14    2    2      0.97      0.00
   13    2    2      0.50      0.00
  -14    3    2      0.00      0.00
   13    3    2      0.98      0.00
  -14    4    2      0.20      0.00
   12    4    2      0.38      0.00
   13    4    2      0.32      0.00
  -14    5    2      0.22      0.00
   12    5    2      0.45      0.00
  -14    6    2      0.13      0.00
   11    6    2      1.01      0.00
   12    6    2      0.65      0.00
  -14    7    2      0.34      0.00
  -13    7    2      1.14      0.00
   11    7    2      0.42      0.00
  -13    8    2      0.32      0.00
   10    8    2     -0.29      0.00
  -13    9    2      0.56      0.00
    9    9    2     -0.11      0.00
   10    9    2     -0.05      0.00
  -12   10    2     -0.19      0.00
    8   10    2      0.26      0.00
    9   10    2      0.13      0.00
  -12   11    2     -0.51      0.00
  -11   11    2     -0.64      0.00
    7   11    2      0.35      0.00
    8   11    2      0.39      0.00
  -11   12    2      0.27      0.00
  -10   12    2      0.40      0.00
    6   12    2      0.92      0.00
    7   12    2      0.33      0.00
  -10   13    2      0.18      0.00
   -9   13    2     -0.03      0.00
    4   13    2      1.30      0.00
    5   13    2      1.06      0.00
    6   13    2      0.21      0.00
   -9   14    2     -0.27      0.00
   -8   14    2     -0.45      0.00
   -7   14    2     -0.14      0.00
    2   14    2     -0.52      0.00
    3   14    2     -0.07      0.00
    4   14    2      0.01      0.00
   -7   15    2     -0.08      0.00
   -6   15    2      0.00      0.00
   -5   15    2      0.49      0.00
   -4   15    2     -0.06      0.00
   -3   15    2     -0.50      0.00
   -2   15    2     -0.98      0.00
   -1   15    2     -0.95      0.00
    0   15    2     -0.78      0.00
    1   15    2     -0.50      0.00
    2   15    2     -0.46      0.00
   -3  -15    3     -0.58      0.00
   -2  -15    3     -0.72      0.00
   -1  -15    3     -0.51      0.00
    0  -15    3     -0.15      0.00
    1  -15    3     -0.44      0.00
    2  -15    3      0.04      0.00
    3  -15    3      0.89      0.00
    4  -15    3      0.81      0.00
    5  -15    3      0.27      0.00
    6  -15    3     -0.14      0.00
    7  -15    3     -0.48      0.00
   -5  -14    3     -0.30      0.00
   -4  -14    3     -0.82      0.00
   -3  -14    3     -0.75      0.00
    7  -14    3     -1.30      0.00
    8  -14    3     -1.20      0.00
    9  -14    3     -0.86      0.00
   -7  -13    3      0.31      0.00
   -6  -13    3      0.25      0.00
   -5  -13    3     -0.31      0.00
    9  -13    3     -0.27      0.00
   10  -13    3      0.10      0.00
   -8  -12    3      0.01      0.00
   -7  -12    3      0.40      0.00
   10  -12    3     -0.52      0.00
   11  -12    3     -0.12      0.00
   -9  -11    3     -0.18      0.00
   -8  -11    3     -0.08      0.00
   11  -11    3      0.37      0.00
  -10  -10    3      0.16      0.00
   -9  -10    3      0.32      0.00
   12  -10    3      0.18      0.00
  -11   -9    3      0.23      0.00
  -10   -9    3      0.72      0.00
   12   -9    3      0.05      0.00
   13   -9    3     -0.22      0.00
  -11   -8    3      0.50      0.00
   13   -8    3     -0.22      0.00
  -12   -7    3      0.27      0.00
  -11   -7    3     -0.15      0.00
   13   -7    3     -0.84      0.00
  -12   -6    3     -0.51      0.00
   13   -6    3      0.10      0.00
  -13   -5    3     -0.88      0.00
   13   -5    3      0.29      0.00
   14   -5    3      0.08      0.00
  -13   -4    3     -0.58      0.00
   13   -4    3      1.43      0.00
   14   -4    3      1.03      0.00
  -14   -3    3     -0.16      0.00
  -13   -3    3     -0.70      0.00
   -1   -3    3     -3.33      0.00
   14   -3    3      0.68      0.00
  -14   -2    3      0.04      0.00
    2   -2    3    -18.41      0.00
   14   -2    3     -0.31      0.00
  -14   -1    3      0.93      0.00
   13   -1    3     -0.56      0.00
   14   -1    3     -0.49      0.00
  -14    0    3     -0.09      0.00
    0    0    3     -5.29      0.00
   13    0    3     -0.39      0.00
  -14    1    3      0.97      0.00
   13    1    3     -0.03      0.00
  -14    2    3      1.70      0.00
   13    2    3      0.38      0.00
  -14    3    3      0.33      0.00
   13    3    3      0.81      0.00
  -14    4    3      0.18      0.00
   12    4    3      0.45      0.00
  -14    5    3      0.01      0.00
   12    5    3      0.19      0.00
  -14    6    3     -0.28      0.00
   11    6    3      0.71      0.00
  -14    7    3      0.02      0.00
  -13    7    3      0.49      0.00
   11    7    3      0.41      0.00
  -13    8    3      0.43      0.00
   10    8    3     -0.37      0.00
  -13    9    3     -0.25      0.00
    9    9    3     -0.60      0.00
   10    9    3     -0.39      0.00
  -12   10    3     -0.01      0.00
    8   10    3     -0.33      0.00
    9   10    3     -0.38      0.00
  -12   11    3     -0.40      0.00
  -11   11    3     -0.55      0.00
    7   11    3     -0.03      0.00
    8   11    3      0.06      0.00
  -11   12    3      0.01      0.00
  -10   12    3      0.23      0.00
    6   12    3      0.66      0.00
    7   12    3      0.32      0.00
  -10   13    3      0.12      0.00
   -9   13    3      0.57      0.00
    4   13    3      1.26      0.00
    5   13    3      1.12      0.00
   -9   14    3     -0.09      0.00
   -8   14    3     -0.28      0.00
   -7   14    3     -0.51      0.00
    2   14    3     -0.56      0.00
    3   14    3      0.36      0.00
    4   14    3      0.25      0.00
   -7   15    3     -0.33      0.00
   -6   15    3      0.28      0.00
   -5   15    3      0.72      0.00
   -4   15    3      0.59      0.00
   -3   15    3     -0.11      0.00
   -2   15    3     -0.90      0.00
   -1   15    3     -0.82      0.00
    0   15    3     -0.70      0.00
    1   15    3     -0.52      0.00
    2   15    3     -0.23      0.00
   -3  -15    4     -0.36      0.00
   -2  -15    4     -0.93      0.00
   -1  -15    4     -0.53      0.00
    0  -15    4      0.35      0.00
    1  -15    4      0.23      0.00
    2  -15    4      0.47      0.00
    3  -15    4      0.89      0.00
    4  -15    4      0.66      0.00
    5  -15    4      0.28      0.00
    6  -15    4     -0.01      0.00
    7  -15    4      0.09      0.00
   -5  -14    4     -0.59      0.00
   -4  -14    4     -0.79      0.00
    7  -14    4     -1.06      0.00
    8  -14    4     -1.08      0.00
    9  -14    4     -0.65      0.00
   -7  -13    4     -0.14      0.00
   -6  -13    4     -0.52      0.00
    9  -13    4     -0.36      0.00
   10  -13    4      0.73      0.00
   -8  -12    4     -0.13      0.00
   -7  -12    4      0.19      0.00
   10  -12    4     -0.09      0.00
   11  -12    4      0.24      0.00
   -9  -11    4     -0.21      0.00
   -8  -11    4      0.21      0.00
   11  -11    4      0.34      0.00
  -10  -10    4      0.00      0.00
   -9  -10    4      0.24      0.00
   11  -10    4      0.58      0.00
   12  -10    4      0.64      0.00
  -11   -9    4      0.11      0.00
  -10   -9    4      0.41      0.00
   12   -9    4      0.12      0.00
  -11   -8    4      0.20      0.00
   12   -8    4      0.57      0.00
   13   -8    4     -0.34      0.00
  -12   -7    4      0.16      0.00
   13   -7    4     -0.91      0.00
  -12   -6    4      0.01      0.00
   13   -6    4     -0.16      0.00
  -13   -5    4     -0.89      0.00
   13   -5    4      0.54      0.00
  -13   -4    4     -1.14      0.00
   13   -4    4      1.41      0.00
   14   -4    4      0.91      0.00
  -14   -3    4     -0.33      0.00
  -13   -3    4     -0.57      0.00
   13   -3    4      1.47      0.00
   14   -3    4      0.86      0.00
  -14   -2    4     -0.22      0.00
   13   -2    4      0.53      0.00
   14   -2    4     -0.16      0.00
  -14   -1    4      0.81      0.00
   13   -1    4     -0.59      0.00
  -14    0    4      0.28      0.00
   13    0    4     -0.72      0.00
  -14    1    4      0.40      0.00
   -1    1    4     14.20      0.00
   13    1    4     -0.24      0.00
  -14    2    4      1.93      0.00
   13    2    4     -0.04      0.00
  -14    3    4      0.55      0.00
   12    3    4      0.90      0.00
   13    3    4      0.66      0.00
  -14    4    4      0.13      0.00
   12    4    4      0.57      0.00
  -14    5    4     -0.24      0.00
   11    5    4      0.16      0.00
   12    5    4     -0.10      0.00
  -14    6    4     -0.31      0.00
   11    6    4      0.28      0.00
  -14    7    4     -0.59      0.00
  -13    7    4      0.26      0.00
   10    7    4      0.34      0.00
   11    7    4      0.44      0.00
  -13    8    4      0.30      0.00
   10    8    4     -0.32      0.00
  -13    9    4     -0.62      0.00
    9    9    4     -0.96      0.00
  -12   10    4      0.11      0.00
    8   10    4     -0.97      0.00
  -12   11    4     -0.15      0.00
  -11   11    4     -0.39      0.00
    7   11    4     -0.63      0.00
    8   11    4     -0.01      0.00
  -11   12    4     -0.03      0.00
  -10   12    4     -0.46      0.00
    5   12    4     -0.93      0.00
    6   12    4      0.16      0.00
  -10   13    4      0.22      0.00
   -9   13    4      0.26      0.00
    4   13    4      0.55      0.00
    5   13    4      0.95      0.00
   -9   14    4      0.55      0.00
   -8   14    4     -0.40      0.00
   -7   14    4     -0.40      0.00
   -6   14    4     -0.38      0.00
    1   14    4     -0.31      0.00
    2   14    4     -0.47      0.00
    3   14    4      0.26      0.00
   -7   15    4     -0.54      0.00
   -6   15    4     -0.02      0.00
   -5   15    4      1.10      0.00
   -4   15    4      0.53      0.00
   -3   15    4      0.07      0.00
   -2   15    4     -0.51      0.00
   -1   15    4     -0.59      0.00
    0   15    4     -0.26      0.00
    1   15    4     -0.42      0.00
   -3  -15    5     -0.44      0.00
   -2  -15    5     -0.75      0.00
   -1  -15    5     -0.25      0.00
    0  -15    5      1.21      0.00
    1  -15    5      1.30      0.00
    2  -15    5      0.58      0.00
    3  -15    5      0.78      0.00
    4  -15    5      0.35      0.00
    5  -15    5      0.04      0.00
    6  -15    5      0.17      0.00
    7  -15    5      0.05      0.00
   -5  -14    5     -0.42      0.00
   -4  -14    5     -0.83      0.00
    7  -14    5     -0.45      0.00
    8  -14    5     -0.59      0.00
   -7  -13    5     -0.44      0.00
   -6  -13    5     -1.20      0.00
    8  -13    5     -1.31      0.00
    9  -13    5     -0.31      0.00
   10  -13    5      0.61      0.00
   -8  -12    5     -0.26      0.00
   -7  -12    5     -0.59      0.00
   10  -12    5      0.70      0.00
   -9  -11    5     -0.06      0.00
   -8  -11    5      0.12      0.00
   11  -11    5      0.52      0.00
  -10  -10    5     -0.01      0.00
   -9  -10    5      0.13      0.00
   11  -10    5      0.65      0.00
   12  -10    5      1.01      0.00
  -11   -9    5     -0.03      0.00
  -10   -9    5      0.04      0.00
   12   -9    5      0.24      0.00
  -11   -8    5     -0.15      0.00
   12   -8    5      0.28      0.00
   13   -8    5     -0.15      0.00
  -12   -7    5     -0.02      0.00
   13   -7    5     -0.68      0.00
  -13   -6    5      0.10      0.00
  -12   -6    5      0.48      0.00
   13   -6    5     -0.01      0.00
  -13   -5    5     -0.24      0.00
   13   -5    5      0.65      0.00
  -13   -4    5     -1.05      0.00
   13   -4    5      1.27      0.00
  -14   -3    5     -0.43      0.00
  -13   -3    5     -0.45      0.00
   13   -3    5      1.32      0.00
  -14   -2    5     -0.46      0.00
   13   -2    5      0.67      0.00
  -14   -1    5      0.51      0.00
   13   -1    5     -0.31      0.00
  -14    0    5      0.50      0.00
   13    0    5     -0.70      0.00
  -14    1    5     -0.08      0.00
   -1    1    5    -10.70      0.00
   13    1    5     -0.36      0.00
  -14    2    5      1.43      0.00
   12    2    5     -0.38      0.00
   13    2    5     -0.35      0.00
  -14    3    5      0.61      0.00
   12    3    5      0.43      0.00
  -14    4    5     -0.13      0.00
   12    4    5      0.48      0.00
  -14    5    5     -0.10      0.00
   11    5    5      0.06      0.00
   12    5    5     -0.12      0.00
  -14    6    5     -0.34      0.00
   11    6    5     -0.06      0.00
  -14    7    5     -0.54      0.00
  -13    7    5     -0.25      0.00
   10    7    5      0.11      0.00
  -13    8    5      0.68      0.00
    9    8    5     -0.53      0.00
   10    8    5      0.13      0.00
  -13    9    5     -0.86      0.00
  -12    9    5     -1.00      0.00
    9    9    5     -0.62      0.00
  -12   10    5     -0.11      0.00
    8   10    5     -0.96      0.00
  -12   11    5      0.28      0.00
  -11   11    5      0.08      0.00
    6   11    5     -1.35      0.00
    7   11    5     -0.92      0.00
  -11   12    5     -0.10      0.00
  -10   12    5     -0.65      0.00
    5   12    5     -1.11      0.00
    6   12    5     -0.42      0.00
  -10   13    5     -0.18      0.00
   -9   13    5      0.23      0.00
   -8   13    5      0.06      0.00
    3   13    5     -0.46      0.00
    4   13    5      0.18      0.00
    5   13    5      0.21      0.00
   -8   14    5      0.09      0.00
   -7   14    5      0.17      0.00
   -6   14    5      0.27      0.00
    0   14    5      0.25      0.00
    1   14    5     -0.27      0.00
    2   14    5     -0.37      0.00
    3   14    5      0.32      0.00
   -6   15    5     -0.01      0.00
   -5   15    5      0.32      0.00
   -4   15    5      0.37      0.00
   -3   15    5     -0.11      0.00
   -2   15    5     -0.06      0.00
   -1   15    5      0.02      0.00
    0   15    5     -0.05      0.00
    1   15    5     -0.29      0.00
   -4  -15    6      0.11      0.00
   -3  -15    6     -0.25      0.00
   -2  -15    6     -0.65      0.00
   -1  -15    6      0.36      0.00
    0  -15    6      1.77      0.00
    1  -15    6      2.00      0.00
    2  -15    6      0.96      0.00
    3  -15    6      0.35      0.00
    4  -15    6      0.19      0.00
    5  -15    6     -0.07      0.00
    6  -15    6     -0.17      0.00
    7  -15    6     -0.11      0.00
   -5  -14    6     -0.08      0.00
   -4  -14    6     -0.42      0.00
    7  -14    6     -0.13      0.00
    8  -14    6      0.02      0.00
   -7  -13    6     -0.59      0.00
   -6  -13    6     -1.39      0.00
    8  -13    6     -0.98      0.00
    9  -13    6     -0.49      0.00
   -8  -12    6     -0.59      0.00
   -7  -12    6     -1.45      0.00
    9  -12    6      0.85      0.00
   10  -12    6      0.71      0.00
   -9  -11    6     -0.12      0.00
   -8  -11    6     -0.23      0.00
   10  -11    6      0.43      0.00
   11  -11    6      0.31      0.00
  -10  -10    6     -0.05      0.00
   -9  -10    6      0.12      0.00
   11  -10    6      0.73      0.00
   12  -10    6      0.74      0.00
  -11   -9    6     -0.23      0.00
  -10   -9    6     -0.24      0.00
   12   -9    6      0.56      0.00
  -11   -8    6     -0.43      0.00
   12   -8    6      0.02      0.00
  -12   -7    6     -0.27      0.00
   12   -7    6      0.01      0.00
   13   -7    6     -0.10      0.00
  -13   -6    6      0.20      0.00
  -12   -6    6      0.47      0.00
   13   -6    6      0.14      0.00
  -13   -5    6      0.57      0.00
   13   -5    6      0.80      0.00
  -13   -4    6     -0.44      0.00
   13   -4    6      1.00      0.00
  -14   -3    6     -0.34      0.00
   13   -3    6      1.01      0.00
  -14   -2    6     -0.42      0.00
   13   -2    6      0.76      0.00
  -14   -1    6      0.19      0.00
   13   -1    6      0.25      0.00
  -14    0    6      0.73      0.00
   13    0    6     -0.43      0.00
  -14    1    6     -0.32      0.00
   -1    1    6    -14.56      0.00
   13    1    6     -0.25      0.00
  -14    2    6      0.70      0.00
   12    2    6     -0.66      0.00
  -14    3    6      0.36      0.00
   12    3    6     -0.25      0.00
  -14    4    6     -0.26      0.00
   11    4    6      0.42      0.00
   12    4    6      0.27      0.00
  -14    5    6     -0.04      0.00
   11    5    6      0.04      0.00
  -14    6    6      0.18      0.00
   10    6    6     -0.03      0.00
   11    6    6     -0.07      0.00
  -14    7    6     -0.54      0.00
  -13    7    6     -0.04      0.00
   10    7    6      0.27      0.00
  -13    8    6      0.44      0.00
    9    8    6     -0.24      0.00
   10    8    6      0.29      0.00
  -13    9    6     -0.04      0.00
  -12    9    6     -0.52      0.00
    8    9    6     -0.42      0.00
    9    9    6     -0.42      0.00
  -12   10    6     -0.36      0.00
    7   10    6     -0.33      0.00
    8   10    6     -0.84      0.00
  -12   11    6      0.35      0.00
  -11   11    6      0.20      0.00
    6   11    6     -0.95      0.00
    7   11    6     -0.88      0.00
  -11   12    6     -0.09      0.00
  -10   12    6     -0.89      0.00
    5   12    6     -1.22      0.00
    6   12    6     -0.44      0.00
  -10   13    6     -0.24      0.00
   -9   13    6     -0.35      0.00
   -8   13    6      0.19      0.00
    3   13    6      0.03      0.00
    4   13    6     -0.37      0.00
   -8   14    6      0.13      0.00
   -7   14    6      0.99      0.00
   -6   14    6      1.20      0.00
   -5   14    6     -0.70      0.00
   -1   14    6      0.43      0.00
    0   14    6     -0.18      0.00
    1   14    6     -0.22      0.00
    2   14    6     -0.04      0.00
    3   14    6      0.10      0.00
   -6   15    6     -0.31      0.00
   -5   15    6     -0.27      0.00
   -4   15    6     -0.51      0.00
   -3   15    6     -0.01      0.00
   -2   15    6      0.42      0.00
   -1   15    6      0.27      0.00
    0   15    6      0.13      0.00
   -4  -15    7      0.11      0.00
   -3  -15    7     -0.26      0.00
   -2  -15    7     -0.16      0.00
   -1  -15    7      0.38      0.00
    0  -15    7      1.64      0.00
    1  -15    7      2.13      0.00
    2  -15    7      1.04      0.00
    3  -15    7      0.23      0.00
    4  -15    7     -0.07      0.00
    5  -15    7     -0.15      0.00
    6  -15    7     -0.29      0.00
   -5  -14    7      0.40      0.00
   -4  -14    7     -0.18      0.00
    6  -14    7      0.11      0.00
    7  -14    7      0.09      0.00
    8  -14    7      0.53      0.00
   -7  -13    7     -0.26      0.00
   -6  -13    7     -0.89      0.00
    8  -13    7     -0.35      0.00
    9  -13    7     -0.41      0.00
   -8  -12    7     -0.59      0.00
   -7  -12    7     -1.91      0.00
    9  -12    7      0.37      0.00
   10  -12    7      0.43      0.00
   -9  -11    7     -0.05      0.00
   -8  -11    7     -0.76      0.00
   10  -11    7      0.42      0.00
   11  -11    7      0.40      0.00
  -10  -10    7      0.13      0.00
   -9  -10    7      0.12      0.00
   11  -10    7      0.25      0.00
  -11   -9    7     -0.17      0.00
  -10   -9    7     -0.37      0.00
   11   -9    7      0.97      0.00
   12   -9    7      0.49      0.00
  -11   -8    7     -0.61      0.00
   12   -8    7      0.11      0.00
  -12   -7    7     -0.59      0.00
   12   -7    7      0.16      0.00
   13   -7    7      0.20      0.00
  -13   -6    7     -0.13      0.00
  -12   -6    7     -0.13      0.00
   12   -6    7      0.11      0.00
   13   -6    7      0.46      0.00
  -13   -5    7      0.87      0.00
   13   -5    7      0.67      0.00
  -13   -4    7      0.28      0.00
   13   -4    7      0.90      0.00
  -14   -3    7     -0.04      0.00
   13   -3    7      0.74      0.00
  -14   -2    7     -0.15      0.00
   13   -2    7      0.70      0.00
  -14   -1    7      0.27      0.00
   13   -1    7      0.72      0.00
  -14    0    7      0.88      0.00
   12    0    7     -0.21      0.00
   13    0    7     -0.05      0.00
  -14    1    7     -0.11      0.00
   12    1    7     -0.47      0.00
  -14    2    7      0.03      0.00
   12    2    7     -0.82      0.00
  -14    3    7      0.22      0.00
   12    3    7     -0.82      0.00
  -14    4    7     -0.52      0.00
   11    4    7     -0.09      0.00
   12    4    7     -0.09      0.00
  -14    5    7      0.27      0.00
   11    5    7      0.13      0.00
  -14    6    7      0.36      0.00
   10    6    7      0.33      0.00
   11    6    7     -0.03      0.00
  -14    7    7      0.09      0.00
  -13    7    7     -0.19      0.00
   10    7    7      0.35      0.00
  -13    8    7      0.50      0.00
    9    8    7     -0.09      0.00
  -13    9    7      0.48      0.00
  -12    9    7      0.59      0.00
    8    9    7     -0.50      0.00
  -12   10    7     -0.58      0.00
    7   10    7     -0.13      0.00
    8   10    7     -0.40      0.00
  -12   11    7      0.28      0.00
  -11   11    7      0.10      0.00
    6   11    7     -0.26      0.00
    7   11    7     -0.67      0.00
  -11   12    7     -0.11      0.00
  -10   12    7     -0.55      0.00
    4   12    7     -0.11      0.00
    5   12    7     -0.62      0.00
  -10   13    7     -0.44      0.00
   -9   13    7     -0.29      0.00
   -8   13    7     -0.21      0.00
    2   13    7      0.33      0.00
    3   13    7      0.27      0.00
    4   13    7     -0.28      0.00
   -8   14    7      0.57      0.00
   -7   14    7      1.12      0.00
   -6   14    7      1.47      0.00
   -5   14    7     -0.13      0.00
   -4   14    7     -1.78      0.00
   -3   14    7     -1.10      0.00
   -2   14    7     -0.19      0.00
   -1   14    7      0.25      0.00
    0   14    7     -0.36      0.00
    1   14    7     -0.32      0.00
    2   14    7      0.29      0.00
   -5   15    7     -1.21      0.00
   -4   15    7     -0.59      0.00
   -3   15    7     -0.07      0.00
   -2   15    7      0.68      0.00
   -1   15    7      0.37      0.00
   -4  -15    8     -0.06      0.00
   -3  -15    8      0.13      0.00
   -2  -15    8     -0.15      0.00
   -1  -15    8      0.19      0.00
    0  -15    8      0.61      0.00
    1  -15    8      1.43      0.00
    2  -15    8      1.03      0.00
    3  -15    8     -0.12      0.00
    4  -15    8     -0.07      0.00
    5  -15    8      0.00      0.00
    6  -15    8     -0.33      0.00
   -5  -14    8      0.62      0.00
   -4  -14    8      0.32      0.00
    6  -14    8      0.14      0.00
    7  -14    8     -0.03      0.00
    8  -14    8      0.74      0.00
   -7  -13    8      0.08      0.00
   -6  -13    8     -0.04      0.00
    8  -13    8      0.27      0.00
    9  -13    8     -0.38      0.00
   -8  -12    8     -0.55      0.00
   -7  -12    8     -1.62      0.00
    9  -12    8     -0.22      0.00
   10  -12    8     -0.22      0.00
   -9  -11    8     -0.23      0.00
   -8  -11    8     -1.04      0.00
   10  -11    8      0.36      0.00
   11  -11    8      0.34      0.00
  -10  -10    8      0.06      0.00
   -9  -10    8      0.31      0.00
   11  -10    8      0.23      0.00
  -11   -9    8     -0.27      0.00
  -10   -9    8     -0.06      0.00
   11   -9    8      0.18      0.00
   12   -9    8      0.29      0.00
  -11   -8    8     -0.34      0.00
   12   -8    8      0.15      0.00
  -12   -7    8     -0.38      0.00
   12   -7    8      0.37      0.00
  -13   -6    8     -0.28      0.00
  -12   -6    8     -0.92      0.00
   12   -6    8      0.70      0.00
   13   -6    8      0.54      0.00
  -13   -5    8      0.21      0.00
   12   -5    8      0.40      0.00
   13   -5    8      0.56      0.00
  -13   -4    8      0.63      0.00
   12   -4    8      0.70      0.00
   13   -4    8      0.68      0.00
  -14   -3    8      0.43      0.00
   13   -3    8      0.66      0.00
  -14   -2    8      0.25      0.00
   12   -2    8      0.74      0.00
   13   -2    8      0.45      0.00
  -14   -1    8      0.57      0.00
   12   -1    8      0.93      0.00
   13   -1    8      0.78      0.00
  -14    0    8      1.15      0.00
   12    0    8      0.09      0.00
  -14    1    8      0.15      0.00
   12    1    8     -0.57      0.00
  -14    2    8     -0.20      0.00
   12    2    8     -0.85      0.00
  -14    3    8      0.09      0.00
   11    3    8     -1.17      0.00
   12    3    8     -0.99      0.00
  -14    4    8     -0.45      0.00
   11    4    8     -0.46      0.00
  -14    5    8      0.25      0.00
   10    5    8      0.13      0.00
   11    5    8     -0.10      0.00
  -14    6    8      0.85      0.00
   10    6    8      0.38      0.00
  -14    7    8      0.28      0.00
  -13    7    8      0.38      0.00
    9    7    8      0.69      0.00
   10    7    8      0.77      0.00
  -13    8    8     -0.21      0.00
    8    8    8     -0.01      0.00
    9    8    8      0.60      0.00
  -13    9    8      1.12      0.00
  -12    9    8      1.20      0.00
    8    9    8     -0.26      0.00
  -12   10    8     -0.03      0.00
    7   10    8     -0.26      0.00
  -11   11    8     -0.16      0.00
    5   11    8      0.28      0.00
    6   11    8     -0.15      0.00
  -11   12    8     -0.24      0.00
  -10   12    8     -0.29      0.00
   -9   12    8     -0.02      0.00
    4   12    8      0.15      0.00
    5   12    8     -0.40      0.00
   -9   13    8     -0.57      0.00
   -8   13    8     -0.07      0.00
   -7   13    8     -0.64      0.00
    1   13    8      0.26      0.00
    2   13    8      0.62      0.00
    3   13    8      0.35      0.00
   -8   14    8      0.17      0.00
   -7   14    8      0.97      0.00
   -6   14    8      1.18      0.00
   -5   14    8      0.05      0.00
   -4   14    8     -0.69      0.00
   -3   14    8     -0.63      0.00
   -2   14    8      0.13      0.00
   -1   14    8      0.05      0.00
    0   14    8     -0.45      0.00
    1   14    8     -0.05      0.00
   -4   15    8     -0.83      0.00
   -3   15    8      0.33      0.00
   -3  -15    9      0.08      0.00
   -2  -15    9      0.07      0.00
   -1  -15    9     -0.55      0.00
    0  -15    9     -0.30      0.00
    1  -15    9      0.34      0.00
    2  -15    9      0.44      0.00
    3  -15    9     -0.13      0.00
    4  -15    9     -0.11      0.00
    5  -15    9      0.34      0.00
    6  -15    9      0.03      0.00
   -5  -14    9      0.66      0.00
   -4  -14    9      0.35      0.00
   -3  -14    9      0.31      0.00
    6  -14    9      0.15      0.00
    7  -14    9     -0.11      0.00
    8  -14    9      0.55      0.00
   -7  -13    9      0.59      0.00
   -6  -13    9      0.74      0.00
    7  -13    9      0.70      0.00
    8  -13    9      0.64      0.00
    9  -13    9     -0.27      0.00
   -8  -12    9     -0.09      0.00
   -7  -12    9     -0.90      0.00
    9  -12    9     -0.72      0.00
   10  -12    9     -0.53      0.00
   -9  -11    9     -0.16      0.00
   -8  -11    9     -1.23      0.00
   10  -11    9     -0.03      0.00
  -10  -10    9      0.12      0.00
   -9  -10    9      0.27      0.00
   10  -10    9      1.24      0.00
   11  -10    9      0.26      0.00
  -11   -9    9     -0.08      0.00
  -10   -9    9      0.23      0.00
   11   -9    9     -0.26      0.00
  -12   -8    9      0.06      0.00
  -11   -8    9     -0.05      0.00
   11   -8    9      0.40      0.00
   12   -8    9      0.28      0.00
  -12   -7    9     -0.06      0.00
   12   -7    9      0.34      0.00
  -13   -6    9     -0.52      0.00
  -12   -6    9     -0.90      0.00
   12   -6    9      1.22      0.00
  -13   -5    9     -0.44      0.00
   12   -5    9      0.69      0.00
  -13   -4    9      0.22      0.00
   12   -4    9      0.38      0.00
  -14   -3    9      0.52      0.00
   12   -3    9      0.77      0.00
   13   -3    9      0.55      0.00
  -14   -2    9      0.70      0.00
   12   -2    9      0.82      0.00
  -14   -1    9      0.79      0.00
   12   -1    9      0.86      0.00
  -14    0    9      1.27      0.00
   12    0    9      0.40      0.00
  -14    1    9      0.37      0.00
   12    1    9     -0.58      0.00
  -14    2    9     -0.37      0.00
   11    2    9     -1.34      0.00
   12    2    9     -0.61      0.00
  -14    3    9      0.23      0.00
   11    3    9     -1.37      0.00
  -14    4    9     -0.35      0.00
   11    4    9     -0.84      0.00
  -14    5    9      0.47      0.00
   10    5    9     -0.03      0.00
  -14    6    9      0.91      0.00
   10    6    9      0.51      0.00
  -14    7    9      0.81      0.00
  -13    7    9      0.31      0.00
    9    7    9      1.27      0.00
  -13    8    9     -0.29      0.00
    8    8    9      0.85      0.00
    9    8    9      0.90      0.00
  -13    9    9      0.58      0.00
  -12    9    9      1.39      0.00
    7    9    9     -0.50      0.00
    8    9    9      0.04      0.00
  -12   10    9      0.63      0.00
  -11   10    9      0.47      0.00
    6   10    9     -0.71      0.00
    7   10    9     -0.32      0.00
  -11   11    9     -0.28      0.00
  -10   11    9      0.10      0.00
    5   11    9     -0.18      0.00
    6   11    9      0.00      0.00
  -10   12    9      0.09      0.00
   -9   12    9      0.09      0.00
    3   12    9     -0.06      0.00
    4   12    9     -0.02      0.00
    5   12    9      0.05      0.00
   -9   13    9     -0.32      0.00
   -8   13    9     -0.43      0.00
   -7   13    9     -0.53      0.00
    1   13    9      0.97      0.00
    2   13    9      0.39      0.00
    3   13    9      0.19      0.00
   -7   14    9      0.11      0.00
   -6   14    9      0.60      0.00
   -5   14    9      0.47      0.00
   -4   14    9     -0.29      0.00
   -3   14    9      0.14      0.00
   -2   14    9     -0.07      0.00
   -1   14    9      0.01      0.00
    0   14    9      0.00      0.00
    1   14    9     -0.05      0.00
   -3  -15   10      0.17      0.00
   -2  -15   10     -0.33      0.00
   -1  -15   10     -0.63      0.00
    0  -15   10     -0.98      0.00
    1  -15   10     -0.43      0.00
    2  -15   10     -0.08      0.00
    3  -15   10     -0.19      0.00
    4  -15   10      0.21      0.00
    5  -15   10      0.56      0.00
   -5  -14   10      0.48      0.00
   -4  -14   10      0.34      0.00
   -3  -14   10     -0.12      0.00
    5  -14   10      1.06      0.00
    6  -14   10      0.19      0.00
    7  -14   10     -0.25      0.00
   -7  -13   10      0.68      0.00
   -6  -13   10      1.22      0.00
    7  -13   10      0.58      0.00
    8  -13   10      0.63      0.00
   -8  -12   10      0.17      0.00
   -7  -12   10      0.15      0.00
    8  -12   10     -0.48      0.00
    9  -12   10     -0.93      0.00
   -9  -11   10     -0.29      0.00
   -8  -11   10     -1.02      0.00
    9  -11   10     -0.50      0.00
   10  -11   10     -0.39      0.00
  -10  -10   10     -0.21      0.00
   -9  -10   10      0.14      0.00
   10  -10   10      1.26      0.00
   11  -10   10      0.60      0.00
  -11   -9   10     -0.33      0.00
  -10   -9   10      0.54      0.00
   11   -9   10     -0.64      0.00
  -11   -8   10      0.48      0.00
   11   -8   10      0.20      0.00
   12   -8   10      0.11      0.00
  -12   -7   10      0.80      0.00
   11   -7   10      0.07      0.00
   12   -7   10      0.24      0.00
  -13   -6   10     -0.01      0.00
  -12   -6   10     -0.31      0.00
   12   -6   10      1.17      0.00
  -13   -5   10     -0.92      0.00
   12   -5   10      1.14      0.00
  -13   -4   10     -0.29      0.00
   12   -4   10      0.16      0.00
  -14   -3   10      0.45      0.00
  -13   -3   10      0.16      0.00
   12   -3   10      0.38      0.00
  -14   -2   10      0.87      0.00
   12   -2   10      0.52      0.00
  -14   -1   10      0.67      0.00
   12   -1   10      0.58      0.00
  -14    0   10      1.12      0.00
   12    0   10      0.35      0.00
  -14    1   10      0.34      0.00
   11    1   10     -1.33      0.00
   12    1   10     -0.31      0.00
  -14    2   10     -0.50      0.00
   11    2   10     -1.36      0.00
  -14    3   10      0.26      0.00
   11    3   10     -1.44      0.00
  -14    4   10      0.06      0.00
   10    4   10     -0.63      0.00
   11    4   10     -0.69      0.00
  -14    5   10      0.46      0.00
   10    5   10      0.07      0.00
  -14    6   10      1.25      0.00
  -13    6   10      1.10      0.00
    9    6   10      0.47      0.00
   10    6   10      0.05      0.00
  -14    7   10      0.77      0.00
  -13    7   10      0.82      0.00
    9    7   10      1.01      0.00
  -13    8   10     -0.83      0.00
    8    8   10      1.29      0.00
  -13    9   10      0.17      0.00
  -12    9   10      0.45      0.00
    7    9   10      0.20      0.00
  -12   10   10      1.37      0.00
  -11   10   10      1.03      0.00
    6   10   10     -0.49      0.00
    7   10   10     -0.32      0.00
  -11   11   10     -0.12      0.00
  -10   11   10     -0.07      0.00
    4   11   10     -0.20      0.00
    5   11   10     -0.20      0.00
  -10   12   10      0.24      0.00
   -9   12   10      0.49      0.00
    2   12   10      0.53      0.00
    3   12   10     -0.14      0.00
    4   12   10     -0.05      0.00
   -9   13   10     -0.34      0.00
   -8   13   10     -0.08      0.00
   -7   13   10     -0.54      0.00
   -6   13   10     -0.96      0.00
   -1   13   10      0.62      0.00
    0   13   10      0.99      0.00
    1   13   10      0.92      0.00
    2   13   10      0.33      0.00
   -7   14   10     -0.10      0.00
   -6   14   10     -0.03      0.00
   -5   14   10      0.34      0.00
   -4   14   10      0.28      0.00
   -3   14   10     -0.16      0.00
   -2   14   10      0.12      0.00
   -1   14   10      0.02      0.00
    0   14   10      0.25      0.00
   -3  -15   11     -0.17      0.00
   -2  -15   11     -0.31      0.00
   -1  -15   11     -0.90      0.00
    0  -15   11     -0.68      0.00
    1  -15   11     -0.68      0.00
    2  -15   11     -0.29      0.00
    3  -15   11      0.21      0.00
    4  -15   11      0.32      0.00
    5  -15   11      0.59      0.00
   -5  -14   11      0.15      0.00
   -4  -14   11     -0.01      0.00
   -3  -14   11     -0.32      0.00
    4  -14   11      0.95      0.00
    5  -14   11      1.01      0.00
    6  -14   11      0.22      0.00
    7  -14   11     -0.34      0.00
   -7  -13   11      0.80      0.00
   -6  -13   11      1.03      0.00
   -5  -13   11      0.45      0.00
    7  -13   11      0.42      0.00
    8  -13   11      0.49      0.00
   -8  -12   11      0.62      0.00
   -7  -12   11      0.81      0.00
    8  -12   11     -0.39      0.00
    9  -12   11     -0.77      0.00
   -9  -11   11     -0.06      0.00
   -8  -11   11     -0.78      0.00
    9  -11   11     -0.71      0.00
   10  -11   11     -0.64      0.00
  -10  -10   11     -0.23      0.00
   -9  -10   11     -0.35      0.00
   10  -10   11      0.85      0.00
  -11   -9   11     -0.29      0.00
  -10   -9   11      0.25      0.00
   10   -9   11      0.88      0.00
   11   -9   11     -0.44      0.00
  -11   -8   11      0.34      0.00
   11   -8   11     -0.31      0.00
  -12   -7   11      1.06      0.00
   11   -7   11      0.32      0.00
   12   -7   11     -0.08      0.00
  -13   -6   11      0.31      0.00
  -12   -6   11      0.95      0.00
   11   -6   11      0.24      0.00
   12   -6   11      0.74      0.00
  -13   -5   11     -0.36      0.00
   12   -5   11      1.23      0.00
  -13   -4   11     -0.79      0.00
   12   -4   11      0.24      0.00
  -14   -3   11      0.00      0.00
  -13   -3   11     -0.06      0.00
   12   -3   11     -0.25      0.00
  -14   -2   11      0.91      0.00
   12   -2   11      0.06      0.00
  -14   -1   11      0.28      0.00
   12   -1   11     -0.01      0.00
  -14    0   11      0.63      0.00
   11    0   11      0.98      0.00
   12    0   11      0.28      0.00
  -14    1   11      0.27      0.00
   11    1   11     -0.46      0.00
  -14    2   11     -0.68      0.00
   11    2   11     -1.02      0.00
  -14    3   11      0.26      0.00
   10    3   11     -2.00      0.00
   11    3   11     -0.85      0.00
  -14    4   11      0.33      0.00
   10    4   11     -0.81      0.00
  -14    5   11      0.62      0.00
    9    5   11      0.93      0.00
   10    5   11     -0.23      0.00
  -14    6   11      1.09      0.00
  -13    6   11      1.15      0.00
    9    6   11      0.30      0.00
  -13    7   11      0.58      0.00
    8    7   11      0.91      0.00
    9    7   11      0.72      0.00
  -13    8   11     -0.51      0.00
  -12    8   11     -1.04      0.00
    7    8   11      1.03      0.00
    8    8   11      1.28      0.00
  -12    9   11     -0.35      0.00
    6    9   11      0.39      0.00
    7    9   11      0.63      0.00
  -12   10   11      1.04      0.00
  -11   10   11      0.97      0.00
    5   10   11      0.33      0.00
    6   10   11     -0.23      0.00
  -11   11   11     -0.04      0.00
  -10   11   11     -0.28      0.00
    4   11   11      0.17      0.00
    5   11   11     -0.27      0.00
  -10   12   11      0.20      0.00
   -9   12   11      0.51      0.00
   -8   12   11      0.51      0.00
    2   12   11      0.64      0.00
    3   12   11     -0.14      0.00
    4   12   11     -0.11      0.00
   -8   13   11     -0.09      0.00
   -7   13   11      0.24      0.00
   -6   13   11     -0.60      0.00
   -5   13   11     -0.80      0.00
   -4   13   11     -0.18      0.00
   -3   13   11     -0.09      0.00
   -2   13   11      0.41      0.00
   -1   13   11      0.31      0.00
    0   13   11      0.68      0.00
    1   13   11      0.83      0.00
    2   13   11     -0.02      0.00
   -6   14   11     -0.11      0.00
   -5   14   11      0.22      0.00
   -4   14   11      0.01      0.00
   -3   14   11      0.01      0.00
   -2   14   11     -0.19      0.00
   -1   14   11      0.22      0.00
   -3  -15   12     -0.14      0.00
   -2  -15   12     -0.68      0.00
   -1  -15   12     -0.59      0.00
    0  -15   12     -0.61      0.00
    1  -15   12     -0.16      0.00
    2  -15   12      0.01      0.00
    3  -15   12      0.49      0.00
    4  -15   12      0.46      0.00
    5  -15   12      0.17      0.00
   -5  -14   12      0.01      0.00
   -4  -14   12     -0.15      0.00
   -3  -14   12     -0.79      0.00
   -2  -14   12     -1.01      0.00
    4  -14   12      0.79      0.00
    5  -14   12      0.89      0.00
    6  -14   12      0.06      0.00
   -7  -13   12      0.45      0.00
   -6  -13   12      0.70      0.00
   -5  -13   12     -0.07      0.00
    6  -13   12      0.31      0.00
    7  -13   12      0.19      0.00
    8  -13   12      0.32      0.00
   -8  -12   12      0.60      0.00
   -7  -12   12      1.24      0.00
    8  -12   12     -0.15      0.00
    9  -12   12     -0.51      0.00
   -9  -11   12     -0.03      0.00
   -8  -11   12     -0.23      0.00
    9  -11   12     -0.62      0.00
  -10  -10   12     -0.41      0.00
   -9  -10   12     -0.57      0.00
    9  -10   12     -0.14      0.00
   10  -10   12      0.08      0.00
  -11   -9   12     -0.55      0.00
  -10   -9   12     -0.04      0.00
   10   -9   12      0.86      0.00
   11   -9   12     -0.18      0.00
  -11   -8   12      0.13      0.00
   10   -8   12     -0.97      0.00
   11   -8   12     -0.54      0.00
  -12   -7   12      1.25      0.00
   11   -7   12      0.06      0.00
  -12   -6   12      1.56      0.00
   11   -6   12     -0.04      0.00
  -13   -5   12      0.15      0.00
   11   -5   12      1.14      0.00
   12   -5   12      1.05      0.00
  -13   -4   12     -0.60      0.00
   11   -4   12      1.06      0.00
   12   -4   12      0.36      0.00
  -14   -3   12     -0.14      0.00
  -13   -3   12     -0.48      0.00
   11   -3   12     -0.60      0.00
   12   -3   12     -0.43      0.00
  -14   -2   12      0.61      0.00
   11   -2   12     -0.76      0.00
   12   -2   12     -0.53      0.00
  -14   -1   12     -0.01      0.00
   11   -1   12     -0.11      0.00
  -14    0   12      0.03      0.00
   11    0   12      0.83      0.00
  -14    1   12      0.25      0.00
   11    1   12      0.00      0.00
  -14    2   12     -0.67      0.00
   10    2   12     -1.29      0.00
   11    2   12     -0.09      0.00
  -14    3   12      0.15      0.00
   10    3   12     -1.22      0.00
  -14    4   12      0.50      0.00
   10    4   12     -1.07      0.00
  -14    5   12      0.50      0.00
  -13    5   12     -0.02      0.00
    9    5   12      0.13      0.00
   10    5   12     -0.08      0.00
  -14    6   12      0.91      0.00
  -13    6   12      0.32      0.00
    8    6   12      0.68      0.00
    9    6   12      0.26      0.00
  -13    7   12      0.84      0.00
    8    7   12      0.81      0.00
  -13    8   12     -0.57      0.00
  -12    8   12     -0.32      0.00
    7    8   12      0.90      0.00
    8    8   12      0.70      0.00
  -12    9   12     -1.20      0.00
  -11    9   12     -1.48      0.00
    6    9   12      0.15      0.00
    7    9   12      0.69      0.00
  -12   10   12      0.41      0.00
  -11   10   12      0.17      0.00
    5   10   12      0.26      0.00
    6   10   12      0.26      0.00
  -11   11   12      0.15      0.00
  -10   11   12     -0.25      0.00
   -9   11   12     -0.04      0.00
    3   11   12      0.68      0.00
    4   11   12      0.47      0.00
   -9   12   12      0.49      0.00
   -8   12   12      0.37      0.00
   -7   12   12      0.99      0.00
    1   12   12     -0.02      0.00
    2   12   12      0.38      0.00
    3   12   12      0.25      0.00
   -8   13   12      0.40      0.00
   -7   13   12      0.34      0.00
   -6   13   12      0.10      0.00
   -5   13   12     -0.51      0.00
   -4   13   12     -0.01      0.00
   -3   13   12      0.60      0.00
   -2   13   12      0.03      0.00
   -1   13   12      0.27      0.00
    0   13   12      0.24      0.00
    1   13   12      0.35      0.00
   -4   14   12      0.13      0.00
   -3   14   12     -0.37      0.00
   -2  -15   13     -0.47      0.00
   -1  -15   13     -0.88      0.00
    0  -15   13     -0.28      0.00
    1  -15   13      0.11      0.00
    2  -15   13      0.46      0.00
    3  -15   13      0.68      0.00
    4  -15   13      0.22      0.00
   -5  -14   13     -0.12      0.00
   -4  -14   13     -0.01      0.00
   -3  -14   13     -0.71      0.00
   -2  -14   13     -1.41      0.00
    3  -14   13      0.74      0.00
    4  -14   13      0.70      0.00
    5  -14   13      0.43      0.00
    6  -14   13      0.07      0.00
   -7  -13   13      0.29      0.00
   -6  -13   13      0.08      0.00
   -5  -13   13     -0.24      0.00
    6  -13   13     -0.06      0.00
    7  -13   13      0.06      0.00
   -8  -12   13      0.60      0.00
   -7  -12   13      1.00      0.00
    7  -12   13      0.56      0.00
    8  -12   13      0.11      0.00
   -9  -11   13      0.17      0.00
   -8  -11   13      0.08      0.00
    8  -11   13     -0.16      0.00
    9  -11   13     -0.50      0.00
  -10  -10   13     -0.18      0.00
   -9  -10   13     -0.69      0.00
    9  -10   13     -0.78      0.00
   10  -10   13     -0.67      0.00
  -11   -9   13     -0.28      0.00
  -10   -9   13     -0.41      0.00
   10   -9   13      0.48      0.00
  -11   -8   13     -0.50      0.00
   10   -8   13     -1.08      0.00
   11   -8   13     -0.68      0.00
  -12   -7   13      0.56      0.00
  -11   -7   13      0.84      0.00
   10   -7   13     -0.98      0.00
   11   -7   13     -0.18      0.00
  -12   -6   13      1.84      0.00
   11   -6   13     -0.57      0.00
  -13   -5   13      0.82      0.00
  -12   -5   13      0.99      0.00
   11   -5   13      0.56      0.00
  -13   -4   13     -0.41      0.00
   11   -4   13      1.10      0.00
  -14   -3   13     -0.34      0.00
  -13   -3   13     -0.66      0.00
   11   -3   13     -0.12      0.00
  -14   -2   13      0.39      0.00
  -13   -2   13     -0.08      0.00
   11   -2   13     -1.56      0.00
  -14   -1   13     -0.09      0.00
   11   -1   13     -0.98      0.00
  -14    0   13     -0.36      0.00
   11    0   13     -0.03      0.00
  -14    1   13      0.29      0.00
   10    1   13      0.61      0.00
   11    1   13      0.42      0.00
  -14    2   13     -0.43      0.00
   10    2   13      0.17      0.00
  -14    3   13      0.08      0.00
   10    3   13     -0.43      0.00
  -14    4   13      0.48      0.00
    9    4   13     -1.21      0.00
   10    4   13     -0.63      0.00
  -14    5   13      0.32      0.00
  -13    5   13     -0.35      0.00
    9    5   13     -0.10      0.00
  -13    6   13     -0.17      0.00
    8    6   13      0.25      0.00
    9    6   13     -0.11      0.00
  -13    7   13      0.46      0.00
    7    7   13      0.41      0.00
    8    7   13      0.31      0.00
  -13    8   13      0.01      0.00
  -12    8   13      0.03      0.00
    6    8   13      0.26      0.00
    7    8   13      0.63      0.00
  -12    9   13     -0.94      0.00
  -11    9   13     -1.64      0.00
    5    9   13     -0.60      0.00
    6    9   13     -0.05      0.00
  -11   10   13     -0.45      0.00
  -10   10   13      0.39      0.00
    4   10   13      0.03      0.00
    5   10   13      0.07      0.00
  -10   11   13      0.08      0.00
   -9   11   13     -0.20      0.00
    2   11   13      0.03      0.00
    3   11   13      0.68      0.00
    4   11   13      0.46      0.00
   -9   12   13      0.23      0.00
   -8   12   13      0.35      0.00
   -7   12   13      0.43      0.00
   -6   12   13      0.94      0.00
   -1   12   13      0.59      0.00
    0   12   13     -0.25      0.00
    1   12   13     -0.23      0.00
    2   12   13      0.48      0.00
   -7   13   13      0.74      0.00
   -6   13   13     -0.04      0.00
   -5   13   13     -0.15      0.00
   -4   13   13      0.37      0.00
   -3   13   13      0.65      0.00
   -2   13   13      0.39      0.00
   -1   13   13     -0.27      0.00
    0   13   13     -0.01      0.00
   -2  -15   14     -0.44      0.00
   -1  -15   14     -0.65      0.00
    0  -15   14     -0.66      0.00
    1  -15   14      0.26      0.00
    2  -15   14      0.47      0.00
    3  -15   14      0.47      0.00
   -5  -14   14      0.14      0.00
   -4  -14   14      0.33      0.00
   -3  -14   14     -0.57      0.00
   -2  -14   14     -1.33      0.00
   -1  -14   14     -1.05      0.00
    0  -14   14      0.34      0.00
    1  -14   14      0.43      0.00
    2  -14   14      0.57      0.00
    3  -14   14      0.82      0.00
    4  -14   14      0.40      0.00
    5  -14   14      0.35      0.00
   -6  -13   14     -0.02      0.00
   -5  -13   14     -0.21      0.00
   -4  -13   14     -0.42      0.00
    5  -13   14     -0.16      0.00
    6  -13   14     -0.17      0.00
    7  -13   14     -0.29      0.00
   -8  -12   14      0.28      0.00
   -7  -12   14      0.80      0.00
   -6  -12   14      0.38      0.00
    7  -12   14      0.73      0.00
    8  -12   14      0.30      0.00
   -9  -11   14      0.07      0.00
   -8  -11   14      0.35      0.00
    8  -11   14      0.12      0.00
    9  -11   14     -0.15      0.00
  -10  -10   14     -0.17      0.00
   -9  -10   14     -0.47      0.00
    9  -10   14     -1.22      0.00
  -10   -9   14     -0.22      0.00
    9   -9   14     -0.48      0.00
   10   -9   14      0.08      0.00
  -11   -8   14     -0.47      0.00
   10   -8   14     -1.04      0.00
  -12   -7   14      0.20      0.00
  -11   -7   14      0.03      0.00
   10   -7   14     -1.66      0.00
   11   -7   14     -0.34      0.00
  -12   -6   14      1.18      0.00
   10   -6   14     -0.65      0.00
   11   -6   14     -0.73      0.00
  -13   -5   14      0.69      0.00
  -12   -5   14      1.21      0.00
   11   -5   14     -0.07      0.00
  -13   -4   14      0.07      0.00
   11   -4   14      0.96      0.00
  -13   -3   14     -0.85      0.00
   11   -3   14      0.39      0.00
  -14   -2   14      0.06      0.00
  -13   -2   14      0.29      0.00
   11   -2   14     -1.18      0.00
  -14   -1   14      0.12      0.00
   10   -1   14     -2.02      0.00
   11   -1   14     -1.54      0.00
  -14    0   14     -0.46      0.00
   10    0   14     -0.98      0.00
   11    0   14     -0.36      0.00
  -14    1   14      0.35      0.00
   10    1   14      0.39      0.00
  -14    2   14     -0.13      0.00
   10    2   14      0.41      0.00
  -14    3   14      0.14      0.00
    9    3   14      0.85      0.00
   10    3   14      0.58      0.00
  -14    4   14      0.41      0.00
  -13    4   14      0.02      0.00
    9    4   14     -0.30      0.00
  -14    5   14      0.07      0.00
  -13    5   14     -0.23      0.00
    8    5   14     -0.23      0.00
    9    5   14     -0.38      0.00
  -13    6   14     -0.79      0.00
    8    6   14     -0.16      0.00
  -13    7   14      0.43      0.00
  -12    7   14      0.63      0.00
    7    7   14     -0.08      0.00
  -12    8   14      0.69      0.00
    6    8   14      0.12      0.00
    7    8   14      0.21      0.00
  -12    9   14     -0.57      0.00
  -11    9   14     -0.80      0.00
    5    9   14     -0.69      0.00
    6    9   14     -0.40      0.00
  -11   10   14     -0.71      0.00
  -10   10   14      0.45      0.00
    3   10   14     -0.10      0.00
    4   10   14     -0.44      0.00
    5   10   14     -0.32      0.00
  -10   11   14      0.28      0.00
   -9   11   14     -0.20      0.00
   -8   11   14     -0.29      0.00
    1   11   14      0.95      0.00
    2   11   14      0.35      0.00
    3   11   14      0.19      0.00
   -9   12   14     -0.15      0.00
   -8   12   14     -0.03      0.00
   -7   12   14      0.27      0.00
   -6   12   14      0.20      0.00
   -5   12   14      0.40      0.00
   -4   12   14      0.10      0.00
   -3   12   14      0.33      0.00
   -2   12   14      1.05      0.00
   -1   12   14      0.26      0.00
    0   12   14      0.08      0.00
    1   12   14     -0.09      0.00
    2   12   14      0.07      0.00
   -6   13   14      0.15      0.00
   -5   13   14     -0.28      0.00
   -4   13   14      0.33      0.00
   -3   13   14      0.92      0.00
   -2   13   14      0.06      0.00
   -1   13   14     -0.17      0.00
   -1  -15   15     -0.65      0.00
    0  -15   15     -0.54      0.00
    1  -15   15     -0.33      0.00
    2  -15   15      0.23      0.00
   -4  -14   15      0.72      0.00
   -3  -14   15     -0.14      0.00
   -2  -14   15     -1.52      0.00
   -1  -14   15     -1.06      0.00
    0  -14   15     -0.28      0.00
    1  -14   15      0.51      0.00
    2  -14   15      0.33      0.00
    3  -14   15      0.67      0.00
    4  -14   15      0.47      0.00
    5  -14   15      0.31      0.00
   -6  -13   15     -0.13      0.00
   -5  -13   15      0.25      0.00
   -4  -13   15     -0.15      0.00
    4  -13   15     -0.26      0.00
    5  -13   15      0.10      0.00
    6  -13   15     -0.38      0.00
   -7  -12   15      0.49      0.00
   -6  -12   15      0.57      0.00
    6  -12   15      0.84      0.00
    7  -12   15      0.50      0.00
   -9  -11   15      0.04      0.00
   -8  -11   15      0.39      0.00
    7  -11   15      0.53      0.00
    8  -11   15      0.33      0.00
  -10  -10   15     -0.04      0.00
   -9  -10   15     -0.37      0.00
    8  -10   15     -0.39      0.00
    9  -10   15     -1.07      0.00
  -10   -9   15     -0.03      0.00
    9   -9   15     -1.31      0.00
  -11   -8   15     -0.29      0.00
  -10   -8   15     -0.05      0.00
    9   -8   15     -0.85      0.00
   10   -8   15     -0.61      0.00
  -12   -7   15     -0.25      0.00
  -11   -7   15     -0.21      0.00
   10   -7   15     -1.78      0.00
  -12   -6   15      0.73      0.00
   10   -6   15     -1.23      0.00
  -13   -5   15      0.68      0.00
  -12   -5   15      0.87      0.00
   10   -5   15     -0.12      0.00
   11   -5   15     -0.22      0.00
  -13   -4   15      0.18      0.00
   10   -4   15      0.00      0.00
   11   -4   15      0.53      0.00
  -13   -3   15     -0.64      0.00
   10   -3   15      0.77      0.00
   11   -3   15      0.86      0.00
  -14   -2   15     -0.04      0.00
  -13   -2   15      0.31      0.00
   10   -2   15     -0.19      0.00
   11   -2   15     -0.51      0.00
  -14   -1   15      0.32      0.00
  -13   -1   15      0.53      0.00
   10   -1   15     -2.24      0.00
  -14    0   15     -0.23      0.00
  -13    0   15      0.05      0.00
   10    0   15     -1.42      0.00
  -14    1   15      0.34      0.00
   10    1   15     -0.44      0.00
  -14    2   15      0.19      0.00
  -13    2   15      0.39      0.00
    9    2   15     -0.11      0.00
   10    2   15      0.35      0.00
  -14    3   15      0.10      0.00
  -13    3   15      0.28      0.00
    9    3   15      1.31      0.00
  -14    4   15      0.52      0.00
  -13    4   15     -0.19      0.00
    8    4   15      1.20      0.00
    9    4   15      0.15      0.00
  -13    5   15     -0.18      0.00
    8    5   15     -0.06      0.00
  -13    6   15     -0.68      0.00
    7    6   15      0.25      0.00
    8    6   15     -0.05      0.00
  -13    7   15      0.00      0.00
  -12    7   15      0.38      0.00
    6    7   15     -0.31      0.00
    7    7   15     -0.38      0.00
  -12    8   15      0.58      0.00
  -11    8   15      0.82      0.00
    5    8   15     -0.65      0.00
    6    8   15     -0.20      0.00
  -12    9   15      0.12      0.00
  -11    9   15     -0.07      0.00
  -10    9   15     -0.29      0.00
    4    9   15     -0.88      0.00
    5    9   15     -0.67      0.00
  -11   10   15     -0.36      0.00
  -10   10   15      0.30      0.00
   -9   10   15      0.91      0.00
    3   10   15     -0.46      0.00
    4   10   15     -0.53      0.00
  -10   11   15      0.50      0.00
   -9   11   15     -0.10      0.00
   -8   11   15     -0.21      0.00
   -7   11   15     -0.21      0.00
    0   11   15      0.94      0.00
    1   11   15      0.96      0.00
    2   11   15      0.24      0.00
    3   11   15      0.12      0.00
   -8   12   15     -0.21      0.00
   -7   12   15     -0.28      0.00
   -6   12   15      0.18      0.00
   -5   12   15     -0.02      0.00
   -4   12   15     -0.12      0.00
   -3   12   15     -0.26      0.00
   -2   12   15      0.13      0.00
   -1   12   15      0.59      0.00
    0   12   15      0.12      0.00
    1   12   15     -0.05      0.00
   -4   13   15      0.09      0.00
   -3   13   15      0.46      0.00
   -4  -14   16      0.63      0.00
   -3  -14   16      0.23      0.00
   -2  -14   16     -1.13      0.00
   -1  -14   16     -1.51      0.00
    0  -14   16     -0.79      0.00
    1  -14   16     -0.49      0.00
    2  -14   16      0.02      0.00
    3  -14   16      0.46      0.00
    4  -14   16      0.50      0.00
   -6  -13   16      0.05      0.00
   -5  -13   16      0.34      0.00
   -4  -13   16      0.26      0.00
   -3  -13   16     -0.69      0.00
    3  -13   16      0.38      0.00
    4  -13   16      0.45      0.00
    5  -13   16      0.47      0.00
    6  -13   16     -0.03      0.00
   -7  -12   16      0.44      0.00
   -6  -12   16      0.44      0.00
    5  -12   16      0.26      0.00
    6  -12   16      0.30      0.00
    7  -12   16      0.36      0.00
   -8  -11   16      0.46      0.00
   -7  -11   16      1.14      0.00
    7  -11   16      0.34      0.00
    8  -11   16      0.52      0.00
   -9  -10   16     -0.31      0.00
   -8  -10   16      0.27      0.00
    8  -10   16     -0.25      0.00
    9  -10   16     -0.58      0.00
  -10   -9   16      0.16      0.00
   -9   -9   16     -0.02      0.00
    8   -9   16     -1.94      0.00
    9   -9   16     -1.40      0.00
  -11   -8   16      0.37      0.00
  -10   -8   16      0.21      0.00
    9   -8   16     -0.90      0.00
  -12   -7   16      0.07      0.00
  -11   -7   16     -0.30      0.00
    9   -7   16     -1.89      0.00
   10   -7   16     -1.08      0.00
  -12   -6   16      0.10      0.00
   10   -6   16     -1.31      0.00
  -12   -5   16      0.70      0.00
   10   -5   16     -0.11      0.00
  -13   -4   16      0.50      0.00
  -12   -4   16      0.27      0.00
   10   -4   16      0.18      0.00
  -13   -3   16     -0.46      0.00
   10   -3   16      0.60      0.00
  -13   -2   16      0.17      0.00
   10   -2   16      0.59      0.00
  -14   -1   16      0.47      0.00
  -13   -1   16      0.92      0.00
   10   -1   16     -1.26      0.00
  -14    0   16      0.08      0.00
  -13    0   16      0.41      0.00
    9    0   16     -1.81      0.00
   10    0   16     -1.40      0.00
  -14    1   16      0.36      0.00
  -13    1   16      0.84      0.00
    9    1   16     -0.71      0.00
   10    1   16     -0.40      0.00
  -14    2   16      0.36      0.00
  -13    2   16      0.59      0.00
    9    2   16     -0.54      0.00
  -14    3   16      0.07      0.00
  -13    3   16      0.29      0.00
    8    3   16      0.25      0.00
    9    3   16      0.55      0.00
  -13    4   16     -0.11      0.00
    8    4   16      1.03      0.00
  -13    5   16     -0.15      0.00
    7    5   16      0.47      0.00
    8    5   16      0.14      0.00
  -13    6   16     -0.40      0.00
  -12    6   16     -0.81      0.00
    7    6   16      0.42      0.00
  -12    7   16     -0.38      0.00
    6    7   16     -0.15      0.00
  -12    8   16      0.47      0.00
  -11    8   16      0.37      0.00
    5    8   16     -0.64      0.00
    6    8   16     -0.19      0.00
  -11    9   16      0.38      0.00
  -10    9   16     -0.07      0.00
    3    9   16     -0.31      0.00
    4    9   16     -0.73      0.00
    5    9   16     -0.47      0.00
  -10   10   16      0.12      0.00
   -9   10   16      0.70      0.00
   -8   10   16      0.79      0.00
    2   10   16     -0.22      0.00
    3   10   16     -0.41      0.00
   -9   11   16      0.26      0.00
   -8   11   16      0.06      0.00
   -7   11   16     -0.12      0.00
   -6   11   16     -0.38      0.00
   -2   11   16     -0.65      0.00
   -1   11   16      0.06      0.00
    0   11   16      0.40      0.00
    1   11   16      0.69      0.00
    2   11   16      0.33      0.00
   -7   12   16     -0.32      0.00
   -6   12   16     -0.27      0.00
   -5   12   16      0.27      0.00
   -4   12   16     -0.14      0.00
   -3   12   16     -0.59      0.00
   -2   12   16      0.02      0.00
   -1   12   16      0.31      0.00
    0   12   16      0.40      0.00
   -3  -14   17      0.40      0.00
   -2  -14   17     -0.74      0.00
   -1  -14   17     -1.28      0.00
    0  -14   17     -1.65      0.00
    1  -14   17     -1.11      0.00
    2  -14   17     -0.48      0.00
    3  -14   17      0.32      0.00
   -5  -13   17      0.39      0.00
   -4  -13   17      0.39      0.00
   -3  -13   17     -0.60      0.00
   -2  -13   17     -0.75      0.00
    2  -13   17      0.57      0.00
    3  -13   17      0.99      0.00
    4  -13   17      1.04      0.00
    5  -13   17      1.18      0.00
   -7  -12   17      0.30      0.00
   -6  -12   17      0.22      0.00
   -5  -12   17      0.02      0.00
    5  -12   17      0.23      0.00
    6  -12   17      0.20      0.00
   -8  -11   17      0.54      0.00
   -7  -11   17      0.91      0.00
    6  -11   17      0.60      0.00
    7  -11   17      0.33      0.00
   -9  -10   17     -0.25      0.00
   -8  -10   17      0.52      0.00
    7  -10   17     -0.07      0.00
    8  -10   17      0.07      0.00
  -10   -9   17     -0.07      0.00
   -9   -9   17      0.07      0.00
    8   -9   17     -1.78      0.00
    9   -9   17     -0.86      0.00
  -11   -8   17      0.52      0.00
  -10   -8   17      0.40      0.00
    8   -8   17     -2.13      0.00
    9   -8   17     -0.65      0.00
  -11   -7   17      0.08      0.00
    9   -7   17     -0.82      0.00
  -12   -6   17      0.07      0.00
  -11   -6   17     -0.11      0.00
    9   -6   17     -1.98      0.00
   10   -6   17     -0.77      0.00
  -12   -5   17      0.26      0.00
    9   -5   17     -1.25      0.00
   10   -5   17     -0.17      0.00
  -13   -4   17      0.49      0.00
  -12   -4   17      0.32      0.00
    9   -4   17      1.16      0.00
   10   -4   17      0.50      0.00
  -13   -3   17     -0.07      0.00
    9   -3   17     -0.16      0.00
   10   -3   17      0.30      0.00
  -13   -2   17     -0.16      0.00
    9   -2   17      0.27      0.00
   10   -2   17      1.03      0.00
  -13   -1   17      0.79      0.00
    9   -1   17     -0.45      0.00
   10   -1   17     -0.34      0.00
  -14    0   17      0.34      0.00
  -13    0   17      0.53      0.00
    9    0   17     -1.66      0.00
  -14    1   17      0.34      0.00
  -13    1   17      0.75      0.00
    9    1   17     -0.47      0.00
  -14    2   17      0.52      0.00
  -13    2   17      0.45      0.00
    8    2   17      0.45      0.00
    9    2   17     -0.78      0.00
  -13    3   17      0.30      0.00
    8    3   17     -0.37      0.00
  -13    4   17     -0.02      0.00
    7    4   17      0.08      0.00
    8    4   17      0.57      0.00
  -13    5   17     -0.17      0.00
  -12    5   17      0.66      0.00
    7    5   17      0.10      0.00
  -13    6   17     -0.05      0.00
  -12    6   17     -0.22      0.00
    6    6   17      0.35      0.00
    7    6   17      0.44      0.00
  -12    7   17     -0.64      0.00
  -11    7   17     -0.48      0.00
    5    7   17      0.07      0.00
    6    7   17      0.17      0.00
  -12    8   17      0.01      0.00
  -11    8   17      0.17      0.00
  -10    8   17      0.78      0.00
    4    8   17     -0.26      0.00
    5    8   17     -0.46      0.00
  -11    9   17      0.28      0.00
  -10    9   17      0.16      0.00
   -9    9   17     -0.56      0.00
    2    9   17      0.16      0.00
    3    9   17      0.00      0.00
    4    9   17     -0.60      0.00
  -10   10   17     -0.17      0.00
   -9   10   17      0.37      0.00
   -8   10   17      0.53      0.00
    0   10   17     -0.50      0.00
    1   10   17     -0.35      0.00
    2   10   17     -0.28      0.00
    3   10   17     -0.58      0.00
   -8   11   17      0.34      0.00
   -7   11   17      0.10      0.00
   -6   11   17     -0.54      0.00
   -5   11   17     -0.36      0.00
   -4   11   17     -0.09      0.00
   -3   11   17      0.46      0.00
   -2   11   17      0.00      0.00
   -1   11   17     -0.35      0.00
    0   11   17      0.35      0.00
    1   11   17      0.28      0.00
   -6   12   17     -0.12      0.00
   -5   12   17      0.01      0.00
   -4   12   17      0.26      0.00
   -3   12   17     -0.30      0.00
   -2   12   17     -0.31      0.00
   -2  -14   18     -0.23      0.00
   -1  -14   18     -1.14      0.00
    0  -14   18     -1.46      0.00
    1  -14   18     -1.49      0.00
    2  -14   18     -0.44      0.00
   -5  -13   18      0.11      0.00
   -4  -13   18      0.48      0.00
   -3  -13   18     -0.34      0.00
   -2  -13   18     -1.08      0.00
   -1  -13   18     -0.97      0.00
    0  -13   18     -1.48      0.00
    1  -13   18     -0.57      0.00
    2  -13   18      0.52      0.00
    3  -13   18      1.25      0.00
    4  -13   18      1.38      0.00
    5  -13   18      1.28      0.00
   -7  -12   18      0.04      0.00
   -6  -12   18     -0.20      0.00
   -5  -12   18      0.02      0.00
   -4  -12   18      0.05      0.00
    4  -12   18      0.80      0.00
    5  -12   18      0.84      0.00
    6  -12   18      0.12      0.00
   -8  -11   18      0.42      0.00
   -7  -11   18      0.33      0.00
   -6  -11   18     -0.18      0.00
    5  -11   18      0.41      0.00
    6  -11   18      0.70      0.00
    7  -11   18      0.16      0.00
   -9  -10   18     -0.12      0.00
   -8  -10   18      0.46      0.00
    6  -10   18     -0.48      0.00
    7  -10   18     -0.34      0.00
    8  -10   18      0.17      0.00
  -10   -9   18     -0.29      0.00
   -9   -9   18      0.00      0.00
    7   -9   18     -0.91      0.00
    8   -9   18     -1.00      0.00
  -10   -8   18      0.17      0.00
    8   -8   18     -1.91      0.00
    9   -8   18     -0.11      0.00
  -11   -7   18      0.11      0.00
  -10   -7   18      0.23      0.00
    8   -7   18     -1.13      0.00
    9   -7   18     -0.10      0.00
  -12   -6   18     -0.11      0.00
  -11   -6   18      0.07      0.00
    9   -6   18     -0.46      0.00
  -12   -5   18      0.12      0.00
    9   -5   18     -1.29      0.00
  -13   -4   18      0.53      0.00
  -12   -4   18      0.09      0.00
    9   -4   18      0.99      0.00
  -13   -3   18      0.06      0.00
  -12   -3   18     -0.48      0.00
    9   -3   18      0.43      0.00
  -13   -2   18     -0.33      0.00
    9   -2   18      0.27      0.00
  -13   -1   18      0.23      0.00
    9   -1   18      0.39      0.00
  -13    0   18      0.43      0.00
    8    0   18     -1.05      0.00
    9    0   18     -0.88      0.00
  -13    1   18      0.39      0.00
    8    1   18     -0.87      0.00
    9    1   18     -0.28      0.00
  -13    2   18      0.43      0.00
    8    2   18      0.46      0.00
  -13    3   18     -0.11      0.00
    7    3   18      0.77      0.00
    8    3   18     -0.43      0.00
  -13    4   18      0.20      0.00
  -12    4   18     -0.41      0.00
    7    4   18     -0.05      0.00
  -13    5   18     -0.31      0.00
  -12    5   18      0.38      0.00
    6    5   18     -0.36      0.00
    7    5   18     -0.13      0.00
  -12    6   18      0.41      0.00
  -11    6   18      0.30      0.00
    5    6   18     -0.43      0.00
    6    6   18      0.04      0.00
  -12    7   18     -0.63      0.00
  -11    7   18     -0.29      0.00
    4    7   18     -1.07      0.00
    5    7   18     -0.15      0.00
  -11    8   18      0.12      0.00
  -10    8   18      0.77      0.00
    3    8   18     -0.96      0.00
    4    8   18     -0.54      0.00
  -10    9   18      0.37      0.00
   -9    9   18     -0.44      0.00
    1    9   18      0.27      0.00
    2    9   18      0.22      0.00
    3    9   18     -0.07      0.00
   -9   10   18     -0.19      0.00
   -8   10   18      0.12      0.00
   -7   10   18     -0.02      0.00
   -6   10   18      0.01      0.00
   -1   10   18     -0.32      0.00
    0   10   18     -0.19      0.00
    1   10   18     -0.23      0.00
    2   10   18     -0.35      0.00
   -7   11   18      0.10      0.00
   -6   11   18     -0.22      0.00
   -5   11   18     -0.58      0.00
   -4   11   18     -0.07      0.00
   -3   11   18      0.31      0.00
   -2   11   18     -0.07      0.00
   -1   11   18     -0.20      0.00
    0   11   18     -0.10      0.00
   -1  -14   19     -0.70      0.00
    0  -14   19     -1.04      0.00
    1  -14   19     -0.84      0.00
   -4  -13   19      0.24      0.00
   -3  -13   19     -0.08      0.00
   -2  -13   19     -0.94      0.00
   -1  -13   19     -1.30      0.00
    0  -13   19     -1.54      0.00
    1  -13   19     -1.07      0.00
    2  -13   19      0.43      0.00
    3  -13   19      1.04      0.00
    4  -13   19      1.03      0.00
   -6  -12   19     -0.39      0.00
   -5  -12   19     -0.04      0.00
   -4  -12   19      0.30      0.00
   -3  -12   19     -0.03      0.00
    2  -12   19      0.52      0.00
    3  -12   19      0.63      0.00
    4  -12   19      1.43      0.00
    5  -12   19      1.21      0.00
   -8  -11   19      0.24      0.00
   -7  -11   19     -0.39      0.00
   -6  -11   19     -0.54      0.00
    5  -11   19      0.67      0.00
    6  -11   19      0.64      0.00
   -9  -10   19      0.09      0.00
   -8  -10   19     -0.05      0.00
   -7  -10   19     -0.13      0.00
    6  -10   19     -0.28      0.00
    7  -10   19     -0.50      0.00
   -9   -9   19     -0.23      0.00
   -8   -9   19      0.58      0.00
    7   -9   19     -0.81      0.00
    8   -9   19     -0.37      0.00
  -10   -8   19     -0.17      0.00
   -9   -8   19      0.05      0.00
    7   -8   19     -1.56      0.00
    8   -8   19     -0.96      0.00
  -11   -7   19      0.12      0.00
  -10   -7   19     -0.15      0.00
    8   -7   19     -0.92      0.00
  -11   -6   19     -0.10      0.00
    8   -6   19      0.31      0.00
    9   -6   19      0.36      0.00
  -12   -5   19     -0.21      0.00
  -11   -5   19      0.06      0.00
    8   -5   19     -0.09      0.00
    9   -5   19     -0.66      0.00
  -12   -4   19      0.06      0.00
    8   -4   19     -0.22      0.00
    9   -4   19      0.32      0.00
  -13   -3   19      0.13      0.00
  -12   -3   19     -0.28      0.00
    8   -3   19      0.82      0.00
    9   -3   19      0.74      0.00
  -13   -2   19     -0.34      0.00
  -12   -2   19     -0.29      0.00
    8   -2   19     -0.63      0.00
    9   -2   19      0.14      0.00
  -13   -1   19     -0.24      0.00
  -12   -1   19      0.17      0.00
    8   -1   19      0.33      0.00
    9   -1   19      0.71      0.00
  -13    0   19      0.12      0.00
    8    0   19     -0.08      0.00
  -13    1   19      0.08      0.00
    8    1   19     -0.89      0.00
  -13    2   19      0.17      0.00
  -12    2   19      0.06      0.00
    7    2   19      0.26      0.00
    8    2   19      0.40      0.00
  -13    3   19     -0.28      0.00
  -12    3   19     -0.28      0.00
    7    3   19      0.72      0.00
  -13    4   19     -0.01      0.00
  -12    4   19     -0.26      0.00
    6    4   19      0.22      0.00
    7    4   19      0.01      0.00
  -12    5   19     -0.15      0.00
    5    5   19     -0.12      0.00
    6    5   19     -0.05      0.00
  -12    6   19      0.65      0.00
  -11    6   19      0.58      0.00
    5    6   19     -0.25      0.00
    6    6   19     -0.05      0.00
  -11    7   19     -0.05      0.00
  -10    7   19     -0.60      0.00
    4    7   19     -1.13      0.00
    5    7   19     -0.08      0.00
  -11    8   19      0.26      0.00
  -10    8   19      0.51      0.00
   -9    8   19      1.04      0.00
    2    8   19     -1.01      0.00
    3    8   19     -1.49      0.00
    4    8   19     -0.47      0.00
  -10    9   19      0.52      0.00
   -9    9   19     -0.09      0.00
   -8    9   19     -0.49      0.00
   -7    9   19     -0.23      0.00
    0    9   19     -0.14      0.00
    1    9   19     -0.13      0.00
    2    9   19     -0.11      0.00
   -8   10   19     -0.39      0.00
   -7   10   19     -0.26      0.00
   -6   10   19      0.03      0.00
   -5   10   19     -0.07      0.00
   -4   10   19     -0.05      0.00
   -3   10   19     -0.64      0.00
   -2   10   19     -0.46      0.00
   -1   10   19     -0.19      0.00
    0   10   19     -0.41      0.00
    1   10   19     -0.02      0.00
   -6   11   19     -0.18      0.00
   -5   11   19     -0.25      0.00
   -4   11   19     -0.50      0.00
   -3   11   19     -0.07      0.00
   -2   11   19     -0.03      0.00
   -4  -13   20      0.04      0.00
   -3  -13   20     -0.04      0.00
   -2  -13   20     -0.76      0.00
   -1  -13   20     -0.83      0.00
    0  -13   20     -1.17      0.00
    1  -13   20     -0.86      0.00
    2  -13   20      0.11      0.00
    3  -13   20      0.68      0.00
   -6  -12   20     -0.21      0.00
   -5  -12   20     -0.04      0.00
   -4  -12   20      0.25      0.00
   -3  -12   20     -0.03      0.00
   -2  -12   20     -0.13      0.00
   -1  -12   20     -0.76      0.00
    0  -12   20     -0.85      0.00
    1  -12   20      0.07      0.00
    2  -12   20      0.60      0.00
    3  -12   20      0.71      0.00
    4  -12   20      1.31      0.00
    5  -12   20      1.29      0.00
   -7  -11   20     -0.56      0.00
   -6  -11   20     -0.54      0.00
   -5  -11   20      0.06      0.00
    4  -11   20      1.35      0.00
    5  -11   20      0.77      0.00
    6  -11   20      0.55      0.00
   -8  -10   20     -0.34      0.00
   -7  -10   20     -0.70      0.00
    5  -10   20      0.63      0.00
    6  -10   20      0.18      0.00
   -9   -9   20     -0.29      0.00
   -8   -9   20      0.17      0.00
    6   -9   20     -1.22      0.00
    7   -9   20     -0.65      0.00
  -10   -8   20     -0.47      0.00
   -9   -8   20     -0.03      0.00
    7   -8   20     -0.82      0.00
    8   -8   20     -0.35      0.00
  -11   -7   20     -0.19      0.00
  -10   -7   20     -0.47      0.00
    7   -7   20     -0.72      0.00
    8   -7   20     -0.39      0.00
  -11   -6   20     -0.23      0.00
  -10   -6   20      0.36      0.00
    7   -6   20      0.01      0.00
    8   -6   20      0.04      0.00
  -12   -5   20     -0.25      0.00
  -11   -5   20      0.28      0.00
    8   -5   20      0.79      0.00
  -12   -4   20     -0.03      0.00
  -11   -4   20     -0.11      0.00
    8   -4   20     -0.37      0.00
  -12   -3   20      0.07      0.00
    8   -3   20      0.78      0.00
  -13   -2   20     -0.11      0.00
  -12   -2   20      0.24      0.00
    8   -2   20     -0.14      0.00
  -13   -1   20     -0.29      0.00
  -12   -1   20      0.44      0.00
    8   -1   20      0.18      0.00
  -13    0   20     -0.07      0.00
  -12    0   20      0.22      0.00
    7    0   20      0.99      0.00
    8    0   20      0.57      0.00
  -13    1   20     -0.23      0.00
  -12    1   20     -0.69      0.00
    7    1   20      0.01      0.00
    8    1   20     -0.54      0.00
  -13    2   20      0.05      0.00
  -12    2   20     -0.45      0.00
    7    2   20     -0.26      0.00
  -13    3   20     -0.50      0.00
  -12    3   20     -0.41      0.00
    6    3   20      0.63      0.00
    7    3   20      0.51      0.00
  -12    4   20     -0.45      0.00
    5    4   20      0.34      0.00
    6    4   20      0.30      0.00
  -12    5   20     -0.29      0.00
  -11    5   20     -0.29      0.00
    5    5   20      0.14      0.00
    6    5   20      0.23      0.00
  -12    6   20      0.48      0.00
  -11    6   20      0.46      0.00
  -10    6   20      0.08      0.00
    4    6   20      0.40      0.00
    5    6   20      0.32      0.00
  -11    7   20      0.06      0.00
  -10    7   20     -0.60      0.00
    3    7   20     -0.09      0.00
    4    7   20     -0.30      0.00
  -10    8   20      0.00      0.00
   -9    8   20      0.66      0.00
   -8    8   20      1.01      0.00
    1    8   20     -0.17      0.00
    2    8   20     -0.83      0.00
    3    8   20     -1.09      0.00
   -9    9   20      0.31      0.00
   -8    9   20     -0.08      0.00
   -7    9   20      0.30      0.00
   -6    9   20      0.49      0.00
   -5    9   20      0.47      0.00
   -2    9   20     -0.57      0.00
   -1    9   20     -0.18      0.00
    0    9   20     -0.09      0.00
    1    9   20     -0.17      0.00
    2    9   20     -0.26      0.00
   -7   10   20     -0.26      0.00
   -6   10   20     -0.01      0.00
   -5   10   20      0.12      0.00
   -4   10   20     -0.26      0.00
   -3   10   20     -0.63      0.00
   -2   10   20     -0.60      0.00
   -1   10   20     -0.29      0.00
    0   10   20     -0.09      0.00
   -2  -13   21     -0.44      0.00
   -1  -13   21     -0.44      0.00
    0  -13   21     -0.22      0.00
    1  -13   21     -0.60      0.00
   -5  -12   21     -0.10      0.00
   -4  -12   21      0.00      0.00
   -3  -12   21      0.10      0.00
   -2  -12   21      0.08      0.00
   -1  -12   21     -0.09      0.00
    0  -12   21     -0.93      0.00
    1  -12   21     -0.17      0.00
    2  -12   21      0.48      0.00
    3  -12   21      0.40      0.00
    4  -12   21      0.72      0.00
   -7  -11   21     -0.44      0.00
   -6  -11   21     -0.16      0.00
   -5  -11   21      0.06      0.00
   -4  -11   21      0.03      0.00
    2  -11   21     -0.39      0.00
    3  -11   21      0.78      0.00
    4  -11   21      1.41      0.00
    5  -11   21      0.70      0.00
   -8  -10   21     -0.51      0.00
   -7  -10   21     -0.54      0.00
   -6  -10   21     -0.41      0.00
    4  -10   21      0.85      0.00
    5  -10   21      0.84      0.00
    6  -10   21      0.49      0.00
   -9   -9   21     -0.26      0.00
   -8   -9   21      0.09      0.00
   -7   -9   21      0.19      0.00
    5   -9   21     -0.01      0.00
    6   -9   21     -0.73      0.00
  -10   -8   21     -0.39      0.00
   -9   -8   21      0.08      0.00
    6   -8   21     -0.50      0.00
    7   -8   21     -0.24      0.00
  -10   -7   21     -0.63      0.00
   -9   -7   21     -0.35      0.00
    6   -7   21     -0.16      0.00
    7   -7   21     -0.17      0.00
  -11   -6   21     -0.54      0.00
  -10   -6   21     -0.06      0.00
    7   -6   21     -0.15      0.00
    8   -6   21     -0.25      0.00
  -11   -5   21      0.41      0.00
    7   -5   21      0.53      0.00
    8   -5   21      0.58      0.00
  -12   -4   21      0.12      0.00
  -11   -4   21      0.20      0.00
    7   -4   21      0.41      0.00
    8   -4   21     -0.07      0.00
  -12   -3   21      0.25      0.00
  -11   -3   21      0.03      0.00
    7   -3   21      0.18      0.00
    8   -3   21      0.24      0.00
  -12   -2   21      0.80      0.00
    7   -2   21      0.23      0.00
    8   -2   21      0.12      0.00
  -12   -1   21      0.69      0.00
    7   -1   21     -0.69      0.00
    8   -1   21     -0.06      0.00
  -12    0   21      0.57      0.00
    7    0   21      0.75      0.00
  -12    1   21     -0.96      0.00
    6    1   21      1.24      0.00
    7    1   21      0.54      0.00
  -12    2   21     -0.57      0.00
    6    2   21     -0.42      0.00
    7    2   21     -0.27      0.00
  -12    3   21     -0.67      0.00
  -11    3   21     -0.89      0.00
    5    3   21     -0.42      0.00
    6    3   21      0.26      0.00
  -12    4   21     -0.27      0.00
  -11    4   21     -0.57      0.00
    5    4   21      0.32      0.00
    6    4   21      0.22      0.00
  -12    5   21     -0.29      0.00
  -11    5   21     -0.19      0.00
  -10    5   21     -0.41      0.00
    4    5   21     -0.44      0.00
    5    5   21      0.23      0.00
  -11    6   21      0.13      0.00
  -10    6   21      0.35      0.00
    3    6   21     -0.66      0.00
    4    6   21      0.56      0.00
  -10    7   21     -0.40      0.00
   -9    7   21     -0.69      0.00
    1    7   21     -0.12      0.00
    2    7   21     -0.04      0.00
    3    7   21      0.42      0.00
  -10    8   21     -0.33      0.00
   -9    8   21      0.04      0.00
   -8    8   21      0.59      0.00
   -7    8   21      0.30      0.00
   -1    8   21     -0.17      0.00
    0    8   21      0.06      0.00
    1    8   21      0.20      0.00
    2    8   21     -0.37      0.00
   -8    9   21      0.34      0.00
   -7    9   21      0.45      0.00
   -6    9   21      0.55      0.00
   -5    9   21      0.58      0.00
   -4    9   21      0.16      0.00
   -3    9   21      0.12      0.00
   -2    9   21     -0.27      0.00
   -1    9   21     -0.12      0.00
    0    9   21      0.39      0.00
   -6   10   21      0.11      0.00
   -5   10   21     -0.01      0.00
   -4   10   21     -0.04      0.00
   -3   10   21     -0.56      0.00
   -2   10   21     -0.55      0.00
   -4  -12   22     -0.21      0.00
   -3  -12   22      0.17      0.00
   -2  -12   22      0.47      0.00
   -1  -12   22      0.28      0.00
    0  -12   22     -0.44      0.00
    1  -12   22     -0.31      0.00
    2  -12   22      0.44      0.00
    3  -12   22      0.16      0.00
   -6  -11   22     -0.05      0.00
   -5  -11   22     -0.08      0.00
   -4  -11   22      0.03      0.00
   -3  -11   22      0.18      0.00
   -2  -11   22     -0.03      0.00
   -1  -11   22     -0.43      0.00
    0  -11   22     -0.59      0.00
    1  -11   22     -0.18      0.00
    2  -11   22     -0.23      0.00
    3  -11   22      0.32      0.00
    4  -11   22      1.05      0.00
   -7  -10   22     -0.29      0.00
   -6  -10   22     -0.22      0.00
   -5  -10   22     -0.54      0.00
    3  -10   22      1.28      0.00
    4  -10   22      0.83      0.00
    5  -10   22      0.59      0.00
   -8   -9   22      0.06      0.00
   -7   -9   22      0.35      0.00
    4   -9   22      0.70      0.00
    5   -9   22      0.76      0.00
    6   -9   22     -0.25      0.00
   -9   -8   22      0.23      0.00
   -8   -8   22      0.75      0.00
    5   -8   22      0.21      0.00
    6   -8   22     -0.08      0.00
  -10   -7   22     -0.38      0.00
   -9   -7   22     -0.25      0.00
    6   -7   22      0.05      0.00
    7   -7   22      0.03      0.00
  -11   -6   22     -0.47      0.00
  -10   -6   22     -0.54      0.00
    6   -6   22      0.50      0.00
    7   -6   22     -0.08      0.00
  -11   -5   22      0.12      0.00
  -10   -5   22      0.81      0.00
    6   -5   22      0.28      0.00
    7   -5   22     -0.17      0.00
  -11   -4   22      0.60      0.00
    6   -4   22     -0.05      0.00
    7   -4   22      0.44      0.00
  -12   -3   22      0.34      0.00
  -11   -3   22     -0.38      0.00
    7   -3   22     -0.14      0.00
  -12   -2   22      0.93      0.00
  -11   -2   22      0.67      0.00
    6   -2   22      0.35      0.00
    7   -2   22      0.39      0.00
  -12   -1   22      0.81      0.00
  -11   -1   22      0.57      0.00
    6   -1   22     -0.04      0.00
    7   -1   22     -0.38      0.00
  -12    0   22      0.54      0.00
  -11    0   22      0.31      0.00
    6    0   22      0.12      0.00
    7    0   22      0.18      0.00
  -12    1   22     -0.77      0.00
  -11    1   22     -1.69      0.00
    6    1   22      1.25      0.00
    7    1   22      0.56      0.00
  -12    2   22     -1.03      0.00
  -11    2   22     -0.44      0.00
    5    2   22     -0.29      0.00
    6    2   22     -0.03      0.00
  -12    3   22     -0.35      0.00
  -11    3   22     -0.77      0.00
    5    3   22     -0.61      0.00
    6    3   22      0.10      0.00
  -12    4   22     -0.29      0.00
  -11    4   22     -0.13      0.00
  -10    4   22      0.29      0.00
    4    4   22      0.48      0.00
    5    4   22      0.39      0.00
  -11    5   22      0.08      0.00
  -10    5   22      0.35      0.00
    3    5   22      0.38      0.00
    4    5   22      0.00      0.00
  -11    6   22      0.14      0.00
  -10    6   22      0.47      0.00
   -9    6   22      1.55      0.00
    2    6   22     -0.66      0.00
    3    6   22     -0.62      0.00
  -10    7   22      0.08      0.00
   -9    7   22     -0.19      0.00
   -8    7   22     -0.51      0.00
   -7    7   22     -0.65      0.00
    0    7   22     -0.34      0.00
    1    7   22     -0.47      0.00
    2    7   22     -0.40      0.00
   -9    8   22     -0.36      0.00
   -8    8   22     -0.03      0.00
   -7    8   22     -0.39      0.00
   -6    8   22     -0.34      0.00
   -5    8   22     -0.16      0.00
   -4    8   22     -0.02      0.00
   -3    8   22      0.10      0.00
   -2    8   22      0.02      0.00
   -1    8   22     -0.14      0.00
    0    8   22      0.06      0.00
    1    8   22     -0.01      0.00
   -7    9   22      0.40      0.00
   -6    9   22      0.38      0.00
   -5    9   22      0.33      0.00
   -4    9   22      0.30      0.00
   -3    9   22      0.06      0.00
   -2    9   22      0.05      0.00
   -1    9   22      0.17      0.00
   -3  -12   23      0.25      0.00
   -2  -12   23      0.36      0.00
   -1  -12   23      0.48      0.00
    0  -12   23     -0.15      0.00
    1  -12   23     -0.11      0.00
   -5  -11   23     -0.35      0.00
   -4  -11   23      0.23      0.00
   -3  -11   23      0.67      0.00
   -2  -11   23      0.61      0.00
   -1  -11   23     -0.30      0.00
    0  -11   23     -0.42      0.00
    1  -11   23      0.08      0.00
    2  -11   23     -0.17      0.00
    3  -11   23     -0.10      0.00
   -7  -10   23      0.07      0.00
   -6  -10   23     -0.40      0.00
   -5  -10   23     -0.54      0.00
   -4  -10   23     -0.55      0.00
    1  -10   23     -0.54      0.00
    2  -10   23      0.15      0.00
    3  -10   23      0.79      0.00
    4  -10   23      0.61      0.00
   -8   -9   23      0.30      0.00
   -7   -9   23      0.25      0.00
   -6   -9   23      0.11      0.00
    3   -9   23      0.69      0.00
    4   -9   23      0.87      0.00
    5   -9   23      0.92      0.00
   -9   -8   23      0.37      0.00
   -8   -8   23      0.80      0.00
   -7   -8   23      1.00      0.00
    4   -8   23      0.96      0.00
    5   -8   23      0.72      0.00
    6   -8   23     -0.04      0.00
  -10   -7   23     -0.11      0.00
   -9   -7   23      0.00      0.00
   -8   -7   23      0.11      0.00
    5   -7   23      0.78      0.00
    6   -7   23      0.30      0.00
  -10   -6   23     -0.65      0.00
   -9   -6   23     -0.76      0.00
    5   -6   23      0.16      0.00
    6   -6   23      0.22      0.00
  -11   -5   23     -0.13      0.00
  -10   -5   23      0.27      0.00
    6   -5   23      0.10      0.00
    7   -5   23     -0.39      0.00
  -11   -4   23      0.71      0.00
  -10   -4   23      0.20      0.00
    6   -4   23      0.01      0.00
    7   -4   23      0.11      0.00
  -11   -3   23     -0.41      0.00
  -10   -3   23     -1.24      0.00
    6   -3   23     -0.22      0.00
    7   -3   23     -0.13      0.00
  -12   -2   23      0.66      0.00
  -11   -2   23      0.02      0.00
    6   -2   23      0.18      0.00
    7   -2   23      0.12      0.00
  -12   -1   23      0.59      0.00
  -11   -1   23      0.37      0.00
    6   -1   23      0.12      0.00
  -12    0   23      0.36      0.00
  -11    0   23      0.22      0.00
    5    0   23      0.05      0.00
    6    0   23     -0.02      0.00
  -12    1   23     -0.64      0.00
  -11    1   23     -1.22      0.00
    5    1   23      0.98      0.00
    6    1   23      0.96      0.00
  -12    2   23     -1.03      0.00
  -11    2   23     -0.85      0.00
    4    2   23     -0.64      0.00
    5    2   23      0.20      0.00
  -11    3   23     -0.06      0.00
  -10    3   23     -0.76      0.00
    4    3   23     -1.62      0.00
    5    3   23     -0.61      0.00
  -11    4   23     -0.11      0.00
  -10    4   23      0.61      0.00
    3    4   23     -0.16      0.00
    4    4   23      0.27      0.00
  -11    5   23      0.60      0.00
  -10    5   23      0.76      0.00
   -9    5   23      0.70      0.00
    2    5   23      0.88      0.00
    3    5   23      0.99      0.00
  -10    6   23      0.68      0.00
   -9    6   23      1.28      0.00
   -8    6   23      0.57      0.00
    0    6   23     -0.18      0.00
    1    6   23      0.12      0.00
    2    6   23     -0.02      0.00
    3    6   23     -0.30      0.00
   -9    7   23      0.29      0.00
   -8    7   23     -0.44      0.00
   -7    7   23     -0.37      0.00
   -6    7   23      0.44      0.00
   -5    7   23      1.11      0.00
   -4    7   23      0.59      0.00
   -3    7   23      0.14      0.00
   -2    7   23     -0.27      0.00
   -1    7   23     -0.01      0.00
    0    7   23     -0.15      0.00
    1    7   23     -0.66      0.00
   -8    8   23     -0.44      0.00
   -7    8   23     -0.53      0.00
   -6    8   23     -0.30      0.00
   -5    8   23     -0.10      0.00
   -4    8   23      0.00      0.00
   -3    8   23     -0.30      0.00
   -2    8   23     -0.05      0.00
   -1    8   23      0.03      0.00
    0    8   23     -0.37      0.00
   -5    9   23      0.18      0.00
   -4    9   23     -0.01      0.00
   -3    9   23      0.13      0.00
   -4  -11   24      0.25      0.00
   -3  -11   24      0.91      0.00
   -2  -11   24      0.44      0.00
   -1  -11   24      0.06      0.00
    0  -11   24     -0.03      0.00
    1  -11   24      0.45      0.00
    2  -11   24      0.06      0.00
   -6  -10   24     -0.37      0.00
   -5  -10   24     -0.57      0.00
   -4  -10   24      0.26      0.00
   -3  -10   24      0.21      0.00
   -2  -10   24      0.01      0.00
   -1  -10   24     -0.35      0.00
    0  -10   24     -0.15      0.00
    1  -10   24     -0.34      0.00
    2  -10   24     -0.42      0.00
    3  -10   24      0.44      0.00
   -7   -9   24      0.24      0.00
   -6   -9   24     -0.28      0.00
   -5   -9   24     -0.08      0.00
    2   -9   24      0.79      0.00
    3   -9   24      0.63      0.00
    4   -9   24      0.74      0.00
   -8   -8   24      0.83      0.00
   -7   -8   24      0.89      0.00
   -6   -8   24      0.84      0.00
    3   -8   24      0.25      0.00
    4   -8   24      1.07      0.00
    5   -8   24      0.56      0.00
   -9   -7   24      0.23      0.00
   -8   -7   24      0.51      0.00
   -7   -7   24      0.64      0.00
    4   -7   24      1.52      0.00
    5   -7   24      0.98      0.00
  -10   -6   24     -0.55      0.00
   -9   -6   24     -0.70      0.00
   -8   -6   24     -0.76      0.00
    4   -6   24      0.61      0.00
    5   -6   24      0.09      0.00
    6   -6   24      0.04      0.00
  -10   -5   24     -0.25      0.00
   -9   -5   24     -0.29      0.00
    5   -5   24      0.10      0.00
    6   -5   24     -0.06      0.00
  -11   -4   24      0.61      0.00
  -10   -4   24      0.40      0.00
   -9   -4   24      0.41      0.00
    5   -4   24      0.25      0.00
    6   -4   24     -0.02      0.00
  -11   -3   24     -0.24      0.00
  -10   -3   24     -0.86      0.00
    5   -3   24     -0.07      0.00
    6   -3   24     -0.04      0.00
  -11   -2   24     -0.27      0.00
  -10   -2   24     -0.24      0.00
    5   -2   24     -0.07      0.00
    6   -2   24     -0.23      0.00
  -11   -1   24      0.01      0.00
  -10   -1   24      0.45      0.00
    5   -1   24      0.24      0.00
    6   -1   24      0.02      0.00
  -11    0   24      0.49      0.00
  -10    0   24      0.62      0.00
    4    0   24      0.00      0.00
    5    0   24      0.11      0.00
    6    0   24     -0.25      0.00
  -11    1   24     -0.78      0.00
  -10    1   24     -0.49      0.00
    4    1   24      0.51      0.00
    5    1   24      0.82      0.00
  -11    2   24     -0.61      0.00
  -10    2   24     -0.04      0.00
    3    2   24     -0.40      0.00
    4    2   24      0.15      0.00
    5    2   24      0.63      0.00
  -11    3   24      0.09      0.00
  -10    3   24     -0.08      0.00
   -9    3   24     -0.55      0.00
    3    3   24     -1.84      0.00
    4    3   24     -1.30      0.00
  -10    4   24      0.26      0.00
   -9    4   24      0.69      0.00
    2    4   24     -0.77      0.00
    3    4   24     -1.05      0.00
  -10    5   24      1.01      0.00
   -9    5   24      0.32      0.00
   -8    5   24     -0.13      0.00
    0    5   24      0.19      0.00
    1    5   24      0.40      0.00
    2    5   24      0.45      0.00
    3    5   24      0.80      0.00
   -9    6   24      0.71      0.00
   -8    6   24      0.16      0.00
   -7    6   24      0.14      0.00
   -6    6   24      1.18      0.00
   -2    6   24     -0.46      0.00
   -1    6   24     -0.53      0.00
    0    6   24      0.09      0.00
    1    6   24      0.37      0.00
    2    6   24      0.52      0.00
   -8    7   24     -0.27      0.00
   -7    7   24      0.32      0.00
   -6    7   24      1.07      0.00
   -5    7   24      1.32      0.00
   -4    7   24      0.75      0.00
   -3    7   24     -0.12      0.00
   -2    7   24     -0.25      0.00
   -1    7   24      0.00      0.00
    0    7   24     -0.06      0.00
   -6    8   24      0.07      0.00
   -5    8   24      0.16      0.00
   -4    8   24     -0.21      0.00
   -3    8   24     -0.27      0.00
   -2    8   24     -0.22      0.00
   -3  -11   25      0.44      0.00
   -2  -11   25      0.20      0.00
   -1  -11   25     -0.03      0.00
    0  -11   25      0.42      0.00
   -5  -10   25     -0.20      0.00
   -4  -10   25      0.44      0.00
   -3  -10   25      0.59      0.00
   -2  -10   25     -0.11      0.00
   -1  -10   25      0.19      0.00
    0  -10   25      0.30      0.00
    1  -10   25     -0.25      0.00
    2  -10   25     -0.45      0.00
   -7   -9   25      0.00      0.00
   -6   -9   25     -0.30      0.00
   -5   -9   25      0.05      0.00
   -4   -9   25      0.59      0.00
   -3   -9   25      0.06      0.00
   -2   -9   25      0.28      0.00
   -1   -9   25      0.26      0.00
    0   -9   25      0.00      0.00
    1   -9   25     -0.09      0.00
    2   -9   25      0.26      0.00
    3   -9   25      0.79      0.00
   -8   -8   25      0.64      0.00
   -7   -8   25      0.74      0.00
   -6   -8   25      0.65      0.00
   -5   -8   25      0.67      0.00
    1   -8   25      0.10      0.00
    2   -8   25     -0.02      0.00
    3   -8   25      0.22      0.00
    4   -8   25      0.67      0.00
   -8   -7   25      0.82      0.00
   -7   -7   25      0.94      0.00
   -6   -7   25      0.68      0.00
    3   -7   25      1.04      0.00
    4   -7   25      1.25      0.00
    5   -7   25      0.55      0.00
   -9   -6   25     -0.31      0.00
   -8   -6   25     -0.23      0.00
   -7   -6   25     -0.38      0.00
    3   -6   25      1.25      0.00
    4   -6   25      0.74      0.00
    5   -6   25      0.16      0.00
  -10   -5   25     -0.62      0.00
   -9   -5   25     -0.51      0.00
   -8   -5   25     -0.31      0.00
    4   -5   25     -0.08      0.00
    5   -5   25     -0.19      0.00
  -10   -4   25      0.37      0.00
   -9   -4   25      0.39      0.00
    4   -4   25      0.01      0.00
    5   -4   25      0.20      0.00
  -10   -3   25     -0.58      0.00
   -9   -3   25      0.10      0.00
    4   -3   25      0.44      0.00
    5   -3   25      0.50      0.00
  -11   -2   25     -0.37      0.00
  -10   -2   25     -0.17      0.00
   -9   -2   25     -0.03      0.00
    4   -2   25      0.09      0.00
    5   -2   25     -0.33      0.00
  -11   -1   25     -0.04      0.00
  -10   -1   25      0.11      0.00
   -9   -1   25      0.55      0.00
    4   -1   25     -0.22      0.00
    5   -1   25      0.04      0.00
  -11    0   25      0.31      0.00
  -10    0   25      0.95      0.00
   -9    0   25      0.44      0.00
    3    0   25     -0.40      0.00
    4    0   25      0.22      0.00
    5    0   25     -0.26      0.00
  -11    1   25      0.08      0.00
  -10    1   25     -0.35      0.00
   -9    1   25     -0.21      0.00
    3    1   25      0.02      0.00
    4    1   25      0.27      0.00
  -11    2   25     -0.52      0.00
  -10    2   25      0.20      0.00
   -9    2   25      0.24      0.00
    2    2   25     -0.45      0.00
    3    2   25     -0.03      0.00
    4    2   25      0.83      0.00
  -10    3   25      0.10      0.00
   -9    3   25     -0.06      0.00
   -8    3   25     -0.15      0.00
    1    3   25     -0.87      0.00
    2    3   25     -1.03      0.00
    3    3   25     -0.88      0.00
  -10    4   25      0.25      0.00
   -9    4   25      0.38      0.00
   -8    4   25      0.46      0.00
   -7    4   25      0.69      0.00
    0    4   25     -0.23      0.00
    1    4   25     -0.27      0.00
    2    4   25     -1.04      0.00
    3    4   25     -1.29      0.00
   -9    5   25      0.18      0.00
   -8    5   25     -0.21      0.00
   -7    5   25     -0.07      0.00
   -6    5   25      0.20      0.00
   -5    5   25     -0.08      0.00
   -2    5   25     -0.19      0.00
   -1    5   25      0.15      0.00
    0    5   25      0.16      0.00
    1    5   25     -0.02      0.00
    2    5   25     -0.17      0.00
   -8    6   25     -0.12      0.00
   -7    6   25      0.04      0.00
   -6    6   25      0.65      0.00
   -5    6   25      0.55      0.00
   -4    6   25      0.26      0.00
   -3    6   25     -0.20      0.00
   -2    6   25     -0.30      0.00
   -1    6   25     -0.40      0.00
    0    6   25      0.02      0.00
   -7    7   25      0.55      0.00
   -6    7   25      1.18      0.00
   -5    7   25      0.97      0.00
   -4    7   25      0.29      0.00
   -3    7   25     -0.01      0.00
   -2    7   25     -0.22      0.00
   -4  -10   26      0.43      0.00
   -3  -10   26      0.18      0.00
   -2  -10   26      0.07      0.00
   -1  -10   26      0.42      0.00
    0  -10   26      0.67      0.00
   -6   -9   26     -0.36      0.00
   -5   -9   26      0.31      0.00
   -4   -9   26      0.62      0.00
   -3   -9   26      0.29      0.00
   -2   -9   26      0.09      0.00
   -1   -9   26      0.50      0.00
    0   -9   26     -0.16      0.00
    1   -9   26     -0.64      0.00
    2   -9   26      0.29      0.00
   -7   -8   26      0.35      0.00
   -6   -8   26      0.60      0.00
   -5   -8   26      0.69      0.00
   -4   -8   26      0.48      0.00
   -3   -8   26      0.27      0.00
   -2   -8   26      1.08      0.00
   -1   -8   26      0.89      0.00
    0   -8   26      0.23      0.00
    1   -8   26      0.22      0.00
    2   -8   26      0.17      0.00
    3   -8   26      0.36      0.00
   -8   -7   26      0.73      0.00
   -7   -7   26      0.99      0.00
   -6   -7   26      0.73      0.00
   -5   -7   26      0.41      0.00
    1   -7   26     -0.72      0.00
    2   -7   26     -0.19      0.00
    3   -7   26      0.40      0.00
    4   -7   26      0.46      0.00
   -8   -6   26      0.38      0.00
   -7   -6   26     -0.03      0.00
   -6   -6   26     -0.45      0.00
    2   -6   26      0.85      0.00
    3   -6   26      1.19      0.00
    4   -6   26      0.57      0.00
   -9   -5   26     -0.43      0.00
   -8   -5   26     -0.39      0.00
   -7   -5   26     -0.35      0.00
    2   -5   26      0.83      0.00
    3   -5   26      0.50      0.00
    4   -5   26     -0.07      0.00
   -9   -4   26      0.31      0.00
   -8   -4   26      0.83      0.00
    3   -4   26     -0.02      0.00
    4   -4   26     -0.04      0.00
  -10   -3   26     -0.26      0.00
   -9   -3   26      0.14      0.00
   -8   -3   26      0.59      0.00
    3   -3   26     -0.16      0.00
    4   -3   26      0.82      0.00
  -10   -2   26     -0.37      0.00
   -9   -2   26      0.09      0.00
    3   -2   26      0.39      0.00
    4   -2   26      0.20      0.00
  -10   -1   26      0.03      0.00
   -9   -1   26      0.04      0.00
    3   -1   26     -0.44      0.00
    4   -1   26     -0.21      0.00
  -10    0   26      0.43      0.00
   -9    0   26      0.78      0.00
    2    0   26     -0.49      0.00
    3    0   26      0.13      0.00
    4    0   26     -0.15      0.00
  -10    1   26      0.17      0.00
   -9    1   26     -0.23      0.00
   -8    1   26      0.64      0.00
    2    1   26      0.25      0.00
    3    1   26     -0.08      0.00
  -10    2   26      0.02      0.00
   -9    2   26      0.58      0.00
   -8    2   26      0.54      0.00
    1    2   26      0.11      0.00
    2    2   26     -0.53      0.00
    3    2   26      0.29      0.00
   -9    3   26      0.08      0.00
   -8    3   26      0.00      0.00
   -7    3   26      0.23      0.00
    0    3   26     -0.60      0.00
    1    3   26     -0.98      0.00
    2    3   26     -0.55      0.00
   -9    4   26      0.37      0.00
   -8    4   26      0.36      0.00
   -7    4   26      0.82      0.00
   -6    4   26      0.79      0.00
   -5    4   26      0.20      0.00
   -4    4   26      0.04      0.00
   -3    4   26     -0.60      0.00
   -2    4   26     -1.25      0.00
   -1    4   26     -0.79      0.00
    0    4   26     -0.28      0.00
    1    4   26     -0.35      0.00
   -8    5   26     -0.06      0.00
   -7    5   26      0.29      0.00
   -6    5   26      0.03      0.00
   -5    5   26     -0.25      0.00
   -4    5   26     -0.68      0.00
   -3    5   26     -0.73      0.00
   -2    5   26     -0.19      0.00
   -1    5   26      0.16      0.00
    0    5   26      0.14      0.00
   -7    6   26     -0.22      0.00
   -6    6   26     -0.08      0.00
   -5    6   26     -0.28      0.00
   -4    6   26     -0.45      0.00
   -3    6   26     -0.25      0.00
   -2    6   26     -0.32      0.00
   -1    6   26     -0.17      0.00
   -4   -9   27      0.59      0.00
   -3   -9   27      0.07      0.00
   -2   -9   27      0.35      0.00
   -1   -9   27      0.40      0.00
    0   -9   27     -0.29      0.00
   -6   -8   27      0.30      0.00
   -5   -8   27      0.76      0.00
   -4   -8   27      0.17      0.00
   -3   -8   27      0.28      0.00
   -2   -8   27      0.77      0.00
   -1   -8   27      0.70      0.00
    0   -8   27     -0.10      0.00
    1   -8   27      0.02      0.00
    2   -8   27      0.68      0.00
   -7   -7   27      0.61      0.00
   -6   -7   27      0.76      0.00
   -5   -7   27      0.30      0.00
   -4   -7   27      0.23      0.00
   -3   -7   27      0.42      0.00
   -2   -7   27      0.71      0.00
   -1   -7   27     -0.04      0.00
    0   -7   27     -0.40      0.00
    1   -7   27     -0.10      0.00
    2   -7   27     -0.29      0.00
    3   -7   27     -0.18      0.00
   -8   -6   27      0.67      0.00
   -7   -6   27      0.33      0.00
   -6   -6   27     -0.28      0.00
   -5   -6   27     -0.56      0.00
   -4   -6   27     -0.82      0.00
    0   -6   27     -0.27      0.00
    1   -6   27      0.00      0.00
    2   -6   27      0.70      0.00
    3   -6   27      0.58      0.00
   -8   -5   27     -0.24      0.00
   -7   -5   27     -0.59      0.00
   -6   -5   27     -0.72      0.00
    1   -5   27      0.24      0.00
    2   -5   27      0.84      0.00
    3   -5   27      0.36      0.00
   -9   -4   27      0.11      0.00
   -8   -4   27      0.51      0.00
   -7   -4   27      0.37      0.00
    1   -4   27      0.55      0.00
    2   -4   27      0.48      0.00
    3   -4   27      0.14      0.00
    4   -4   27     -0.15      0.00
   -9   -3   27      0.36      0.00
   -8   -3   27      0.66      0.00
   -7   -3   27      0.01      0.00
    1   -3   27     -0.79      0.00
    2   -3   27     -0.63      0.00
    3   -3   27      0.15      0.00
    4   -3   27      0.47      0.00
   -9   -2   27      0.12      0.00
   -8   -2   27      0.32      0.00
   -7   -2   27      0.21      0.00
    1   -2   27     -0.98      0.00
    2   -2   27     -0.12      0.00
    3   -2   27      0.48      0.00
   -9   -1   27      0.21      0.00
   -8   -1   27      0.78      0.00
   -7   -1   27      0.71      0.00
    1   -1   27      0.21      0.00
    2   -1   27     -0.19      0.00
    3   -1   27     -0.15      0.00
   -9    0   27      0.65      0.00
   -8    0   27      0.92      0.00
   -7    0   27      0.53      0.00
    1    0   27     -0.66      0.00
    2    0   27     -0.24      0.00
    3    0   27     -0.23      0.00
   -9    1   27      0.28      0.00
   -8    1   27      0.56      0.00
   -7    1   27      1.49      0.00
    0    1   27     -0.65      0.00
    1    1   27      0.20      0.00
    2    1   27      0.39      0.00
   -9    2   27      0.44      0.00
   -8    2   27      0.92      0.00
   -7    2   27      0.32      0.00
   -6    2   27     -0.64      0.00
   -1    2   27      0.54      0.00
    0    2   27      0.78      0.00
    1    2   27      0.29      0.00
    2    2   27     -0.05      0.00
   -9    3   27      0.35      0.00
   -8    3   27      0.02      0.00
   -7    3   27     -0.09      0.00
   -6    3   27      0.36      0.00
   -5    3   27      0.38      0.00
   -4    3   27      0.51      0.00
   -3    3   27      0.71      0.00
   -2    3   27      0.63      0.00
   -1    3   27      0.18      0.00
    0    3   27     -0.45      0.00
    1    3   27     -0.65      0.00
   -8    4   27      0.27      0.00
   -7    4   27      0.63      0.00
   -6    4   27      0.81      0.00
   -5    4   27      0.59      0.00
   -4    4   27      0.35      0.00
   -3    4   27     -0.28      0.00
   -2    4   27     -0.80      0.00
   -1    4   27     -0.74      0.00
    0    4   27     -0.23      0.00
   -7    5   27      0.52      0.00
   -6    5   27      0.32      0.00
   -5    5   27     -0.09      0.00
   -4    5   27     -0.45      0.00
   -3    5   27     -0.51      0.00
   -2    5   27     -0.32      0.00
   -1    5   27      0.28      0.00
   -4   -8   28      0.18      0.00
   -3   -8   28     -0.12      0.00
   -2   -8   28      0.54      0.00
   -1   -8   28      0.23      0.00
    0   -8   28     -0.35      0.00
   -6   -7   28      0.40      0.00
   -5   -7   28      0.28      0.00
   -4   -7   28     -0.03      0.00
   -3   -7   28      0.69      0.00
   -2   -7   28      0.70      0.00
   -1   -7   28     -0.08      0.00
    0   -7   28     -0.22      0.00
    1   -7   28      0.10      0.00
   -7   -6   28      0.39      0.00
   -6   -6   28      0.07      0.00
   -5   -6   28     -0.41      0.00
   -4   -6   28     -0.27      0.00
   -3   -6   28     -0.25      0.00
   -2   -6   28     -0.59      0.00
   -1   -6   28     -0.81      0.00
    0   -6   28     -0.13      0.00
    1   -6   28      0.32      0.00
    2   -6   28      0.11      0.00
   -7   -5   28     -0.45      0.00
   -6   -5   28     -0.82      0.00
   -5   -5   28     -0.61      0.00
   -4   -5   28      0.01      0.00
   -3   -5   28      0.33      0.00
   -2   -5   28     -0.40      0.00
   -1   -5   28     -0.63      0.00
    0   -5   28     -0.28      0.00
    1   -5   28      0.32      0.00
    2   -5   28      0.54      0.00
   -8   -4   28      0.15      0.00
   -7   -4   28     -0.01      0.00
   -6   -4   28     -0.31      0.00
   -5   -4   28      0.14      0.00
   -4   -4   28      0.88      0.00
   -3   -4   28      0.37      0.00
   -2   -4   28     -0.51      0.00
   -1   -4   28     -1.02      0.00
    0   -4   28     -0.35      0.00
    1   -4   28      0.50      0.00
    2   -4   28      0.44      0.00
   -8   -3   28      0.69      0.00
   -7   -3   28     -0.04      0.00
   -6   -3   28     -0.49      0.00
   -5   -3   28     -0.19      0.00
   -1   -3   28      0.25      0.00
    0   -3   28      0.27      0.00
    1   -3   28     -0.08      0.00
    2   -3   28     -0.25      0.00
   -9   -2   28      0.48      0.00
   -8   -2   28      0.31      0.00
   -7   -2   28     -0.05      0.00
   -6   -2   28     -0.49      0.00
   -5   -2   28     -0.60      0.00
   -1   -2   28     -0.29      0.00
    0   -2   28     -0.75      0.00
    1   -2   28     -0.84      0.00
    2   -2   28      0.02      0.00
   -9   -1   28      0.29      0.00
   -8   -1   28      0.76      0.00
   -7   -1   28      0.39      0.00
   -6   -1   28     -0.34      0.00
   -5   -1   28     -0.16      0.00
   -1   -1   28     -0.45      0.00
    0   -1   28      0.00      0.00
    1   -1   28      0.43      0.00
    2   -1   28      0.20      0.00
   -9    0   28      0.83      0.00
   -8    0   28      0.89      0.00
   -7    0   28      0.26      0.00
   -6    0   28      0.26      0.00
   -5    0   28      0.27      0.00
   -4    0   28     -0.18      0.00
   -3    0   28     -0.52      0.00
   -2    0   28      0.00      0.00
   -1    0   28      0.30      0.00
    0    0   28      0.20      0.00
    1    0   28     -0.37      0.00
    2    0   28     -0.58      0.00
   -8    1   28      0.46      0.00
   -7    1   28      0.81      0.00
   -6    1   28      0.86      0.00
   -5    1   28      0.29      0.00
   -4    1   28      0.11      0.00
   -3    1   28      0.30      0.00
   -2    1   28     -0.18      0.00
   -1    1   28     -0.72      0.00
    0    1   28     -0.73      0.00
    1    1   28     -0.04      0.00
   -8    2   28      0.68      0.00
   -7    2   28      0.62      0.00
   -6    2   28     -0.22      0.00
   -5    2   28     -0.52      0.00
   -4    2   28     -0.25      0.00
   -3    2   28     -0.32      0.00
   -2    2   28     -0.23      0.00
   -1    2   28      0.21      0.00
    0    2   28      0.70      0.00
    1    2   28      0.67      0.00
   -7    3   28     -0.13      0.00
   -6    3   28     -0.22      0.00
   -5    3   28     -0.07      0.00
   -4    3   28     -0.01      0.00
   -3    3   28      0.44      0.00
   -2    3   28      0.69      0.00
   -1    3   28      0.46      0.00
    0    3   28     -0.01      0.00
   -6    4   28      0.55      0.00
   -5    4   28      0.45      0.00
   -4    4   28      0.42      0.00
   -3    4   28      0.06      0.00
   -2    4   28     -0.47      0.00
   -4   -7   29     -0.04      0.00
   -3   -7   29      0.32      0.00
   -2   -7   29      0.58      0.00
   -1   -7   29     -0.04      0.00
   -5   -6   29     -0.07      0.00
   -4   -6   29     -0.07      0.00
   -3   -6   29      0.12      0.00
   -2   -6   29     -0.56      0.00
   -1   -6   29     -0.80      0.00
    0   -6   29      0.14      0.00
   -6   -5   29     -0.48      0.00
   -5   -5   29     -0.54      0.00
   -4   -5   29      0.14      0.00
   -3   -5   29      0.02      0.00
   -2   -5   29     -0.67      0.00
   -1   -5   29     -0.39      0.00
    0   -5   29      0.18      0.00
    1   -5   29      0.28      0.00
   -7   -4   29     -0.22      0.00
   -6   -4   29     -0.47      0.00
   -5   -4   29      0.34      0.00
   -4   -4   29      0.96      0.00
   -3   -4   29      0.32      0.00
   -2   -4   29     -0.50      0.00
   -1   -4   29     -0.66      0.00
    0   -4   29     -0.30      0.00
    1   -4   29      0.29      0.00
   -7   -3   29     -0.18      0.00
   -6   -3   29     -0.24      0.00
   -5   -3   29      0.32      0.00
   -4   -3   29      0.46      0.00
   -3   -3   29      0.16      0.00
   -2   -3   29     -0.08      0.00
   -1   -3   29      0.04      0.00
    0   -3   29      0.48      0.00
    1   -3   29      0.04      0.00
   -7   -2   29     -0.26      0.00
   -6   -2   29     -0.39      0.00
   -5   -2   29     -0.34      0.00
   -4   -2   29     -0.08      0.00
   -3   -2   29      0.05      0.00
   -2   -2   29      0.22      0.00
   -1   -2   29      0.42      0.00
    0   -2   29     -0.35      0.00
    1   -2   29     -0.49      0.00
   -8   -1   29      0.35      0.00
   -7   -1   29      0.08      0.00
   -6   -1   29     -0.38      0.00
   -5   -1   29     -0.19      0.00
   -4   -1   29     -0.11      0.00
   -3   -1   29     -0.40      0.00
   -2   -1   29     -0.33      0.00
   -1   -1   29     -0.46      0.00
    0   -1   29      0.07      0.00
    1   -1   29      0.44      0.00
   -7    0   29     -0.03      0.00
   -6    0   29     -0.13      0.00
   -5    0   29      0.05      0.00
   -4    0   29     -0.34      0.00
   -3    0   29     -0.46      0.00
   -2    0   29     -0.37      0.00
   -1    0   29      0.38      0.00
    0    0   29      0.42      0.00
   -7    1   29      0.08      0.00
   -6    1   29      0.32      0.00
   -5    1   29      0.12      0.00
   -4    1   29      0.24      0.00
   -3    1   29      0.20      0.00
   -2    1   29      0.05      0.00
   -1    1   29     -0.50      0.00
    0    1   29     -0.62      0.00
   -6    2   29     -0.01      0.00
   -5    2   29     -0.19      0.00
   -4    2   29     -0.12      0.00
   -3    2   29     -0.19      0.00
   -2    2   29     -0.43      0.00
   -1    2   29     -0.09      0.00
   -5    3   29     -0.47      0.00
   -4    3   29     -0.30      0.00
   -3    3   29      0.04      0.00
    0    0    0      0.00      0.00
# SQUEEZE RESULTS (Version =  30118)
# Note: Data are Listed for all Voids in the P1 Unit Cell
# i.e. Centre of Gravity, Solvent Accessible Volume,
# Recovered number of Electrons in the Void and
# Details about the Squeezed Material
loop_
  _platon_squeeze_void_nr
  _platon_squeeze_void_average_x
  _platon_squeeze_void_average_y
  _platon_squeeze_void_average_z
  _platon_squeeze_void_volume
  _platon_squeeze_void_count_electrons
  _platon_squeeze_void_content
   1  0.000  0.000  0.000       339       114 ' '
   2  0.416  0.467  0.521         8         0 ' '
   3  0.583  0.533  0.479         8         0 ' '
# Missing Reflections Below sin(th)/lambda = 0.25
loop_
  _platon_missing_refln_index_h
  _platon_missing_refln_index_k
  _platon_missing_refln_index_l
  _platon_missing_refln_theta
    1    0    0     1.846
   -3    1    0     5.516
   -1    1    0     2.271
    0    1    0     1.669
    3    1    0     6.056
    1   -3    1     5.052
   -1   -1    1     2.590
    0   -1    1     1.757
   -1    0    1     1.843
    0    0    1     0.901
   -1    1    1     2.379
    0    1    1     2.027
   -2   -2    2     5.186
    0   -2    2     3.515
    2   -1    2     4.459
   -2    0    2     3.689
    0    0    2     1.802
   -1    1    2     2.791
    1    1    2     3.627
   -1   -3    3     5.649
    2   -2    3     5.466
    0    0    3     2.704
   -1    1    4     4.115
   -1    1    5     4.895
   -1    1    6     5.712
_platon_squeeze_void_probe_radius                  1.20
_platon_squeeze_details
)
TITL P in P-1
CELL   11.4853   12.4928   23.5322     97.73    102.98     97.59
SPGR P-1
# Solvent Accessible Volume =       351
# Electrons Found in S.A.V. =       115
# Note: Atoms in Void are Labelled as Cxxx and Qxxx for all Others
Q101 0.105 0.699 0.241 !       3.25 eA-3
Q102 0.927 0.738 0.142 !       2.46 eA-3
C103 0.848 0.668 0.106 !       2.44 eA-3
C104 0.127 0.965 0.078 !       2.31 eA-3
Q105 0.133 0.968 0.016 !       2.01 eA-3
C106 0.085 0.017 0.046 !       1.75 eA-3
C107 0.923 0.730 0.098 !       1.56 eA-3
C108 0.025 0.903 0.071 !       1.34 eA-3
Q109 0.769 0.231 0.398 !       0.95 eA-3
Q110 0.806 0.140 0.309 !       0.88 eA-3
Q111 0.250 0.142 0.053 !       0.85 eA-3
Q112 0.928 0.866 0.082 !       0.70 eA-3
Q113 0.780 0.592 0.020 !       0.68 eA-3
Q114 0.969 0.784 0.032 !       0.61 eA-3
Q115 0.658 0.341 0.407 !       0.61 eA-3
Q116 0.051 0.080 0.084 !       0.61 eA-3
Q117 0.426 0.297 0.010 !       0.58 eA-3
C118 0.966 0.903 0.013 !       0.57 eA-3
Q119 0.038 0.308 0.016 !       0.57 eA-3
Q120 0.013 0.750 0.013 !       0.55 eA-3
Q121 0.230 0.963 0.132 !       0.55 eA-3
Q122 0.763 0.332 0.410 !       0.54 eA-3
Q123 0.133 0.848 0.139 !       0.54 eA-3
C124 0.979 0.111 0.039 !       0.53 eA-3
Q125 0.955 0.095 0.055 !       0.53 eA-3
Q126 0.871 0.206 0.463 !       0.52 eA-3
Q127 0.871 0.990 0.150 !       0.52 eA-3
Q128 0.782 0.072 0.464 !       0.52 eA-3
Q129 0.142 0.766 0.094 !       0.51 eA-3
Q130 0.063 0.844 0.314 !       0.51 eA-3
C131 0.903 0.568 0.082 !       0.50 eA-3
Q132 0.948 0.725 0.014 !       0.50 eA-3
Q133 0.604 0.888 0.268 !       0.50 eA-3
)
;
_shelx_fab_checksum              9925
_olex2_submission_special_instructions 'No special instructions were received'
loop_
_space_group_symop_operation_xyz
'x, y, z'
'-x, -y, -z'
loop_
_atom_site_label
_atom_site_type_symbol
_atom_site_fract_x
_atom_site_fract_y
_atom_site_fract_z
_atom_site_U_iso_or_equiv
_atom_site_adp_type
_atom_site_occupancy
_atom_site_site_symmetry_order
_atom_site_calc_flag
_atom_site_refinement_flags_posn
_atom_site_refinement_flags_adp
_atom_site_refinement_flags_occupancy
_atom_site_disorder_assembly
_atom_site_disorder_group
Rh1 Rh 0.07640(3) 0.78602(3) 0.32689(2) 0.04042(12) Uani 1 1 d . . . . .
Rh2 Rh 0.500000 1.000000 0.000000 0.04060(15) Uani 1 2 d S T P . .
Br1' Br 0.04153(8) 0.87553(7) 0.41501(4) 0.0613(3) Uani 0.720(2) 1 d . . . A 1
Br1 Br 0.1148(8) 0.7014(5) 0.2416(3) 0.0566(13) Uani 0.280(2) 1 d . . . A 2
Br2 Br 0.2966(2) 1.0485(2) -0.03142(13) 0.0606(6) Uani 0.5 1 d . . . B -1
N1 N 0.2309(4) 0.7445(3) 0.3742(2) 0.0438(10) Uani 1 1 d . . . . .
N2 N -0.0200(4) 0.6444(3) 0.3371(2) 0.0453(10) Uani 1 1 d . . . . .
N3 N -0.0770(4) 0.8263(3) 0.2783(2) 0.0445(10) Uani 1 1 d . . . . .
N4 N 0.1731(4) 0.9252(3) 0.3159(2) 0.0455(10) Uani 1 1 d . . . . .
N5 N 0.5569(4) 1.1541(3) 0.04692(19) 0.0452(10) Uani 1 1 d . . . . .
N6 N 0.4606(4) 0.9470(3) 0.07291(18) 0.0449(10) Uani 1 1 d . . . . .
C1 C 0.3447(5) 0.8069(4) 0.3892(2) 0.0465(12) Uani 1 1 d . . . . .
C2 C 0.4254(5) 0.7530(5) 0.4270(3) 0.0517(13) Uani 1 1 d . . . . .
H2 H 0.507622 0.777949 0.443477 0.062 Uiso 1 1 calc R . . . .
C3 C 0.3611(5) 0.6597(5) 0.4343(2) 0.0513(13) Uani 1 1 d . . . . .
H3 H 0.390768 0.608604 0.456551 0.062 Uiso 1 1 calc R . . . .
C4 C 0.2384(5) 0.6539(4) 0.4014(2) 0.0442(12) Uani 1 1 d . . . . .
C5 C 0.1431(5) 0.5692(4) 0.3975(2) 0.0470(12) Uani 1 1 d . . . . .
C6 C 0.0249(5) 0.5666(4) 0.3677(3) 0.0483(13) Uani 1 1 d . . . . .
C7 C -0.0739(5) 0.4793(5) 0.3632(3) 0.0556(14) Uani 1 1 d . . . . .
H7 H -0.068212 0.415344 0.379047 0.067 Uiso 1 1 calc R . . . .
C8 C -0.1758(5) 0.5065(5) 0.3321(3) 0.0531(14) Uani 1 1 d . . . . .
H8 H -0.253153 0.465239 0.322691 0.064 Uiso 1 1 calc R . . . .
C9 C -0.1429(5) 0.6111(4) 0.3160(2) 0.0471(12) Uani 1 1 d . . . . .
C10 C -0.2236(5) 0.6677(4) 0.2846(2) 0.0461(12) Uani 1 1 d . . . . .
C11 C -0.1932(4) 0.7673(4) 0.2665(2) 0.0449(12) Uani 1 1 d . . . . .
C12 C -0.2753(5) 0.8251(5) 0.2334(3) 0.0518(14) Uani 1 1 d . . . . .
H12 H -0.358468 0.802470 0.219081 0.062 Uiso 1 1 calc R . . . .
C13 C -0.2113(5) 0.9181(5) 0.2265(3) 0.0527(14) Uani 1 1 d . . . . .
H13 H -0.242542 0.971821 0.206816 0.063 Uiso 1 1 calc R . . . .
C14 C -0.0865(5) 0.9205(4) 0.2547(2) 0.0466(12) Uani 1 1 d . . . . .
C15 C 0.0088(5) 1.0037(4) 0.2582(2) 0.0462(12) Uani 1 1 d . . . . .
C16 C 0.1291(5) 1.0029(4) 0.2850(3) 0.0489(13) Uani 1 1 d . . . . .
C17 C 0.2297(5) 1.0831(5) 0.2840(3) 0.0594(15) Uani 1 1 d . . . . .
H17 H 0.224905 1.143729 0.265117 0.071 Uiso 1 1 calc R . . . .
C18 C 0.3297(5) 1.0570(5) 0.3141(3) 0.0576(15) Uani 1 1 d . . . . .
H18 H 0.407709 1.095528 0.320217 0.069 Uiso 1 1 calc R . . . .
C19 C 0.2967(5) 0.9571(4) 0.3361(3) 0.0477(13) Uani 1 1 d . . . . .
C20 C 0.3774(5) 0.9043(4) 0.3708(2) 0.0479(13) Uani 1 1 d . . . . .
C21 C 0.1719(5) 0.4727(4) 0.4266(2) 0.0491(13) Uani 1 1 d . . . . .
C22 C 0.2206(7) 0.3911(6) 0.3996(3) 0.0741(19) Uani 1 1 d . . . . .
H22 H 0.240299 0.397262 0.363785 0.089 Uiso 1 1 calc R . . . .
C23 C 0.2407(7) 0.2990(6) 0.4259(4) 0.083(2) Uani 1 1 d . . . . .
H23 H 0.275415 0.245408 0.407457 0.100 Uiso 1 1 calc R . . . .
C24 C 0.2113(6) 0.2854(6) 0.4773(3) 0.0710(19) Uani 1 1 d . . . . .
C25 C 0.1646(7) 0.3677(7) 0.5043(3) 0.082(2) Uani 1 1 d . . . . .
H25 H 0.143838 0.361005 0.539844 0.098 Uiso 1 1 calc R . . . .
C26 C 0.1477(7) 0.4601(6) 0.4799(3) 0.0736(19) Uani 1 1 d . . . . .
H26 H 0.118979 0.515827 0.500261 0.088 Uiso 1 1 calc R . . . .
C27 C 0.2280(7) 0.1810(7) 0.5031(5) 0.115(4) Uani 1 1 d . . . . .
H27A H 0.202681 0.185401 0.539423 0.173 Uiso 1 1 calc R . . . .
H27B H 0.179923 0.118877 0.475405 0.173 Uiso 1 1 calc R . . . .
H27C H 0.311857 0.173236 0.510654 0.173 Uiso 1 1 calc R . . . .
C31 C -0.3552(5) 0.6200(4) 0.2698(2) 0.0449(12) Uani 1 1 d . . . . .
C32 C -0.4200(6) 0.6236(6) 0.3121(3) 0.0691(19) Uani 1 1 d . . . . .
H32 H -0.381162 0.656599 0.350805 0.083 Uiso 1 1 calc R . . . .
C33 C -0.5426(6) 0.5790(6) 0.2986(3) 0.074(2) Uani 1 1 d . . . . .
H33 H -0.584055 0.583435 0.328342 0.089 Uiso 1 1 calc R . . . .
C34 C -0.6028(5) 0.5292(5) 0.2430(3) 0.0617(16) Uani 1 1 d . . . . .
C35 C -0.5396(6) 0.5246(6) 0.2002(3) 0.074(2) Uani 1 1 d . . . . .
H35 H -0.578666 0.490122 0.161796 0.089 Uiso 1 1 calc R . . . .
C36 C -0.4178(6) 0.5708(6) 0.2132(3) 0.0721(19) Uani 1 1 d . . . . .
H36 H -0.377499 0.568522 0.183058 0.087 Uiso 1 1 calc R . . . .
C37 C -0.7344(6) 0.4785(7) 0.2283(4) 0.093(3) Uani 1 1 d . . . . .
H37A H -0.760651 0.447527 0.187018 0.140 Uiso 1 1 calc R . . . .
H37B H -0.745003 0.421990 0.251474 0.140 Uiso 1 1 calc R . . . .
H37C H -0.781538 0.533718 0.237055 0.140 Uiso 1 1 calc R . . . .
C41 C -0.0188(5) 1.1045(4) 0.2327(3) 0.0481(13) Uani 1 1 d . . . . .
C42 C -0.0666(6) 1.1039(5) 0.1738(3) 0.0669(17) Uani 1 1 d . . . . .
H42 H -0.087417 1.037715 0.147611 0.080 Uiso 1 1 calc R . . . .
C43 C -0.0845(7) 1.2010(6) 0.1526(4) 0.080(2) Uani 1 1 d . . . . .
H43 H -0.116679 1.198558 0.112352 0.096 Uiso 1 1 calc R . . . .
C44 C -0.0555(5) 1.2993(5) 0.1897(4) 0.0684(19) Uani 1 1 d . . . . .
C45 C -0.0115(6) 1.3008(5) 0.2484(4) 0.0727(19) Uani 1 1 d . . . . .
H45 H 0.007652 1.367316 0.274251 0.087 Uiso 1 1 calc R . . . .
C46 C 0.0056(6) 1.2045(5) 0.2705(3) 0.0633(16) Uani 1 1 d . . . . .
H46 H 0.033545 1.207270 0.311065 0.076 Uiso 1 1 calc R . . . .
C47 C -0.0721(7) 1.4062(6) 0.1677(5) 0.108(3) Uani 1 1 d . . . . .
H47A H -0.103808 1.391794 0.125499 0.161 Uiso 1 1 calc R . . . .
H47B H -0.127734 1.440253 0.186011 0.161 Uiso 1 1 calc R . . . .
H47C H 0.004613 1.454172 0.177483 0.161 Uiso 1 1 calc R . . . .
C51 C 0.5080(5) 0.9580(4) 0.3884(2) 0.0479(13) Uani 1 1 d . . . . .
C52 C 0.5877(5) 0.9278(6) 0.3564(3) 0.0673(18) Uani 1 1 d . . . . .
H52 H 0.561841 0.869370 0.325044 0.081 Uiso 1 1 calc R . . . .
C53 C 0.7056(6) 0.9821(7) 0.3697(3) 0.078(2) Uani 1 1 d . . . . .
H53 H 0.757817 0.959801 0.347243 0.093 Uiso 1 1 calc R . . . .
C54 C 0.7467(5) 1.0684(6) 0.4156(3) 0.0612(16) Uani 1 1 d . . . . .
C55 C 0.6694(6) 1.0967(6) 0.4487(3) 0.0712(18) Uani 1 1 d . . . . .
H55 H 0.696478 1.152932 0.481155 0.085 Uiso 1 1 calc R . . . .
C56 C 0.5515(6) 1.0431(5) 0.4349(3) 0.0671(17) Uani 1 1 d . . . . .
H56 H 0.499798 1.065162 0.457830 0.080 Uiso 1 1 calc R . . . .
C57 C 0.8744(6) 1.1338(8) 0.4275(4) 0.097(3) Uani 1 1 d . . . . .
H57A H 0.915860 1.102256 0.399945 0.145 Uiso 1 1 calc R . . . .
H57B H 0.869444 1.208399 0.422891 0.145 Uiso 1 1 calc R . . . .
H57C H 0.918150 1.131865 0.467116 0.145 Uiso 1 1 calc R . . . .
C61 C 0.6019(5) 1.2454(4) 0.0266(2) 0.0473(12) Uani 1 1 d . . . . .
C62 C 0.6343(5) 1.3372(5) 0.0737(2) 0.0535(14) Uani 1 1 d . . . . .
H62 H 0.667674 1.408154 0.071629 0.064 Uiso 1 1 calc R . . . .
C63 C 0.6076(5) 1.3019(5) 0.1214(3) 0.0537(14) Uani 1 1 d . . . . .
H63 H 0.617293 1.344225 0.158302 0.064 Uiso 1 1 calc R . . . .
C64 C 0.5610(5) 1.1862(4) 0.1047(2) 0.0465(12) Uani 1 1 d . . . . .
C65 C 0.5259(5) 1.1204(4) 0.1433(2) 0.0470(12) Uani 1 1 d . . . . .
C66 C 0.4806(5) 1.0086(4) 0.1278(2) 0.0446(12) Uani 1 1 d . . . . .
C67 C 0.4461(6) 0.9391(5) 0.1675(2) 0.0559(14) Uani 1 1 d . . . . .
H67 H 0.449830 0.960976 0.207351 0.067 Uiso 1 1 calc R . . . .
C68 C 0.4078(5) 0.8370(5) 0.1367(2) 0.0545(14) Uani 1 1 d . . . . .
H68 H 0.381467 0.775103 0.151416 0.065 Uiso 1 1 calc R . . . .
C69 C 0.4150(5) 0.8412(4) 0.0765(2) 0.0474(12) Uani 1 1 d . . . . .
C70 C 0.3844(5) 0.7523(4) 0.0311(2) 0.0495(13) Uani 1 1 d . . . . .
C71 C 0.5391(5) 1.1753(4) 0.2058(2) 0.0464(12) Uani 1 1 d . . . . .
C72 C 0.4488(5) 1.2271(5) 0.2210(3) 0.0563(14) Uani 1 1 d . . . . .
H72 H 0.377243 1.224874 0.192610 0.068 Uiso 1 1 calc R . . . .
C73 C 0.4632(6) 1.2827(5) 0.2784(3) 0.0608(16) Uani 1 1 d . . . . .
H73 H 0.401680 1.317806 0.287674 0.073 Uiso 1 1 calc R . . . .
C74 C 0.5673(6) 1.2861(5) 0.3211(3) 0.0576(16) Uani 1 1 d . . . . .
C75 C 0.6561(7) 1.2361(5) 0.3060(3) 0.0685(18) Uani 1 1 d . . . . .
H75 H 0.727381 1.238104 0.334562 0.082 Uiso 1 1 calc R . . . .
C76 C 0.6434(6) 1.1819(5) 0.2488(3) 0.0634(16) Uani 1 1 d . . . . .
H76 H 0.706802 1.149617 0.239661 0.076 Uiso 1 1 calc R . . . .
C77 C 0.5808(8) 1.3449(6) 0.3839(3) 0.081(2) Uani 1 1 d . . . . .
H77A H 0.508908 1.375036 0.386050 0.122 Uiso 1 1 calc R . . . .
H77B H 0.592406 1.293734 0.410864 0.122 Uiso 1 1 calc R . . . .
H77C H 0.649495 1.402811 0.394380 0.122 Uiso 1 1 calc R . . . .
C81 C 0.3278(5) 0.6433(5) 0.0419(2) 0.0504(13) Uani 1 1 d . . . . .
C82 C 0.3895(7) 0.5551(5) 0.0415(3) 0.0645(16) Uani 1 1 d . . . . .
H82 H 0.468644 0.564540 0.037368 0.077 Uiso 1 1 calc R . . . .
C83 C 0.3343(8) 0.4530(5) 0.0471(3) 0.078(2) Uani 1 1 d . . . . .
H83 H 0.377594 0.395250 0.046215 0.093 Uiso 1 1 calc R . . . .
C84 C 0.2210(8) 0.4341(6) 0.0539(3) 0.082(2) Uani 1 1 d . . . . .
C85 C 0.1573(7) 0.5239(7) 0.0556(3) 0.087(2) Uani 1 1 d . . . . .
H85 H 0.078945 0.514177 0.060757 0.104 Uiso 1 1 calc R . . . .
C86 C 0.2120(6) 0.6265(6) 0.0494(3) 0.0713(18) Uani 1 1 d . . . . .
H86 H 0.169281 0.684714 0.050349 0.086 Uiso 1 1 calc R . . . .
C87 C 0.1590(10) 0.3226(7) 0.0601(4) 0.123(4) Uani 1 1 d . . . . .
H87A H 0.078631 0.327615 0.064472 0.185 Uiso 1 1 calc R . . . .
H87B H 0.154441 0.270399 0.025484 0.185 Uiso 1 1 calc R . . . .
H87C H 0.204596 0.299325 0.094359 0.185 Uiso 1 1 calc R . . . .
C88 C 0.7078(16) 0.890(2) 0.0453(9) 0.089(6) Uani 0.5 1 d . . . B 1
H88A H 0.661036 0.825629 0.019345 0.134 Uiso 0.5 1 calc GR . . B 1
H88B H 0.688361 0.894423 0.083084 0.134 Uiso 0.5 1 calc GR . . B 1
H88C H 0.792571 0.887580 0.050328 0.134 Uiso 0.5 1 calc GR . . B 1
O1 O 0.6817(19) 0.9796(17) 0.0218(10) 0.081(7) Uani 0.5 1 d . . . B 1
C0AA C 0.1973(10) 0.7414(9) 0.2203(5) 0.084(3) Uani 0.719 1 d . . . A 1
H0AA H 0.199638 0.695616 0.184523 0.126 Uiso 0.719 1 calc GR . . A 1
H0AB H 0.270546 0.743651 0.250023 0.126 Uiso 0.719 1 calc GR . . A 1
H0AC H 0.190233 0.814218 0.212728 0.126 Uiso 0.719 1 calc GR . . A 1
O2 O 0.100(2) 0.6998(17) 0.2398(9) 0.094(9) Uani 0.719 1 d . . . A 1
loop_
_atom_site_aniso_label
_atom_site_aniso_U_11
_atom_site_aniso_U_22
_atom_site_aniso_U_33
_atom_site_aniso_U_23
_atom_site_aniso_U_13
_atom_site_aniso_U_12
Rh1 0.0330(2) 0.0380(2) 0.0486(2) 0.00781(17) 0.01024(17) -0.00053(16)
Rh2 0.0411(3) 0.0408(3) 0.0371(3) -0.0003(2) 0.0119(2) 0.0000(2)
Br1' 0.0612(6) 0.0666(6) 0.0539(5) -0.0004(4) 0.0178(4) 0.0075(4)
Br1 0.061(2) 0.052(3) 0.052(3) 0.0005(19) 0.0089(18) 0.0097(18)
Br2 0.0491(10) 0.0689(17) 0.0614(14) 0.0100(12) 0.0082(10) 0.0124(12)
N1 0.031(2) 0.044(2) 0.056(3) 0.010(2) 0.0114(19) 0.0027(18)
N2 0.038(2) 0.039(2) 0.058(3) 0.011(2) 0.013(2) -0.0017(18)
N3 0.035(2) 0.040(2) 0.057(3) 0.010(2) 0.009(2) 0.0027(18)
N4 0.034(2) 0.040(2) 0.060(3) 0.011(2) 0.010(2) -0.0027(18)
N5 0.046(2) 0.044(2) 0.043(2) 0.0015(19) 0.014(2) 0.0000(19)
N6 0.050(3) 0.041(2) 0.041(2) 0.0024(19) 0.013(2) 0.0003(19)
C1 0.038(3) 0.048(3) 0.048(3) 0.005(2) 0.006(2) -0.001(2)
C2 0.041(3) 0.054(3) 0.055(3) 0.007(3) 0.006(2) 0.003(2)
C3 0.049(3) 0.052(3) 0.051(3) 0.011(3) 0.009(3) 0.007(3)
C4 0.044(3) 0.043(3) 0.047(3) 0.009(2) 0.013(2) 0.005(2)
C5 0.045(3) 0.045(3) 0.050(3) 0.007(2) 0.012(2) 0.004(2)
C6 0.049(3) 0.041(3) 0.059(3) 0.012(2) 0.020(3) 0.005(2)
C7 0.051(3) 0.040(3) 0.077(4) 0.016(3) 0.019(3) -0.001(2)
C8 0.040(3) 0.047(3) 0.070(4) 0.014(3) 0.014(3) -0.006(2)
C9 0.039(3) 0.042(3) 0.058(3) 0.008(2) 0.013(2) -0.004(2)
C10 0.036(3) 0.042(3) 0.056(3) 0.004(2) 0.011(2) -0.001(2)
C11 0.034(3) 0.043(3) 0.053(3) 0.002(2) 0.008(2) 0.001(2)
C12 0.034(3) 0.052(3) 0.064(4) 0.009(3) 0.006(2) 0.000(2)
C13 0.045(3) 0.047(3) 0.064(4) 0.014(3) 0.007(3) 0.008(2)
C14 0.045(3) 0.044(3) 0.050(3) 0.009(2) 0.013(2) 0.004(2)
C15 0.045(3) 0.046(3) 0.047(3) 0.010(2) 0.011(2) 0.004(2)
C16 0.045(3) 0.040(3) 0.059(3) 0.007(2) 0.015(3) -0.002(2)
C17 0.049(3) 0.048(3) 0.082(4) 0.019(3) 0.020(3) -0.004(3)
C18 0.041(3) 0.048(3) 0.082(4) 0.019(3) 0.013(3) -0.002(2)
C19 0.037(3) 0.043(3) 0.060(3) 0.008(2) 0.013(2) -0.005(2)
C20 0.040(3) 0.046(3) 0.055(3) 0.005(2) 0.013(2) 0.000(2)
C21 0.043(3) 0.049(3) 0.053(3) 0.013(3) 0.009(2) 0.001(2)
C22 0.087(5) 0.072(4) 0.078(5) 0.024(4) 0.036(4) 0.031(4)
C23 0.095(6) 0.067(5) 0.099(6) 0.026(4) 0.027(5) 0.038(4)
C24 0.050(4) 0.064(4) 0.091(5) 0.032(4) -0.004(3) -0.002(3)
C25 0.099(6) 0.087(5) 0.071(5) 0.038(4) 0.028(4) 0.023(5)
C26 0.096(5) 0.071(4) 0.062(4) 0.013(3) 0.031(4) 0.018(4)
C27 0.071(5) 0.094(6) 0.171(9) 0.079(6) -0.016(5) 0.004(4)
C31 0.037(3) 0.039(3) 0.055(3) 0.005(2) 0.009(2) -0.001(2)
C32 0.053(4) 0.077(4) 0.063(4) -0.021(3) 0.020(3) -0.016(3)
C33 0.054(4) 0.082(5) 0.078(5) -0.017(4) 0.031(3) -0.008(3)
C34 0.042(3) 0.052(3) 0.082(5) 0.009(3) 0.004(3) 0.000(3)
C35 0.059(4) 0.089(5) 0.054(4) 0.003(3) -0.002(3) -0.018(4)
C36 0.063(4) 0.089(5) 0.053(4) -0.001(3) 0.017(3) -0.021(4)
C37 0.044(4) 0.085(5) 0.137(7) 0.009(5) 0.009(4) -0.007(4)
C41 0.040(3) 0.044(3) 0.058(3) 0.013(3) 0.011(2) 0.001(2)
C42 0.076(4) 0.052(4) 0.067(4) 0.012(3) 0.007(3) 0.005(3)
C43 0.079(5) 0.073(5) 0.082(5) 0.033(4) -0.002(4) 0.004(4)
C44 0.037(3) 0.054(4) 0.111(6) 0.031(4) 0.005(3) 0.003(3)
C45 0.064(4) 0.049(4) 0.102(6) 0.007(4) 0.021(4) 0.005(3)
C46 0.069(4) 0.051(4) 0.072(4) 0.014(3) 0.019(3) 0.008(3)
C47 0.066(5) 0.061(5) 0.187(10) 0.058(6) 0.000(5) -0.003(4)
C51 0.043(3) 0.049(3) 0.050(3) 0.012(2) 0.010(2) 0.000(2)
C52 0.045(3) 0.085(5) 0.063(4) -0.006(3) 0.014(3) -0.002(3)
C53 0.044(3) 0.117(6) 0.068(4) 0.004(4) 0.021(3) -0.004(4)
C54 0.040(3) 0.078(4) 0.060(4) 0.021(3) 0.004(3) -0.004(3)
C55 0.057(4) 0.074(4) 0.069(4) -0.002(3) 0.007(3) -0.010(3)
C56 0.051(4) 0.070(4) 0.071(4) -0.009(3) 0.018(3) -0.006(3)
C57 0.051(4) 0.137(8) 0.088(6) 0.027(5) 0.003(4) -0.021(4)
C61 0.046(3) 0.048(3) 0.045(3) 0.005(2) 0.011(2) 0.002(2)
C62 0.061(4) 0.048(3) 0.046(3) 0.000(2) 0.012(3) 0.000(3)
C63 0.061(4) 0.048(3) 0.045(3) -0.004(2) 0.011(3) 0.000(3)
C64 0.047(3) 0.046(3) 0.041(3) -0.001(2) 0.009(2) 0.000(2)
C65 0.049(3) 0.052(3) 0.036(3) 0.000(2) 0.009(2) 0.006(2)
C66 0.051(3) 0.041(3) 0.041(3) 0.003(2) 0.013(2) 0.006(2)
C67 0.070(4) 0.055(3) 0.040(3) -0.001(3) 0.019(3) 0.001(3)
C68 0.063(4) 0.053(3) 0.050(3) 0.011(3) 0.018(3) 0.007(3)
C69 0.051(3) 0.049(3) 0.041(3) 0.005(2) 0.013(2) 0.004(2)
C70 0.050(3) 0.046(3) 0.050(3) 0.003(2) 0.015(3) 0.000(2)
C71 0.055(3) 0.039(3) 0.046(3) 0.003(2) 0.019(3) 0.004(2)
C72 0.050(3) 0.066(4) 0.052(3) 0.007(3) 0.016(3) 0.005(3)
C73 0.075(4) 0.053(3) 0.059(4) 0.000(3) 0.037(3) 0.003(3)
C74 0.081(4) 0.041(3) 0.045(3) 0.002(2) 0.020(3) -0.012(3)
C75 0.078(5) 0.060(4) 0.055(4) -0.004(3) 0.003(3) 0.003(3)
C76 0.063(4) 0.060(4) 0.062(4) -0.006(3) 0.010(3) 0.017(3)
C77 0.110(6) 0.072(5) 0.054(4) -0.006(3) 0.030(4) -0.007(4)
C81 0.057(3) 0.049(3) 0.039(3) 0.001(2) 0.010(2) -0.005(3)
C82 0.081(5) 0.051(4) 0.061(4) 0.006(3) 0.023(3) 0.005(3)
C83 0.116(6) 0.050(4) 0.065(4) 0.007(3) 0.024(4) 0.010(4)
C84 0.111(6) 0.058(4) 0.071(5) 0.000(3) 0.032(4) -0.009(4)
C85 0.078(5) 0.089(6) 0.085(5) 0.011(4) 0.028(4) -0.026(4)
C86 0.076(5) 0.058(4) 0.082(5) 0.009(3) 0.032(4) 0.000(3)
C87 0.181(11) 0.066(5) 0.117(8) 0.018(5) 0.050(7) -0.031(6)
C88 0.044(8) 0.125(19) 0.091(14) 0.021(13) 0.002(8) 0.009(12)
O1 0.098(13) 0.070(10) 0.074(9) 0.029(6) -0.002(8) 0.039(7)
C0AA 0.094(8) 0.088(7) 0.077(7) 0.007(6) 0.045(6) 0.011(6)
O2 0.095(14) 0.092(13) 0.097(13) 0.004(9) 0.039(10) 0.014(9)
loop_
_atom_type_symbol
_atom_type_description
_atom_type_scat_dispersion_real
_atom_type_scat_dispersion_imag
_atom_type_scat_source
C C 0.0033 0.0016 'International Tables Vol C Tables 4.2.6.8 and 6.1.1.4'
H H 0.0000 0.0000 'International Tables Vol C Tables 4.2.6.8 and 6.1.1.4'
Br Br -0.2901 2.4595 'International Tables Vol C Tables 4.2.6.8 and 6.1.1.4'
N N 0.0061 0.0033 'International Tables Vol C Tables 4.2.6.8 and 6.1.1.4'
O O 0.0106 0.0060 'International Tables Vol C Tables 4.2.6.8 and 6.1.1.4'
Rh Rh -1.1178 0.9187 'International Tables Vol C Tables 4.2.6.8 and 6.1.1.4'
loop_
_geom_angle_atom_site_label_1
_geom_angle_atom_site_label_2
_geom_angle_atom_site_label_3
_geom_angle
_geom_angle_site_symmetry_1
_geom_angle_site_symmetry_3
N1 Rh1 Br1' 90.23(13) . .
N1 Rh1 Br1 89.0(2) . .
N1 Rh1 O2 92.6(6) . .
N2 Rh1 Br1' 89.66(13) . .
N2 Rh1 Br1 91.5(2) . .
N2 Rh1 N1 89.67(17) . .
N2 Rh1 N3 90.43(17) . .
N2 Rh1 O2 89.4(6) . .
N3 Rh1 Br1' 90.79(13) . .
N3 Rh1 Br1 90.0(2) . .
N3 Rh1 N1 178.98(18) . .
N3 Rh1 O2 86.4(6) . .
N4 Rh1 Br1' 91.16(13) . .
N4 Rh1 Br1 87.7(2) . .
N4 Rh1 N1 90.07(17) . .
N4 Rh1 N2 179.14(19) . .
N4 Rh1 N3 89.82(17) . .
N4 Rh1 O2 89.7(6) . .
O2 Rh1 Br1' 177.0(6) . .
N5 Rh2 Br2 88.24(14) . .
N5 Rh2 Br2 91.76(14) 2_675 .
N5 Rh2 N5 180.0 2_675 .
N5 Rh2 N6 90.13(17) 2_675 .
N5 Rh2 N6 89.87(17) . .
N5 Rh2 N6 90.13(17) . 2_675
N5 Rh2 N6 89.87(17) 2_675 2_675
N5 Rh2 O1 86.7(6) . .
N5 Rh2 O1 86.7(6) 2_675 2_675
N5 Rh2 O1 93.3(6) . 2_675
N5 Rh2 O1 93.3(6) 2_675 .
N6 Rh2 Br2 88.16(14) 2_675 .
N6 Rh2 Br2 91.84(14) . .
N6 Rh2 N6 180.0 2_675 .
N6 Rh2 O1 95.0(6) 2_675 2_675
N6 Rh2 O1 95.0(6) . .
N6 Rh2 O1 85.0(6) . 2_675
N6 Rh2 O1 85.0(6) 2_675 .
O1 Rh2 Br2 8.5(5) 2_675 .
O1 Rh2 Br2 171.5(5) . .
O1 Rh2 O1 180.0(3) . 2_675
C1 N1 Rh1 126.1(4) . .
C1 N1 C4 107.4(4) . .
C4 N1 Rh1 126.3(3) . .
C6 N2 Rh1 126.4(3) . .
C6 N2 C9 107.7(4) . .
C9 N2 Rh1 125.9(4) . .
C11 N3 Rh1 126.2(3) . .
C14 N3 Rh1 126.7(3) . .
C14 N3 C11 106.9(4) . .
C16 N4 Rh1 126.5(3) . .
C16 N4 C19 107.5(4) . .
C19 N4 Rh1 125.9(4) . .
C61 N5 Rh2 126.7(3) . .
C64 N5 Rh2 126.5(4) . .
C64 N5 C61 106.8(4) . .
C66 N6 Rh2 126.3(3) . .
C66 N6 C69 107.6(4) . .
C69 N6 Rh2 126.1(3) . .
N1 C1 C2 108.5(5) . .
N1 C1 C20 126.3(5) . .
C20 C1 C2 125.2(5) . .
C3 C2 C1 108.0(5) . .
C2 C3 C4 107.3(5) . .
N1 C4 C3 108.9(4) . .
N1 C4 C5 125.9(5) . .
C5 C4 C3 125.2(5) . .
C4 C5 C21 117.8(5) . .
C6 C5 C4 124.6(5) . .
C6 C5 C21 117.5(5) . .
N2 C6 C5 126.9(5) . .
N2 C6 C7 108.1(5) . .
C5 C6 C7 125.0(5) . .
C8 C7 C6 108.0(5) . .
C7 C8 C9 107.3(5) . .
N2 C9 C8 108.8(5) . .
N2 C9 C10 126.5(5) . .
C10 C9 C8 124.7(5) . .
C9 C10 C11 125.6(5) . .
C9 C10 C31 117.6(5) . .
C11 C10 C31 116.8(5) . .
N3 C11 C10 125.2(5) . .
N3 C11 C12 108.8(4) . .
C10 C11 C12 126.0(5) . .
C13 C12 C11 107.7(5) . .
C12 C13 C14 108.1(5) . .
N3 C14 C13 108.4(4) . .
N3 C14 C15 125.5(5) . .
C15 C14 C13 126.1(5) . .
C14 C15 C16 124.8(5) . .
C14 C15 C41 118.6(5) . .
C16 C15 C41 116.6(5) . .
N4 C16 C15 126.5(5) . .
N4 C16 C17 108.2(5) . .
C15 C16 C17 125.3(5) . .
C18 C17 C16 108.8(5) . .
C17 C18 C19 107.7(5) . .
N4 C19 C18 107.7(5) . .
N4 C19 C20 127.2(5) . .
C20 C19 C18 125.2(5) . .
C1 C20 C19 124.2(5) . .
C1 C20 C51 119.2(5) . .
C19 C20 C51 116.6(5) . .
C22 C21 C5 120.9(5) . .
C26 C21 C5 122.0(6) . .
C26 C21 C22 117.1(6) . .
C21 C22 C23 120.1(7) . .
C24 C23 C22 122.1(7) . .
C23 C24 C25 117.4(6) . .
C23 C24 C27 120.7(8) . .
C25 C24 C27 121.9(8) . .
C24 C25 C26 121.2(7) . .
C21 C26 C25 122.1(7) . .
C32 C31 C10 121.3(5) . .
C32 C31 C36 116.6(5) . .
C36 C31 C10 122.1(5) . .
C31 C32 C33 121.5(6) . .
C34 C33 C32 121.4(6) . .
C33 C34 C35 118.0(6) . .
C33 C34 C37 121.7(7) . .
C35 C34 C37 120.3(6) . .
C34 C35 C36 120.9(6) . .
C31 C36 C35 121.6(6) . .
C42 C41 C15 123.8(5) . .
C42 C41 C46 117.4(6) . .
C46 C41 C15 118.8(5) . .
C41 C42 C43 121.0(6) . .
C44 C43 C42 121.1(7) . .
C43 C44 C47 122.1(8) . .
C45 C44 C43 118.6(6) . .
C45 C44 C47 119.3(7) . .
C44 C45 C46 121.1(7) . .
C41 C46 C45 120.7(6) . .
C52 C51 C20 121.1(5) . .
C52 C51 C56 117.0(5) . .
C56 C51 C20 121.8(5) . .
C51 C52 C53 121.3(6) . .
C54 C53 C52 120.9(6) . .
C53 C54 C57 120.9(6) . .
C55 C54 C53 118.1(6) . .
C55 C54 C57 121.0(7) . .
C54 C55 C56 120.8(6) . .
C51 C56 C55 121.8(6) . .
N5 C61 C62 109.3(5) . .
N5 C61 C70 125.4(5) . 2_675
C70 C61 C62 125.2(5) 2_675 .
C63 C62 C61 107.2(5) . .
C62 C63 C64 107.3(5) . .
N5 C64 C63 109.4(5) . .
N5 C64 C65 126.8(5) . .
C65 C64 C63 123.8(5) . .
C64 C65 C71 116.8(5) . .
C66 C65 C64 124.5(5) . .
C66 C65 C71 118.7(5) . .
N6 C66 C65 126.1(5) . .
N6 C66 C67 108.8(4) . .
C65 C66 C67 125.1(5) . .
C68 C67 C66 107.8(5) . .
C67 C68 C69 107.2(5) . .
N6 C69 C68 108.6(5) . .
N6 C69 C70 126.4(5) . .
C70 C69 C68 125.0(5) . .
C61 C70 C81 115.5(5) 2_675 .
C69 C70 C61 125.3(5) . 2_675
C69 C70 C81 119.2(5) . .
C72 C71 C65 120.9(5) . .
C76 C71 C65 121.6(5) . .
C76 C71 C72 117.4(5) . .
C71 C72 C73 121.0(6) . .
C74 C73 C72 120.5(6) . .
C73 C74 C77 120.0(6) . .
C75 C74 C73 118.4(6) . .
C75 C74 C77 121.5(7) . .
C74 C75 C76 121.5(6) . .
C71 C76 C75 121.1(6) . .
C82 C81 C70 120.6(5) . .
C86 C81 C70 121.4(6) . .
C86 C81 C82 117.9(6) . .
C83 C82 C81 120.6(7) . .
C84 C83 C82 122.7(7) . .
C83 C84 C85 117.4(7) . .
C83 C84 C87 123.5(8) . .
C85 C84 C87 119.1(8) . .
C86 C85 C84 120.1(7) . .
C81 C86 C85 121.2(7) . .
C88 O1 Rh2 117.7(17) . .
C0AA O2 Rh1 117.5(13) . .
loop_
_geom_bond_atom_site_label_1
_geom_bond_atom_site_label_2
_geom_bond_distance
_geom_bond_site_symmetry_2
Rh1 Br1' 2.3619(9) .
Rh1 Br1 2.300(7) .
Rh1 N1 2.041(4) .
Rh1 N2 2.032(4) .
Rh1 N3 2.036(4) .
Rh1 N4 2.016(4) .
Rh1 O2 2.27(2) .
Rh2 Br2 2.468(3) .
Rh2 N5 2.031(4) .
Rh2 N5 2.031(4) 2_675
Rh2 N6 2.040(4) 2_675
Rh2 N6 2.040(4) .
Rh2 O1 2.093(19) .
Rh2 O1 2.093(19) 2_675
N1 C1 1.376(6) .
N1 C4 1.376(6) .
N2 C6 1.371(7) .
N2 C9 1.374(6) .
N3 C11 1.386(6) .
N3 C14 1.375(7) .
N4 C16 1.370(7) .
N4 C19 1.378(6) .
N5 C61 1.378(7) .
N5 C64 1.353(6) .
N6 C66 1.367(6) .
N6 C69 1.377(7) .
C1 C2 1.435(8) .
C1 C20 1.378(7) .
C2 C3 1.348(8) .
C3 C4 1.435(7) .
C4 C5 1.396(7) .
C5 C6 1.374(8) .
C5 C21 1.504(7) .
C6 C7 1.441(7) .
C7 C8 1.345(8) .
C8 C9 1.435(7) .
C9 C10 1.383(8) .
C10 C11 1.395(7) .
C10 C31 1.494(7) .
C11 C12 1.421(8) .
C12 C13 1.340(8) .
C13 C14 1.433(7) .
C14 C15 1.386(7) .
C15 C16 1.387(8) .
C15 C41 1.505(7) .
C16 C17 1.433(7) .
C17 C18 1.313(8) .
C18 C19 1.451(7) .
C19 C20 1.389(8) .
C20 C51 1.501(7) .
C21 C22 1.376(8) .
C21 C26 1.368(8) .
C22 C23 1.400(9) .
C23 C24 1.353(10) .
C24 C25 1.369(10) .
C24 C27 1.527(9) .
C25 C26 1.373(10) .
C31 C32 1.371(8) .
C31 C36 1.378(8) .
C32 C33 1.392(8) .
C33 C34 1.356(9) .
C34 C35 1.368(9) .
C34 C37 1.502(8) .
C35 C36 1.390(9) .
C41 C42 1.370(8) .
C41 C46 1.388(8) .
C42 C43 1.396(9) .
C43 C44 1.363(10) .
C44 C45 1.355(10) .
C44 C47 1.517(9) .
C45 C46 1.395(9) .
C51 C52 1.367(8) .
C51 C56 1.371(8) .
C52 C53 1.379(8) .
C53 C54 1.369(9) .
C54 C55 1.357(9) .
C54 C57 1.528(8) .
C55 C56 1.376(8) .
C61 C62 1.428(7) .
C61 C70 1.405(7) 2_675
C62 C63 1.342(8) .
C63 C64 1.442(7) .
C64 C65 1.394(7) .
C65 C66 1.392(7) .
C65 C71 1.501(7) .
C66 C67 1.441(8) .
C67 C68 1.344(8) .
C68 C69 1.446(7) .
C69 C70 1.381(7) .
C70 C81 1.508(7) .
C71 C72 1.379(8) .
C71 C76 1.370(8) .
C72 C73 1.397(8) .
C73 C74 1.369(9) .
C74 C75 1.352(9) .
C74 C77 1.525(8) .
C75 C76 1.389(8) .
C81 C82 1.387(9) .
C81 C86 1.374(9) .
C82 C83 1.383(9) .
C83 C84 1.340(11) .
C84 C85 1.419(11) .
C84 C87 1.519(10) .
C85 C86 1.391(9) .
C88 O1 1.35(2) .
C0AA O2 1.37(2) .
