#------------------------------------------------------------------------------
#$Date: 2018-09-20 02:05:04 +0300 (Thu, 20 Sep 2018) $
#$Revision: 211069 $
#$URL: file:///home/coder/svn-repositories/cod/cif/7/04/75/7047593.cif $
#------------------------------------------------------------------------------
#
# This file is available in the Crystallography Open Database (COD),
# http://www.crystallography.net/
#
# All data on this site have been placed in the public domain by the
# contributors.
#
data_7047593
loop_
_publ_author_name
'Tung, Jo-Yu'
'Chen, Yi-Chun'
'Liu, Ta-Kang'
'Tsai, Wei-Joe'
'Lin, Hsiang-Yin'
'Chen, Jyh-Horung'
'Chang, Yu-Chang'
_publ_section_title
;
 The \h1-H--C&#x2026;Hg agostic interactions in mercury complexes of
 N-confused porphyrin
;
_journal_name_full               'Dalton Transactions'
_journal_paper_doi               10.1039/C8DT02895H
_journal_year                    2018
_chemical_formula_moiety         'C53 H37 Hg I N4 O2'
_chemical_formula_sum            'C53 H37 Hg I N4 O2'
_chemical_formula_weight         1089.35
_space_group_crystal_system      tetragonal
_space_group_IT_number           88
_space_group_name_Hall           '-I 4ad'
_space_group_name_H-M_alt        'I 41/a'
_symmetry_space_group_name_Hall  '-I 4ad'
_symmetry_space_group_name_H-M   'I 41/a :2'
_atom_sites_solution_hydrogens   geom
_audit_creation_method           SHELXL-2014/7
_audit_update_record
;
2018-06-21 deposited with the CCDC.
2018-09-19 downloaded from the CCDC.
;
_cell_angle_alpha                90
_cell_angle_beta                 90
_cell_angle_gamma                90
_cell_formula_units_Z            16
_cell_length_a                   31.7147(18)
_cell_length_b                   31.7147(18)
_cell_length_c                   18.7690(13)
_cell_measurement_reflns_used    9128
_cell_measurement_temperature    150(2)
_cell_measurement_theta_max      26.168
_cell_measurement_theta_min      2.971
_cell_volume                     18878(2)
_computing_cell_refinement       'SAINT V7.34A (Bruker AXS, 2006)'
_computing_data_collection       'APEX2 (Bruker AXS, 2010)'
_computing_data_reduction        'SAINT V7.34A (Bruker AXS, 2006)'
_computing_structure_refinement  'SHELXL-2014/7 (Sheldrick, 2014)'
_computing_structure_solution    'SHELXL-2014/7 (Sheldrick, 2014)'
_diffrn_ambient_temperature      150(2)
_diffrn_measured_fraction_theta_full 0.999
_diffrn_measured_fraction_theta_max 0.996
_diffrn_measurement_device_type  'Bruker APEX-II CCD'
_diffrn_measurement_method       '\f and \w scans'
_diffrn_radiation_probe          x-ray
_diffrn_radiation_type           MoK\a
_diffrn_radiation_wavelength     0.71073
_diffrn_reflns_av_R_equivalents  0.1026
_diffrn_reflns_av_unetI/netI     0.0355
_diffrn_reflns_Laue_measured_fraction_full 0.999
_diffrn_reflns_Laue_measured_fraction_max 0.996
_diffrn_reflns_limit_h_max       35
_diffrn_reflns_limit_h_min       -39
_diffrn_reflns_limit_k_max       39
_diffrn_reflns_limit_k_min       -39
_diffrn_reflns_limit_l_max       23
_diffrn_reflns_limit_l_min       -23
_diffrn_reflns_number            176692
_diffrn_reflns_point_group_measured_fraction_full 0.999
_diffrn_reflns_point_group_measured_fraction_max 0.996
_diffrn_reflns_theta_full        25.242
_diffrn_reflns_theta_max         26.474
_diffrn_reflns_theta_min         2.830
_exptl_absorpt_coefficient_mu    3.959
_exptl_absorpt_correction_T_max  0.9281
_exptl_absorpt_correction_T_min  0.6379
_exptl_absorpt_correction_type   multi-scan
_exptl_absorpt_process_details   'SADABS V2012/1 (Bruker AXS Inc.)'
_exptl_crystal_colour            blue
_exptl_crystal_density_diffrn    1.533
_exptl_crystal_description       parallelepiped
_exptl_crystal_F_000             8512
_exptl_crystal_size_max          0.390
_exptl_crystal_size_mid          0.370
_exptl_crystal_size_min          0.270
_refine_diff_density_max         1.600
_refine_diff_density_min         -0.911
_refine_diff_density_rms         0.124
_refine_ls_extinction_method     none
_refine_ls_goodness_of_fit_ref   1.056
_refine_ls_hydrogen_treatment    constr
_refine_ls_matrix_type           full
_refine_ls_number_parameters     550
_refine_ls_number_reflns         9718
_refine_ls_number_restraints     0
_refine_ls_restrained_S_all      1.056
_refine_ls_R_factor_all          0.0667
_refine_ls_R_factor_gt           0.0360
_refine_ls_shift/su_max          0.003
_refine_ls_shift/su_mean         0.000
_refine_ls_structure_factor_coef Fsqd
_refine_ls_weighting_details
'w=1/[\s^2^(Fo^2^)+(0.0501P)^2^+109.1530P] where P=(Fo^2^+2Fc^2^)/3'
_refine_ls_weighting_scheme      calc
_refine_ls_wR_factor_gt          0.0835
_refine_ls_wR_factor_ref         0.1009
_reflns_Friedel_coverage         0.000
_reflns_number_gt                7198
_reflns_number_total             9718
_reflns_threshold_expression     'I > 2\s(I)'
_cod_data_source_file            c8dt02895h2.cif
_cod_data_source_block           hgi20206_sq
_cod_original_cell_volume        18878(3)
_cod_database_code               7047593
_shelx_shelxl_version_number     2014/7
_shelx_space_group_comment
;
The symmetry employed for this shelxl refinement is uniquely defined
by the following loop, which should always be used as a source of
symmetry information in preference to the above space-group names.
They are only intended as comments.
;
_shelx_estimated_absorpt_t_min   0.307
_shelx_estimated_absorpt_t_max   0.415
_shelx_res_file
;

    hgi20206_sq.res created by SHELXL-2014/7


TITL hgi20206m in I4(1)/a
CELL 0.71073  31.71465  31.71465  18.76900  90.0000  90.0000  90.0000
ZERR   16.00   0.00182   0.00182   0.00130   0.0000   0.0000   0.0000
LATT 2
SYMM 0.5-X, -Y, 0.5+Z
SYMM 0.75-Y, 0.25+X, 0.25+Z
SYMM 0.75+Y, 0.75-X, 0.75+Z
SFAC C  H  N  O  I  Hg
UNIT 848  592  64  32  16  16
L.S. 8
ACTA
BOND $H
FMAP 2
PLAN 0
SIZE 0.27 0.37 0.39
TEMP -123.140
ABIN
WGHT    0.050100  109.153000
FVAR       0.01755
HG    6    0.661637    0.748573    0.863158    11.00000    0.02911    0.02136 =
         0.02065    0.00016   -0.00175   -0.00176
I     5    0.620379    0.805951    0.937634    11.00000    0.04697    0.03667 =
         0.03549   -0.00249    0.00654    0.01106
O1    4    0.785038    0.877808    1.109145    11.00000    0.03040    0.03174 =
         0.01884   -0.00437    0.00006   -0.00752
O2    4    0.807026    0.877769    0.995438    11.00000    0.03895    0.03330 =
         0.02530   -0.00208    0.00433   -0.01209
N1    3    0.679993    0.768491    0.745295    11.00000    0.02241    0.01503 =
         0.01787    0.00482    0.00003    0.00005
N2    3    0.648948    0.688205    0.806186    11.00000    0.02808    0.01663 =
         0.02188    0.00414   -0.00619   -0.00569
N3    3    0.700697    0.700391    0.935834    11.00000    0.02460    0.02440 =
         0.01223    0.00401   -0.00587   -0.00652
N4    3    0.743629    0.822608    0.957000    11.00000    0.02437    0.01829 =
         0.02043   -0.00265    0.00013   -0.00117
C1    1    0.701372    0.804373    0.723520    11.00000    0.02182    0.01248 =
         0.02094    0.00104   -0.00183    0.00158
C2    1    0.693098    0.810617    0.647759    11.00000    0.02156    0.02030 =
         0.02099    0.00349   -0.00112    0.00519
AFIX  43
H2A   2    0.703888    0.832654    0.618725    11.00000   -1.20000
AFIX   0
C3    1    0.667587    0.779631    0.626980    11.00000    0.02142    0.01985 =
         0.01642    0.00324   -0.00236    0.00152
AFIX  43
H3A   2    0.657032    0.775495    0.580128    11.00000   -1.20000
AFIX   0
C4    1    0.658733    0.753333    0.688241    11.00000    0.01852    0.01472 =
         0.01878   -0.00027   -0.00191    0.00103
C5    1    0.631800    0.716994    0.687237    11.00000    0.02237    0.01794 =
         0.01626   -0.00293   -0.00442    0.00351
C6    1    0.627483    0.687710    0.742371    11.00000    0.02462    0.01856 =
         0.02374   -0.00343   -0.00487   -0.00089
C7    1    0.599537    0.651037    0.741929    11.00000    0.03104    0.03036 =
         0.02735   -0.00019   -0.00750   -0.00704
AFIX  43
H7A   2    0.580930    0.643096    0.704601    11.00000   -1.20000
AFIX   0
C8    1    0.605026    0.630502    0.804367    11.00000    0.03670    0.03266 =
         0.02955    0.00645   -0.00761   -0.01509
AFIX  43
H8A   2    0.590791    0.605641    0.819154    11.00000   -1.20000
AFIX   0
C9    1    0.636466    0.653273    0.844405    11.00000    0.03602    0.01724 =
         0.03010    0.00325   -0.00914   -0.00612
C10   1    0.653298    0.640719    0.910337    11.00000    0.03463    0.02148 =
         0.02489    0.00779   -0.00444   -0.01083
C11   1    0.686481    0.661106    0.946678    11.00000    0.03113    0.01785 =
         0.02213    0.00526   -0.00273   -0.00050
C12   1    0.711766    0.641732    1.002412    11.00000    0.04099    0.02067 =
         0.02676    0.01070   -0.00435   -0.00766
AFIX  43
H12A  2    0.708867    0.613650    1.019331    11.00000   -1.20000
AFIX   0
C13   1    0.739797    0.670044    1.025902    11.00000    0.03423    0.03248 =
         0.02017    0.00832   -0.00760   -0.00431
AFIX  43
H13A  2    0.760510    0.665918    1.061794    11.00000   -1.20000
AFIX   0
C14   1    0.732143    0.708546    0.985279    11.00000    0.02498    0.02433 =
         0.01605    0.00526   -0.00486    0.00180
C15   1    0.752343    0.746886    0.993719    11.00000    0.02204    0.02798 =
         0.01555    0.00594   -0.00257   -0.00241
C16   1    0.746920    0.779426    0.941363    11.00000    0.02105    0.01916 =
         0.01877   -0.00124   -0.00211   -0.00485
C17   1    0.741839    0.776218    0.868226    11.00000    0.01756    0.02418 =
         0.02025   -0.00025   -0.00102   -0.00047
AFIX  13
H17A  2    0.762976    0.758112    0.843184    11.00000   -1.20000
AFIX   0
C18   1    0.736079    0.816995    0.839128    11.00000    0.01908    0.01882 =
         0.02113   -0.00001   -0.00258   -0.00345
C19   1    0.737466    0.844534    0.896791    11.00000    0.02409    0.01640 =
         0.02391    0.00235   -0.00187   -0.00280
AFIX  43
H19A  2    0.734504    0.874294    0.893949    11.00000   -1.20000
AFIX   0
C20   1    0.725690    0.829387    0.767732    11.00000    0.02253    0.01586 =
         0.02337   -0.00107    0.00107    0.00059
C21   1    0.606648    0.710130    0.621523    11.00000    0.02057    0.01992 =
         0.02033    0.00302   -0.00059   -0.00421
C22   1    0.579486    0.741324    0.596432    11.00000    0.02262    0.02376 =
         0.02204   -0.00113   -0.00143   -0.00170
AFIX  43
H22A  2    0.576915    0.767079    0.621912    11.00000   -1.20000
AFIX   0
C23   1    0.556239    0.735294    0.534974    11.00000    0.02121    0.03727 =
         0.02628    0.00922   -0.00379   -0.00108
AFIX  43
H23A  2    0.538319    0.757082    0.517953    11.00000   -1.20000
AFIX   0
C24   1    0.559047    0.697198    0.497822    11.00000    0.02767    0.05246 =
         0.01669   -0.00174   -0.00479   -0.01447
AFIX  43
H24A  2    0.542593    0.692703    0.456214    11.00000   -1.20000
AFIX   0
C25   1    0.585894    0.666243    0.522110    11.00000    0.02743    0.03090 =
         0.02704   -0.00847    0.00133   -0.00918
AFIX  43
H25A  2    0.587893    0.640285    0.497076    11.00000   -1.20000
AFIX   0
C26   1    0.609771    0.672536    0.582101    11.00000    0.02547    0.02041 =
         0.02697    0.00073    0.00221   -0.00228
AFIX  43
H26A  2    0.628730    0.651155    0.597281    11.00000   -1.20000
AFIX   0
C27   1    0.634041    0.603009    0.945885    11.00000    0.03368    0.02592 =
         0.02769    0.00945   -0.01124   -0.00926
C28   1    0.639900    0.562597    0.922314    11.00000    0.05081    0.02774 =
         0.07150    0.01890    0.01513    0.00397
AFIX  43
H28A  2    0.656492    0.557780    0.880966    11.00000   -1.20000
AFIX   0
C29   1    0.622013    0.528355    0.957750    11.00000    0.04657    0.02653 =
         0.08958    0.02387    0.00064    0.00174
AFIX  43
H29A  2    0.626574    0.500469    0.940950    11.00000   -1.20000
AFIX   0
C30   1    0.597811    0.535306    1.016992    11.00000    0.04679    0.04413 =
         0.05323    0.03129   -0.01508   -0.02038
AFIX  43
H30A  2    0.585208    0.512263    1.041330    11.00000   -1.20000
AFIX   0
C31   1    0.591954    0.575043    1.040629    11.00000    0.07111    0.06808 =
         0.04650    0.01080    0.00850   -0.02752
AFIX  43
H31A  2    0.575013    0.579965    1.081535    11.00000   -1.20000
AFIX   0
C32   1    0.610336    0.608413    1.005904    11.00000    0.07078    0.03359 =
         0.03634    0.00057    0.00603   -0.01848
AFIX  43
H32A  2    0.606445    0.636075    1.024177    11.00000   -1.20000
AFIX   0
C33   1    0.780543    0.754700    1.055748    11.00000    0.02590    0.02439 =
         0.01952    0.00337   -0.00645    0.00253
C34   1    0.769227    0.742308    1.125131    11.00000    0.03259    0.03745 =
         0.01879    0.00863   -0.00482   -0.01045
AFIX  43
H34A  2    0.743290    0.728109    1.133222    11.00000   -1.20000
AFIX   0
C35   1    0.795865    0.750819    1.181331    11.00000    0.04746    0.04188 =
         0.02239    0.00956   -0.00624   -0.00981
AFIX  43
H35A  2    0.787913    0.742337    1.227978    11.00000   -1.20000
AFIX   0
C36   1    0.833790    0.771344    1.171586    11.00000    0.03685    0.03953 =
         0.03193   -0.00035   -0.01449    0.00154
AFIX  43
H36A  2    0.851879    0.776738    1.210887    11.00000   -1.20000
AFIX   0
C37   1    0.844997    0.783901    1.103805    11.00000    0.02629    0.03269 =
         0.03597   -0.00285   -0.00435   -0.00385
AFIX  43
H37A  2    0.870980    0.798176    1.096559    11.00000   -1.20000
AFIX   0
C38   1    0.818890    0.775982    1.046167    11.00000    0.02316    0.02795 =
         0.02206    0.00279   -0.00133   -0.00096
AFIX  43
H38A  2    0.827006    0.785017    0.999898    11.00000   -1.20000
AFIX   0
C39   1    0.740889    0.871569    0.744658    11.00000    0.02674    0.01731 =
         0.01968    0.00076    0.00154   -0.00132
C40   1    0.781113    0.885048    0.765256    11.00000    0.02919    0.02132 =
         0.03285    0.00432    0.00116    0.00177
AFIX  43
H40A  2    0.798724    0.866921    0.792425    11.00000   -1.20000
AFIX   0
C41   1    0.795269    0.924755    0.746092    11.00000    0.03266    0.03279 =
         0.04440    0.00404    0.00151   -0.01140
AFIX  43
H41A  2    0.822361    0.933972    0.761050    11.00000   -1.20000
AFIX   0
C42   1    0.770107    0.951257    0.705089    11.00000    0.05382    0.01991 =
         0.05693    0.01273    0.00931   -0.00826
AFIX  43
H42A  2    0.780109    0.978324    0.691509    11.00000   -1.20000
AFIX   0
C43   1    0.730699    0.938059    0.684340    11.00000    0.04884    0.02501 =
         0.03992    0.00667   -0.00442   -0.00088
AFIX  43
H43A  2    0.713581    0.956005    0.655955    11.00000   -1.20000
AFIX   0
C44   1    0.715749    0.898796    0.704493    11.00000    0.03048    0.02222 =
         0.02783    0.00020   -0.00156    0.00117
AFIX  43
H44A  2    0.688170    0.890324    0.690879    11.00000   -1.20000
AFIX   0
C45   1    0.742174    0.842245    1.027253    11.00000    0.02417    0.02663 =
         0.02445   -0.00596   -0.00025   -0.00294
AFIX  23
H45A  2    0.739498    0.820217    1.064352    11.00000   -1.20000
H45B  2    0.717287    0.860991    1.030497    11.00000   -1.20000
AFIX   0
C46   1    0.782255    0.867715    1.039757    11.00000    0.03069    0.01888 =
         0.02174   -0.00126   -0.00176    0.00286
C47   1    0.821856    0.902763    1.127592    11.00000    0.02761    0.03334 =
         0.03372   -0.00510   -0.00027   -0.01201
AFIX  23
H47A  2    0.823613    0.928001    1.096693    11.00000   -1.20000
H47B  2    0.847853    0.885914    1.121123    11.00000   -1.20000
AFIX   0
C48   1    0.817204    0.915660    1.204208    11.00000    0.02560    0.03306 =
         0.02781   -0.00104    0.00040   -0.00839
C49   1    0.833876    0.890931    1.257977    11.00000    0.02745    0.03057 =
         0.03619    0.00332   -0.00065   -0.00132
AFIX  43
H49A  2    0.847430    0.865100    1.246474    11.00000   -1.20000
AFIX   0
C50   1    0.830966    0.903530    1.328434    11.00000    0.03190    0.04168 =
         0.01785    0.00726   -0.00537   -0.01146
AFIX  43
H50A  2    0.842652    0.886345    1.364886    11.00000   -1.20000
AFIX   0
C51   1    0.811229    0.940844    1.346092    11.00000    0.04271    0.04437 =
         0.02578   -0.00256   -0.00140   -0.00782
AFIX  43
H51A  2    0.809614    0.949464    1.394490    11.00000   -1.20000
AFIX   0
C52   1    0.794136    0.965194    1.294215    11.00000    0.04083    0.02823 =
         0.03932   -0.00658   -0.00548   -0.00024
AFIX  43
H52A  2    0.780027    0.990618    1.306380    11.00000   -1.20000
AFIX   0
C53   1    0.797283    0.952777    1.221833    11.00000    0.03683    0.02691 =
         0.03161    0.00091   -0.00804    0.00066
AFIX  43
H53A  2    0.785639    0.970080    1.185501    11.00000   -1.20000

AFIX   0
HKLF 4

REM  hgi20206m in I4(1)/a
REM R1 =  0.0360 for    7198 Fo > 4sig(Fo)  and  0.0667 for all    9718 data
REM    550 parameters refined using      0 restraints

END

WGHT      0.0338    132.1101

REM Highest difference peak  1.600,  deepest hole -0.911,  1-sigma level  0.124
Q1    1   0.6616  0.7487  0.9101  11.00000  0.05    1.60
Q2    1   0.8232  0.9085  1.3890  11.00000  0.05    1.06
Q3    1   0.8379  0.9306  1.3586  11.00000  0.05    1.01
Q4    1   0.8399  0.7525  1.1406  11.00000  0.05    0.90
Q5    1   0.6805  0.9157  0.6158  11.00000  0.05    0.80
Q6    1   0.7184  0.9667  0.5627  11.00000  0.05    0.78
Q7    1   0.6578  0.9276  0.6386  11.00000  0.05    0.76
Q8    1   0.7407  0.7506  0.8422  11.00000  0.05    0.74
Q9    1   0.6021  0.7066  0.7881  11.00000  0.05    0.70
Q10   1   0.7206  0.7886  0.9399  11.00000  0.05    0.70
Q11   1   0.7185  0.7888  0.7879  11.00000  0.05    0.67
Q12   1   0.7012  0.6886  0.7854  11.00000  0.05    0.66
Q13   1   0.7032  0.8083  0.6871  11.00000  0.05    0.65
Q14   1   0.7881  0.9698  1.4638  11.00000  0.05    0.63
Q15   1   0.8358  0.9300  1.4218  11.00000  0.05    0.59
Q16   1   0.7826  0.7086  1.0630  11.00000  0.05    0.59
Q17   1   0.7202  0.8584  1.0886  11.00000  0.05    0.56
Q18   1   0.8975  0.7926  1.0632  11.00000  0.05    0.51
Q19   1   0.7005  0.7611  0.8976  11.00000  0.05    0.50
Q20   1   0.6242  0.6293  1.0645  11.00000  0.05    0.48
;
_shelx_res_checksum              95119
_shelx_fab_file
;
   -2    4    0    -86.35      0.00
    2    4    0    144.63      0.00
    4    4    0   -120.16      0.00
   -4    6    0     32.18      0.00
   -2    6    0    119.89      0.00
    0    6    0   -134.81      0.00
    2    6    0   -198.94      0.00
    4    6    0    -97.53      0.00
    6    6    0   -171.38      0.00
   -6    8    0    170.07      0.00
   -4    8    0     26.56      0.00
   -2    8    0   -112.60      0.00
    0    8    0      6.67      0.00
    2    8    0     78.41      0.00
    4    8    0     38.84      0.00
    6    8    0     93.16      0.00
    8    8    0     87.79      0.00
   -8   10    0     17.72      0.00
   -6   10    0    -61.73      0.00
   -4   10    0     -5.48      0.00
   -2   10    0    101.55      0.00
    0   10    0     64.42      0.00
    2   10    0     25.19      0.00
    4   10    0     37.46      0.00
    6   10    0    -20.60      0.00
    8   10    0    -52.66      0.00
   10   10    0      3.20      0.00
  -10   12    0      0.67      0.00
   -8   12    0     -8.69      0.00
   -6   12    0     88.59      0.00
   -4   12    0    114.54      0.00
   -2   12    0     55.88      0.00
    0   12    0     39.70      0.00
    2   12    0     21.50      0.00
    4   12    0    -13.18      0.00
    6   12    0     24.29      0.00
    8   12    0     75.94      0.00
   10   12    0     61.70      0.00
   12   12    0     47.33      0.00
  -12   14    0    -39.83      0.00
  -10   14    0    -40.74      0.00
   -8   14    0    -31.44      0.00
   -6   14    0    -88.61      0.00
   -4   14    0   -114.27      0.00
   -2   14    0    -60.49      0.00
    0   14    0     -9.66      0.00
    2   14    0     39.69      0.00
    4   14    0     89.41      0.00
    6   14    0     66.87      0.00
    8   14    0     -2.64      0.00
   10   14    0    -38.95      0.00
   12   14    0    -39.35      0.00
   14   14    0     -8.87      0.00
  -14   16    0    -15.76      0.00
  -12   16    0     24.57      0.00
  -10   16    0     45.26      0.00
   -8   16    0      7.69      0.00
   -6   16    0    -11.91      0.00
   -4   16    0    -17.16      0.00
   -2   16    0    -51.38      0.00
    0   16    0    -73.71      0.00
    2   16    0    -84.15      0.00
    4   16    0   -105.26      0.00
    6   16    0    -87.91      0.00
    8   16    0    -24.98      0.00
   10   16    0     33.89      0.00
   12   16    0     55.05      0.00
   14   16    0     22.47      0.00
   16   16    0     -9.90      0.00
  -16   18    0    -15.16      0.00
  -14   18    0    -16.08      0.00
  -12   18    0    -48.03      0.00
  -10   18    0    -76.34      0.00
   -8   18    0    -36.22      0.00
   -6   18    0     20.11      0.00
   -4   18    0     34.67      0.00
   -2   18    0     32.71      0.00
    0   18    0     12.08      0.00
    2   18    0    -19.30      0.00
    4   18    0    -19.77      0.00
    6   18    0     -5.86      0.00
    8   18    0     -9.48      0.00
   10   18    0    -35.62      0.00
   12   18    0    -57.72      0.00
   14   18    0    -35.31      0.00
   16   18    0     -1.73      0.00
   18   18    0    -10.29      0.00
  -18   20    0     32.39      0.00
  -16   20    0     48.33      0.00
  -14   20    0     46.74      0.00
  -12   20    0     57.44      0.00
  -10   20    0     83.47      0.00
   -8   20    0     63.75      0.00
   -6   20    0     10.09      0.00
   -4   20    0     -8.96      0.00
   -2   20    0      2.78      0.00
    0   20    0     26.78      0.00
    2   20    0     56.77      0.00
    4   20    0     58.84      0.00
    6   20    0     19.72      0.00
    8   20    0    -25.71      0.00
   10   20    0    -26.08      0.00
   12   20    0      8.98      0.00
   14   20    0     20.01      0.00
   16   20    0      6.33      0.00
   18   20    0      7.61      0.00
   20   20    0     19.39      0.00
  -20   22    0    -16.62      0.00
  -18   22    0    -28.55      0.00
  -16   22    0    -41.06      0.00
  -14   22    0    -27.30      0.00
  -12   22    0     -9.76      0.00
  -10   22    0    -18.74      0.00
   -8   22    0    -16.66      0.00
   -6   22    0     15.94      0.00
   -4   22    0     35.83      0.00
   -2   22    0     31.39      0.00
    0   22    0     20.76      0.00
    2   22    0      4.27      0.00
    4   22    0     -9.20      0.00
    6   22    0     11.64      0.00
    8   22    0     53.67      0.00
   10   22    0     50.46      0.00
   12   22    0      2.61      0.00
   14   22    0    -28.28      0.00
   16   22    0    -26.16      0.00
   18   22    0    -18.03      0.00
   20   22    0    -15.55      0.00
   22   22    0     -7.78      0.00
  -22   24    0      7.00      0.00
  -20   24    0     11.68      0.00
  -18   24    0     18.85      0.00
  -16   24    0     28.43      0.00
  -14   24    0     12.64      0.00
  -12   24    0    -15.43      0.00
  -10   24    0    -15.55      0.00
   -8   24    0      0.38      0.00
   -6   24    0      1.65      0.00
   -4   24    0     -3.76      0.00
   -2   24    0     -3.21      0.00
    0   24    0     -3.52      0.00
    2   24    0     -1.36      0.00
    4   24    0     16.89      0.00
    6   24    0     18.80      0.00
    8   24    0     -9.53      0.00
   10   24    0    -10.84      0.00
   12   24    0     18.66      0.00
   14   24    0     33.28      0.00
   16   24    0     24.62      0.00
   18   24    0      9.58      0.00
   20   24    0     -0.93      0.00
   22   24    0    -11.20      0.00
   24   24    0     -7.82      0.00
  -24   26    0     -6.93      0.00
  -22   26    0    -12.71      0.00
  -20   26    0     -8.19      0.00
  -18   26    0    -12.74      0.00
  -16   26    0    -26.83      0.00
  -14   26    0    -22.55      0.00
  -12   26    0     -1.07      0.00
  -10   26    0      1.87      0.00
   -8   26    0    -19.14      0.00
   -6   26    0    -38.62      0.00
   -4   26    0    -43.65      0.00
   -2   26    0    -38.07      0.00
    0   26    0    -24.88      0.00
    2   26    0    -11.24      0.00
    4   26    0    -21.63      0.00
    6   26    0    -33.06      0.00
    8   26    0    -14.89      0.00
   10   26    0     -3.87      0.00
   12   26    0     -7.58      0.00
   14   26    0     -3.47      0.00
   16   26    0      3.56      0.00
   18   26    0      6.32      0.00
   20   26    0      7.84      0.00
   22   26    0     14.68      0.00
   24   26    0     12.11      0.00
   26   26    0     -1.02      0.00
  -26   28    0     -0.07      0.00
  -24   28    0      2.27      0.00
  -22   28    0     -1.06      0.00
  -20   28    0    -13.34      0.00
  -18   28    0    -11.15      0.00
  -16   28    0      4.99      0.00
  -14   28    0     11.83      0.00
  -12   28    0      0.25      0.00
  -10   28    0     -8.02      0.00
   -8   28    0     -0.47      0.00
   -6   28    0      9.83      0.00
   -4   28    0     13.73      0.00
   -2   28    0      9.83      0.00
    0   28    0     -2.88      0.00
    2   28    0    -17.55      0.00
    4   28    0     -9.37      0.00
    6   28    0     10.02      0.00
    8   28    0     10.08      0.00
   10   28    0      5.08      0.00
   12   28    0      1.47      0.00
   14   28    0     -5.31      0.00
   16   28    0     -5.86      0.00
   18   28    0      2.21      0.00
   20   28    0      7.90      0.00
   22   28    0      1.32      0.00
   24   28    0     -2.17      0.00
   26   28    0      2.71      0.00
   28   28    0      1.72      0.00
  -26   30    0      6.81      0.00
  -24   30    0      9.07      0.00
  -22   30    0     14.51      0.00
  -20   30    0     26.55      0.00
  -18   30    0     26.58      0.00
  -16   30    0     15.48      0.00
  -14   30    0      2.11      0.00
  -12   30    0     -0.90      0.00
  -10   30    0      4.89      0.00
   -8   30    0      7.27      0.00
   -6   30    0      9.32      0.00
   -4   30    0      5.08      0.00
   -2   30    0     -8.30      0.00
    0   30    0    -10.46      0.00
    2   30    0      1.36      0.00
    4   30    0      2.30      0.00
    6   30    0     -8.96      0.00
    8   30    0    -18.30      0.00
   10   30    0    -21.83      0.00
   12   30    0    -15.22      0.00
   14   30    0     -5.07      0.00
   16   30    0      1.42      0.00
   18   30    0     -1.12      0.00
   20   30    0     -8.53      0.00
   22   30    0     -6.66      0.00
   24   30    0     -3.35      0.00
   26   30    0     -2.52      0.00
  -22   32    0     -9.15      0.00
  -20   32    0    -13.26      0.00
  -18   32    0    -11.31      0.00
  -16   32    0     -7.62      0.00
  -14   32    0      4.49      0.00
  -12   32    0     17.07      0.00
  -10   32    0     14.80      0.00
   -8   32    0      9.82      0.00
   -6   32    0      2.83      0.00
   -4   32    0      3.69      0.00
   -2   32    0     27.85      0.00
    0   32    0     40.75      0.00
    2   32    0     26.32      0.00
    4   32    0     11.87      0.00
    6   32    0      5.22      0.00
    8   32    0     11.04      0.00
   10   32    0     17.65      0.00
   12   32    0      7.44      0.00
   14   32    0     -3.14      0.00
   16   32    0    -11.44      0.00
   18   32    0    -13.51      0.00
   20   32    0     -1.87      0.00
   22   32    0      5.82      0.00
  -20   34    0      2.97      0.00
  -18   34    0     -0.77      0.00
  -16   34    0      3.33      0.00
  -14   34    0      1.87      0.00
  -12   34    0     -7.02      0.00
  -10   34    0     -1.78      0.00
   -8   34    0      3.19      0.00
   -6   34    0      7.13      0.00
   -4   34    0     14.95      0.00
   -2   34    0     -3.24      0.00
    0   34    0    -21.43      0.00
    2   34    0    -13.23      0.00
    4   34    0     -3.65      0.00
    6   34    0      6.25      0.00
    8   34    0      2.70      0.00
   10   34    0     -8.92      0.00
   12   34    0     -2.91      0.00
   14   34    0     -1.34      0.00
   16   34    0     -0.75      0.00
   18   34    0      5.89      0.00
   20   34    0      0.15      0.00
  -16   36    0     -5.90      0.00
  -14   36    0    -10.16      0.00
  -12   36    0     -4.61      0.00
  -10   36    0     -9.11      0.00
   -8   36    0     -9.31      0.00
   -6   36    0     -2.37      0.00
   -4   36    0    -14.05      0.00
   -2   36    0     -9.23      0.00
    0   36    0      9.19      0.00
    2   36    0     10.25      0.00
    4   36    0     12.82      0.00
    6   36    0      6.92      0.00
    8   36    0      4.37      0.00
   10   36    0     13.67      0.00
   12   36    0      7.94      0.00
   14   36    0      8.75      0.00
   16   36    0     11.91      0.00
  -10   38    0     -0.62      0.00
   -8   38    0     -4.17      0.00
   -6   38    0    -19.16      0.00
   -4   38    0     -9.44      0.00
   -2   38    0     -2.39      0.00
    0   38    0    -13.88      0.00
    2   38    0    -15.31      0.00
    4   38    0    -21.78      0.00
    6   38    0    -18.26      0.00
    8   38    0     -7.05      0.00
   10   38    0     -7.66      0.00
   -3    4    1    287.88      0.00
   -1    4    1    108.85      0.00
    1    4    1    -75.92      0.00
    3    4    1     33.08      0.00
   -4    5    1    -16.19      0.00
   -2    5    1    -68.41      0.00
    0    5    1     81.82      0.00
    2    5    1     36.18      0.00
    4    5    1    -99.20      0.00
   -5    6    1    -50.29      0.00
   -3    6    1   -241.67      0.00
   -1    6    1   -130.28      0.00
    1    6    1     96.58      0.00
    3    6    1    108.34      0.00
    5    6    1    133.37      0.00
   -6    7    1   -199.44      0.00
   -4    7    1   -100.63      0.00
   -2    7    1    -10.28      0.00
    0    7    1    -89.91      0.00
    2    7    1    -93.35      0.00
    4    7    1    -19.17      0.00
    6    7    1    -35.01      0.00
   -7    8    1     -3.73      0.00
   -5    8    1     31.52      0.00
   -3    8    1    172.35      0.00
   -1    8    1    122.44      0.00
    1    8    1    -47.56      0.00
    3    8    1    -76.81      0.00
    5    8    1    -81.61      0.00
    7    8    1   -117.47      0.00
   -8    9    1     52.92      0.00
   -6    9    1    122.42      0.00
   -4    9    1     64.23      0.00
   -2    9    1    -30.90      0.00
    0    9    1    -17.72      0.00
    2    9    1    -15.38      0.00
    4    9    1    -45.61      0.00
    6    9    1    -18.64      0.00
    8    9    1    -28.64      0.00
   -9   10    1    -92.99      0.00
   -7   10    1    -77.18      0.00
   -5   10    1    -56.37      0.00
   -3   10    1   -117.21      0.00
   -1   10    1    -92.29      0.00
    1   10    1      6.63      0.00
    3   10    1     19.32      0.00
    5   10    1     13.34      0.00
    7   10    1     48.37      0.00
    9   10    1     26.29      0.00
  -10   11    1      8.07      0.00
   -8   11    1      8.58      0.00
   -6   11    1    -59.80      0.00
   -4   11    1    -60.69      0.00
   -2   11    1     -8.72      0.00
    0   11    1     -0.39      0.00
    2   11    1      9.88      0.00
    4   11    1     25.43      0.00
    6   11    1     -8.64      0.00
    8   11    1    -26.13      0.00
   10   11    1     10.99      0.00
  -11   12    1     24.89      0.00
   -9   12    1     80.20      0.00
   -7   12    1     46.24      0.00
   -5   12    1    -26.52      0.00
   -3   12    1    -27.20      0.00
   -1   12    1    -28.95      0.00
    1   12    1    -54.21      0.00
    3   12    1    -28.27      0.00
    5   12    1     -2.20      0.00
    7   12    1    -31.29      0.00
    9   12    1    -41.09      0.00
   11   12    1    -27.38      0.00
  -12   13    1     33.28      0.00
  -10   13    1     16.35      0.00
   -8   13    1     11.32      0.00
   -6   13    1     68.49      0.00
   -4   13    1     97.62      0.00
   -2   13    1     71.41      0.00
    0   13    1     45.51      0.00
    2   13    1      9.39      0.00
    4   13    1    -22.38      0.00
    6   13    1     -0.56      0.00
    8   13    1     33.93      0.00
   10   13    1     29.12      0.00
   12   13    1      5.41      0.00
  -13   14    1    -23.58      0.00
  -11   14    1    -14.98      0.00
   -9   14    1    -30.62      0.00
   -7   14    1     -3.25      0.00
   -5   14    1     58.05      0.00
   -3   14    1     59.55      0.00
   -1   14    1     28.71      0.00
    1   14    1      8.49      0.00
    3   14    1    -32.70      0.00
    5   14    1    -62.80      0.00
    7   14    1    -33.67      0.00
    9   14    1      4.79      0.00
   11   14    1     20.73      0.00
   13   14    1     21.39      0.00
  -14   15    1      2.01      0.00
  -12   15    1    -23.34      0.00
  -10   15    1    -25.85      0.00
   -8   15    1     -1.54      0.00
   -6   15    1     -7.71      0.00
   -4   15    1    -18.51      0.00
   -2   15    1     -0.08      0.00
    0   15    1     21.40      0.00
    2   15    1     49.55      0.00
    4   15    1     76.70      0.00
    6   15    1     58.61      0.00
    8   15    1      9.68      0.00
   10   15    1    -23.10      0.00
   12   15    1    -20.64      0.00
   14   15    1     15.26      0.00
  -15   16    1     36.21      0.00
  -13   16    1     34.58      0.00
  -11   16    1      5.89      0.00
   -9   16    1      9.57      0.00
   -7   16    1     20.61      0.00
   -5   16    1      5.71      0.00
   -3   16    1     14.09      0.00
   -1   16    1     41.68      0.00
    1   16    1     48.22      0.00
    3   16    1     59.46      0.00
    5   16    1     72.75      0.00
    7   16    1     49.07      0.00
    9   16    1      6.46      0.00
   11   16    1    -25.00      0.00
   13   16    1    -26.19      0.00
   15   16    1      4.04      0.00
  -16   17    1    -15.55      0.00
  -14   17    1    -11.16      0.00
  -12   17    1     15.73      0.00
  -10   17    1     30.24      0.00
   -8   17    1     -3.38      0.00
   -6   17    1    -38.09      0.00
   -4   17    1    -43.58      0.00
   -2   17    1    -41.69      0.00
    0   17    1    -32.22      0.00
    2   17    1    -24.59      0.00
    4   17    1    -31.62      0.00
    6   17    1    -26.19      0.00
    8   17    1      2.98      0.00
   10   17    1     38.08      0.00
   12   17    1     50.52      0.00
   14   17    1     20.49      0.00
   16   17    1    -10.46      0.00
  -17   18    1     -0.11      0.00
  -15   18    1     -7.27      0.00
  -13   18    1     -3.31      0.00
  -11   18    1     25.62      0.00
   -9   18    1     29.09      0.00
   -7   18    1     -0.64      0.00
   -5   18    1    -12.90      0.00
   -3   18    1    -15.40      0.00
   -1   18    1    -18.68      0.00
    1   18    1      1.30      0.00
    3   18    1     17.50      0.00
    5   18    1      7.61      0.00
    7   18    1     -2.28      0.00
    9   18    1      4.26      0.00
   11   18    1     22.80      0.00
   13   18    1     23.80      0.00
   15   18    1     -3.37      0.00
   17   18    1    -15.92      0.00
  -18   19    1     -0.94      0.00
  -16   19    1     -6.81      0.00
  -14   19    1     -9.69      0.00
  -12   19    1    -28.91      0.00
  -10   19    1    -53.33      0.00
   -8   19    1    -36.12      0.00
   -6   19    1      4.60      0.00
   -4   19    1     15.96      0.00
   -2   19    1      2.06      0.00
    0   19    1    -20.52      0.00
    2   19    1    -41.19      0.00
    4   19    1    -38.26      0.00
    6   19    1    -15.46      0.00
    8   19    1      0.65      0.00
   10   19    1    -11.09      0.00
   12   19    1    -32.70      0.00
   14   19    1    -24.97      0.00
   16   19    1     -1.29      0.00
   18   19    1      1.61      0.00
  -19   20    1     -8.27      0.00
  -17   20    1    -20.01      0.00
  -15   20    1    -22.20      0.00
  -13   20    1    -18.81      0.00
  -11   20    1    -36.43      0.00
   -9   20    1    -48.46      0.00
   -7   20    1    -25.64      0.00
   -5   20    1     -5.22      0.00
   -3   20    1     -3.32      0.00
   -1   20    1     -7.02      0.00
    1   20    1    -25.75      0.00
    3   20    1    -42.24      0.00
    5   20    1    -27.82      0.00
    7   20    1      8.75      0.00
    9   20    1     30.53      0.00
   11   20    1     16.81      0.00
   13   20    1      0.57      0.00
   15   20    1      7.37      0.00
   17   20    1     12.17      0.00
   19   20    1     -0.28      0.00
  -20   21    1      5.99      0.00
  -18   21    1     10.13      0.00
  -16   21    1     17.09      0.00
  -14   21    1     11.19      0.00
  -12   21    1      9.95      0.00
  -10   21    1     26.70      0.00
   -8   21    1     24.65      0.00
   -6   21    1     -6.32      0.00
   -4   21    1    -22.81      0.00
   -2   21    1    -14.06      0.00
    0   21    1      1.05      0.00
    2   21    1     16.92      0.00
    4   21    1     20.55      0.00
    6   21    1     -5.00      0.00
    8   21    1    -38.56      0.00
   10   21    1    -34.59      0.00
   12   21    1      0.70      0.00
   14   21    1     20.30      0.00
   16   21    1     14.24      0.00
   18   21    1      6.64      0.00
   20   21    1      6.97      0.00
  -21   22    1      6.65      0.00
  -19   22    1      8.64      0.00
  -17   22    1     16.73      0.00
  -15   22    1     15.20      0.00
  -13   22    1      0.27      0.00
  -11   22    1      1.91      0.00
   -9   22    1     15.86      0.00
   -7   22    1      7.88      0.00
   -5   22    1     -9.93      0.00
   -3   22    1    -16.49      0.00
   -1   22    1    -17.11      0.00
    1   22    1    -10.55      0.00
    3   22    1      0.73      0.00
    5   22    1     -2.37      0.00
    7   22    1    -30.59      0.00
    9   22    1    -49.68      0.00
   11   22    1    -29.65      0.00
   13   22    1     -2.32      0.00
   15   22    1      3.48      0.00
   17   22    1      0.87      0.00
   19   22    1      5.03      0.00
   21   22    1      4.42      0.00
  -22   23    1      3.26      0.00
  -20   23    1      0.94      0.00
  -18   23    1     -4.08      0.00
  -16   23    1    -10.53      0.00
  -14   23    1      2.57      0.00
  -12   23    1     22.72      0.00
  -10   23    1     20.48      0.00
   -8   23    1     12.51      0.00
   -6   23    1     23.18      0.00
   -4   23    1     34.49      0.00
   -2   23    1     30.87      0.00
    0   23    1     22.38      0.00
    2   23    1      9.84      0.00
    4   23    1     -7.61      0.00
    6   23    1     -2.39      0.00
    8   23    1     23.55      0.00
   10   23    1     21.46      0.00
   12   23    1     -9.65      0.00
   14   23    1    -30.41      0.00
   16   23    1    -28.13      0.00
   18   23    1    -15.10      0.00
   20   23    1     -4.78      0.00
   22   23    1      1.07      0.00
  -23   24    1     -3.04      0.00
  -21   24    1     -8.39      0.00
  -19   24    1     -5.34      0.00
  -17   24    1     -7.61      0.00
  -15   24    1     -5.03      0.00
  -13   24    1      9.64      0.00
  -11   24    1     13.04      0.00
   -9   24    1     -2.52      0.00
   -7   24    1    -11.24      0.00
   -5   24    1     -7.14      0.00
   -3   24    1     -2.73      0.00
   -1   24    1      0.21      0.00
    1   24    1      3.65      0.00
    3   24    1     -0.24      0.00
    5   24    1     -7.81      0.00
    7   24    1      4.85      0.00
    9   24    1     19.42      0.00
   11   24    1      7.63      0.00
   13   24    1     -7.02      0.00
   15   24    1     -6.26      0.00
   17   24    1      0.41      0.00
   19   24    1      2.39      0.00
   21   24    1      5.59      0.00
   23   24    1     10.44      0.00
  -24   25    1     -1.49      0.00
  -22   25    1      1.74      0.00
  -20   25    1      1.05      0.00
  -18   25    1      6.31      0.00
  -16   25    1     15.34      0.00
  -14   25    1      5.70      0.00
  -12   25    1    -17.18      0.00
  -10   25    1    -20.00      0.00
   -8   25    1     -3.33      0.00
   -6   25    1      7.27      0.00
   -4   25    1      7.06      0.00
   -2   25    1      5.73      0.00
    0   25    1      4.71      0.00
    2   25    1      7.37      0.00
    4   25    1     24.16      0.00
    6   25    1     29.78      0.00
    8   25    1      9.59      0.00
   10   25    1      2.08      0.00
   12   25    1     12.30      0.00
   14   25    1     16.71      0.00
   16   25    1     12.98      0.00
   18   25    1      4.36      0.00
   20   25    1     -5.37      0.00
   22   25    1    -12.60      0.00
   24   25    1     -7.61      0.00
  -25   26    1      3.70      0.00
  -23   26    1      9.94      0.00
  -21   26    1      8.52      0.00
  -19   26    1      1.62      0.00
  -17   26    1      4.45      0.00
  -15   26    1      8.74      0.00
  -13   26    1      3.79      0.00
  -11   26    1      2.08      0.00
   -9   26    1     14.46      0.00
   -7   26    1     28.14      0.00
   -5   26    1     32.83      0.00
   -3   26    1     30.35      0.00
   -1   26    1     23.25      0.00
    1   26    1     10.37      0.00
    3   26    1      4.89      0.00
    5   26    1     14.92      0.00
    7   26    1     12.64      0.00
    9   26    1     -0.86      0.00
   11   26    1     -3.26      0.00
   13   26    1     -4.49      0.00
   15   26    1     -9.19      0.00
   17   26    1    -10.46      0.00
   19   26    1     -6.81      0.00
   21   26    1     -6.21      0.00
   23   26    1     -8.74      0.00
   25   26    1     -2.77      0.00
  -26   27    1     -1.05      0.00
  -24   27    1     -5.93      0.00
  -22   27    1     -5.53      0.00
  -20   27    1      0.18      0.00
  -18   27    1     -3.76      0.00
  -16   27    1    -15.09      0.00
  -14   27    1    -13.71      0.00
  -12   27    1      3.35      0.00
  -10   27    1     10.19      0.00
   -8   27    1     -0.69      0.00
   -6   27    1    -12.08      0.00
   -4   27    1    -13.92      0.00
   -2   27    1     -7.70      0.00
    0   27    1      1.56      0.00
    2   27    1      7.19      0.00
    4   27    1     -4.22      0.00
    6   27    1    -15.99      0.00
    8   27    1     -7.10      0.00
   10   27    1      0.49      0.00
   12   27    1      1.35      0.00
   14   27    1      4.59      0.00
   16   27    1      3.57      0.00
   18   27    1     -0.23      0.00
   20   27    1      1.03      0.00
   22   27    1      7.39      0.00
   24   27    1      5.46      0.00
   26   27    1     -3.97      0.00
  -27   28    1     -2.84      0.00
  -25   28    1      0.02      0.00
  -23   28    1     -1.60      0.00
  -21   28    1      3.68      0.00
  -19   28    1     10.73      0.00
  -17   28    1      6.31      0.00
  -15   28    1     -2.31      0.00
  -13   28    1     -4.04      0.00
  -11   28    1     -1.73      0.00
   -9   28    1     -4.36      0.00
   -7   28    1     -8.39      0.00
   -5   28    1     -9.22      0.00
   -3   28    1     -7.94      0.00
   -1   28    1     -3.02      0.00
    1   28    1      8.88      0.00
    3   28    1     14.32      0.00
    5   28    1      1.60      0.00
    7   28    1     -6.18      0.00
    9   28    1     -0.64      0.00
   11   28    1      4.75      0.00
   13   28    1      8.78      0.00
   15   28    1      9.22      0.00
   17   28    1      4.05      0.00
   19   28    1     -3.67      0.00
   21   28    1     -4.74      0.00
   23   28    1     -0.44      0.00
   25   28    1     -0.64      0.00
   27   28    1      0.13      0.00
  -26   29    1     -3.99      0.00
  -24   29    1     -1.19      0.00
  -22   29    1     -4.38      0.00
  -20   29    1    -12.63      0.00
  -18   29    1    -10.76      0.00
  -16   29    1     -1.42      0.00
  -14   29    1      3.92      0.00
  -12   29    1     -2.89      0.00
  -10   29    1    -11.34      0.00
   -8   29    1    -12.38      0.00
   -6   29    1    -11.92      0.00
   -4   29    1     -9.93      0.00
   -2   29    1     -7.98      0.00
    0   29    1    -11.83      0.00
    2   29    1    -17.27      0.00
    4   29    1     -9.89      0.00
    6   29    1      3.97      0.00
    8   29    1      8.83      0.00
   10   29    1     10.09      0.00
   12   29    1      7.80      0.00
   14   29    1      1.93      0.00
   16   29    1      1.07      0.00
   18   29    1      5.65      0.00
   20   29    1      7.13      0.00
   22   29    1      0.82      0.00
   24   29    1     -1.16      0.00
   26   29    1      3.73      0.00
  -25   30    1     -8.09      0.00
  -23   30    1     -6.44      0.00
  -21   30    1     -9.20      0.00
  -19   30    1    -13.75      0.00
  -17   30    1    -11.44      0.00
  -15   30    1     -4.59      0.00
  -13   30    1      1.28      0.00
  -11   30    1      0.89      0.00
   -9   30    1     -1.64      0.00
   -7   30    1     -5.71      0.00
   -5   30    1     -9.64      0.00
   -3   30    1     -3.92      0.00
   -1   30    1      4.44      0.00
    1   30    1      0.66      0.00
    3   30    1     -4.88      0.00
    5   30    1      0.54      0.00
    7   30    1      6.90      0.00
    9   30    1      7.96      0.00
   11   30    1      4.18      0.00
   13   30    1     -0.02      0.00
   15   30    1     -0.68      0.00
   17   30    1      0.38      0.00
   19   30    1      5.15      0.00
   21   30    1      6.81      0.00
   23   30    1      4.00      0.00
   25   30    1      2.69      0.00
  -24   31    1      6.25      0.00
  -22   31    1      8.18      0.00
  -20   31    1     12.05      0.00
  -18   31    1      9.25      0.00
  -16   31    1      4.44      0.00
  -14   31    1     -3.76      0.00
  -12   31    1     -9.39      0.00
  -10   31    1     -6.17      0.00
   -8   31    1     -0.89      0.00
   -6   31    1      5.62      0.00
   -4   31    1      4.12      0.00
   -2   31    1     -9.13      0.00
    0   31    1    -13.45      0.00
    2   31    1     -5.20      0.00
    4   31    1     -2.12      0.00
    6   31    1     -6.19      0.00
    8   31    1    -13.60      0.00
   10   31    1    -18.66      0.00
   12   31    1    -12.56      0.00
   14   31    1     -2.63      0.00
   16   31    1      4.82      0.00
   18   31    1      6.40      0.00
   20   31    1      2.39      0.00
   22   31    1      2.52      0.00
   24   31    1      2.65      0.00
  -23   32    1      1.29      0.00
  -21   32    1     -0.04      0.00
  -19   32    1      0.45      0.00
  -17   32    1      0.77      0.00
  -15   32    1     -1.20      0.00
  -13   32    1     -7.84      0.00
  -11   32    1     -8.84      0.00
   -9   32    1     -4.91      0.00
   -7   32    1     -0.29      0.00
   -5   32    1      5.15      0.00
   -3   32    1     -4.55      0.00
   -1   32    1    -23.27      0.00
    1   32    1    -23.54      0.00
    3   32    1    -12.86      0.00
    5   32    1     -4.41      0.00
    7   32    1      0.08      0.00
    9   32    1     -2.67      0.00
   11   32    1     -0.78      0.00
   13   32    1      3.02      0.00
   15   32    1      2.44      0.00
   17   32    1      4.02      0.00
   19   32    1      0.19      0.00
   21   32    1     -5.49      0.00
   23   32    1     -6.15      0.00
  -22   33    1     -5.31      0.00
  -20   33    1     -3.01      0.00
  -18   33    1      2.18      0.00
  -16   33    1      1.23      0.00
  -14   33    1      3.79      0.00
  -12   33    1     12.21      0.00
  -10   33    1     10.91      0.00
   -8   33    1      5.47      0.00
   -6   33    1     -2.52      0.00
   -4   33    1     -7.94      0.00
   -2   33    1      4.37      0.00
    0   33    1     11.95      0.00
    2   33    1      2.43      0.00
    4   33    1     -4.80      0.00
    6   33    1     -7.57      0.00
    8   33    1     -1.35      0.00
   10   33    1      6.87      0.00
   12   33    1      1.73      0.00
   14   33    1     -3.31      0.00
   16   33    1     -7.22      0.00
   18   33    1    -11.50      0.00
   20   33    1     -6.88      0.00
   22   33    1     -2.94      0.00
  -19   34    1      5.25      0.00
  -17   34    1      3.27      0.00
  -15   34    1     -0.58      0.00
  -13   34    1      2.07      0.00
  -11   34    1      0.79      0.00
   -9   34    1     -4.90      0.00
   -7   34    1     -5.99      0.00
   -5   34    1    -11.39      0.00
   -3   34    1     -6.92      0.00
   -1   34    1     12.92      0.00
    1   34    1     16.79      0.00
    3   34    1      8.48      0.00
    5   34    1     -1.98      0.00
    7   34    1    -11.31      0.00
    9   34    1     -5.20      0.00
   11   34    1     -1.10      0.00
   13   34    1     -0.76      0.00
   15   34    1      4.77      0.00
   17   34    1      2.67      0.00
   19   34    1      1.78      0.00
  -18   35    1     -3.41      0.00
  -16   35    1      1.41      0.00
  -14   35    1      7.00      0.00
  -12   35    1      3.36      0.00
  -10   35    1      5.51      0.00
   -8   35    1      7.44      0.00
   -6   35    1      8.47      0.00
   -4   35    1     18.90      0.00
   -2   35    1     15.03      0.00
    0   35    1      5.60      0.00
    2   35    1      9.27      0.00
    4   35    1      9.84      0.00
    6   35    1     11.27      0.00
    8   35    1      7.39      0.00
   10   35    1     -2.24      0.00
   12   35    1     -0.51      0.00
   14   35    1     -3.01      0.00
   16   35    1     -6.17      0.00
   18   35    1      0.84      0.00
  -15   36    1      3.83      0.00
  -13   36    1      2.72      0.00
  -11   36    1      3.57      0.00
   -9   36    1      8.79      0.00
   -7   36    1      4.98      0.00
   -5   36    1      7.27      0.00
   -3   36    1     10.16      0.00
   -1   36    1     -5.38      0.00
    1   36    1    -11.83      0.00
    3   36    1     -8.69      0.00
    5   36    1     -3.53      0.00
    7   36    1      5.96      0.00
    9   36    1     -0.86      0.00
   11   36    1     -7.65      0.00
   13   36    1     -6.76      0.00
   15   36    1    -10.79      0.00
  -14   37    1     -5.20      0.00
  -12   37    1     -3.07      0.00
  -10   37    1     -3.65      0.00
   -8   37    1     -1.09      0.00
   -6   37    1      7.27      0.00
   -4   37    1     -1.95      0.00
   -2   37    1     -6.20      0.00
    0   37    1      2.26      0.00
    2   37    1      2.73      0.00
    4   37    1      6.47      0.00
    6   37    1      4.53      0.00
    8   37    1     -0.65      0.00
   10   37    1      0.94      0.00
   12   37    1     -4.31      0.00
   14   37    1     -2.12      0.00
  -11   38    1      2.41      0.00
   -9   38    1     -0.52      0.00
   -7   38    1      6.03      0.00
   -5   38    1      8.24      0.00
   -3   38    1      1.65      0.00
   -1   38    1     10.35      0.00
    1   38    1     13.66      0.00
    3   38    1      9.57      0.00
    5   38    1      8.03      0.00
    7   38    1     -0.08      0.00
    9   38    1      3.63      0.00
   11   38    1      8.38      0.00
   -6   39    1    -14.26      0.00
   -4   39    1     -8.28      0.00
   -2   39    1     -0.28      0.00
    0   39    1     -5.75      0.00
    2   39    1     -6.62      0.00
    4   39    1    -11.23      0.00
    6   39    1    -10.42      0.00
    2    2    2    -10.33      0.00
   -1    3    2   -200.39      0.00
    1    3    2   -109.54      0.00
    3    3    2   -377.01      0.00
   -2    4    2    -39.85      0.00
    0    4    2    -17.37      0.00
    2    4    2     -2.71      0.00
    4    4    2     22.01      0.00
   -3    5    2    360.39      0.00
   -1    5    2    243.97      0.00
    1    5    2     33.18      0.00
    3    5    2    107.01      0.00
    5    5    2     73.09      0.00
   -4    6    2     78.50      0.00
   -2    6    2     89.85      0.00
    0    6    2     45.78      0.00
    2    6    2     13.53      0.00
    4    6    2     -1.95      0.00
    6    6    2    -48.22      0.00
   -5    7    2     45.37      0.00
   -3    7    2   -165.35      0.00
   -1    7    2   -100.06      0.00
    1    7    2     98.16      0.00
    3    7    2     83.96      0.00
    5    7    2     73.21      0.00
    7    7    2     99.61      0.00
   -6    8    2    -94.27      0.00
   -4    8    2   -109.06      0.00
   -2    8    2    -93.64      0.00
    0    8    2    -22.69      0.00
    2    8    2     26.94      0.00
    4    8    2     27.65      0.00
    6    8    2     44.05      0.00
    8    8    2     78.89      0.00
   -7    9    2     25.33      0.00
   -5    9    2     19.64      0.00
   -3    9    2    141.75      0.00
   -1    9    2    115.71      0.00
    1    9    2    -12.85      0.00
    3    9    2     -8.19      0.00
    5    9    2      7.53      0.00
    7    9    2    -14.20      0.00
    9    9    2     71.56      0.00
   -8   10    2     76.80      0.00
   -6   10    2     84.08      0.00
   -4   10    2     80.00      0.00
   -2   10    2     55.03      0.00
    0   10    2     -9.66      0.00
    2   10    2    -52.19      0.00
    4   10    2    -34.01      0.00
    6   10    2    -19.40      0.00
    8   10    2    -35.32      0.00
   10   10    2    -39.05      0.00
   -9   11    2   -142.05      0.00
   -7   11    2   -101.60      0.00
   -5   11    2    -22.03      0.00
   -3   11    2    -36.82      0.00
   -1   11    2    -13.02      0.00
    1   11    2     49.70      0.00
    3   11    2     27.00      0.00
    5   11    2      6.14      0.00
    7   11    2     36.85      0.00
    9   11    2      2.81      0.00
   11   11    2    -52.17      0.00
  -10   12    2    -31.94      0.00
   -8   12    2    -43.99      0.00
   -6   12    2    -37.24      0.00
   -4   12    2    -31.78      0.00
   -2   12    2    -27.75      0.00
    0   12    2      2.46      0.00
    2   12    2     29.30      0.00
    4   12    2     10.25      0.00
    6   12    2    -12.22      0.00
    8   12    2     -5.33      0.00
   10   12    2      3.88      0.00
   12   12    2     18.50      0.00
  -11   13    2     44.39      0.00
   -9   13    2     95.01      0.00
   -7   13    2     48.80      0.00
   -5   13    2    -59.89      0.00
   -3   13    2    -91.60      0.00
   -1   13    2    -90.38      0.00
    1   13    2    -85.64      0.00
    3   13    2    -28.20      0.00
    5   13    2     11.43      0.00
    7   13    2    -17.87      0.00
    9   13    2    -28.38      0.00
   11   13    2     -3.01      0.00
   13   13    2     20.56      0.00
  -12   14    2     33.22      0.00
  -10   14    2     23.87      0.00
   -8   14    2     12.10      0.00
   -6   14    2     -2.85      0.00
   -4   14    2      0.59      0.00
   -2   14    2     21.30      0.00
    0   14    2     18.51      0.00
    2   14    2     -5.23      0.00
    4   14    2     -4.52      0.00
    6   14    2      8.55      0.00
    8   14    2      7.25      0.00
   10   14    2      2.97      0.00
   12   14    2    -12.67      0.00
   14   14    2    -32.11      0.00
  -13   15    2    -53.37      0.00
  -11   15    2    -35.97      0.00
   -9   15    2    -58.58      0.00
   -7   15    2    -54.13      0.00
   -5   15    2      3.49      0.00
   -3   15    2     20.47      0.00
   -1   15    2     -0.23      0.00
    1   15    2    -19.23      0.00
    3   15    2    -62.18      0.00
    5   15    2    -90.58      0.00
    7   15    2    -54.59      0.00
    9   15    2     -3.84      0.00
   11   15    2     18.26      0.00
   13   15    2     -0.41      0.00
   15   15    2    -50.91      0.00
  -14   16    2    -23.68      0.00
  -12   16    2    -21.75      0.00
  -10   16    2     -7.21      0.00
   -8   16    2      7.46      0.00
   -6   16    2     20.13      0.00
   -4   16    2     11.20      0.00
   -2   16    2    -19.61      0.00
    0   16    2    -28.56      0.00
    2   16    2     -5.11      0.00
    4   16    2      9.24      0.00
    6   16    2      5.98      0.00
    8   16    2      0.72      0.00
   10   16    2     -7.29      0.00
   12   16    2     -5.30      0.00
   14   16    2      6.55      0.00
   16   16    2      4.40      0.00
  -15   17    2     61.53      0.00
  -13   17    2     53.45      0.00
  -11   17    2     16.23      0.00
   -9   17    2     20.43      0.00
   -7   17    2     53.92      0.00
   -5   17    2     51.47      0.00
   -3   17    2     42.74      0.00
   -1   17    2     44.19      0.00
    1   17    2     28.49      0.00
    3   17    2     25.50      0.00
    5   17    2     38.68      0.00
    7   17    2     25.93      0.00
    9   17    2    -12.17      0.00
   11   17    2    -47.43      0.00
   13   17    2    -37.31      0.00
   15   17    2     18.95      0.00
   17   17    2     45.03      0.00
  -16   18    2     -7.06      0.00
  -14   18    2      2.47      0.00
  -12   18    2      4.97      0.00
  -10   18    2      1.89      0.00
   -8   18    2     -0.93      0.00
   -6   18    2     -8.70      0.00
   -4   18    2     -5.12      0.00
   -2   18    2     19.03      0.00
    0   18    2     28.64      0.00
    2   18    2      9.91      0.00
    4   18    2     -7.31      0.00
    6   18    2     -9.91      0.00
    8   18    2     -2.31      0.00
   10   18    2     12.69      0.00
   12   18    2     21.40      0.00
   14   18    2     16.95      0.00
   16   18    2     10.89      0.00
   18   18    2      7.25      0.00
  -17   19    2    -18.50      0.00
  -15   19    2    -21.38      0.00
  -13   19    2    -16.57      0.00
  -11   19    2     21.72      0.00
   -9   19    2     42.38      0.00
   -7   19    2     12.55      0.00
   -5   19    2     -7.60      0.00
   -3   19    2     -0.25      0.00
   -1   19    2     13.23      0.00
    1   19    2     42.38      0.00
    3   19    2     60.04      0.00
    5   19    2     36.26      0.00
    7   19    2     -2.34      0.00
    9   19    2    -12.43      0.00
   11   19    2     13.89      0.00
   13   19    2     23.42      0.00
   15   19    2    -10.24      0.00
   17   19    2    -34.29      0.00
   19   19    2    -20.08      0.00
  -18   20    2      4.68      0.00
  -16   20    2     11.24      0.00
  -14   20    2      6.78      0.00
  -12   20    2     -0.14      0.00
  -10   20    2     -6.40      0.00
   -8   20    2    -11.16      0.00
   -6   20    2     -3.47      0.00
   -4   20    2      4.22      0.00
   -2   20    2     -6.60      0.00
    0   20    2    -14.03      0.00
    2   20    2     -5.39      0.00
    4   20    2      3.54      0.00
    6   20    2      6.98      0.00
    8   20    2      2.95      0.00
   10   20    2     -8.39      0.00
   12   20    2    -17.64      0.00
   14   20    2    -17.82      0.00
   16   20    2    -10.31      0.00
   18   20    2      0.55      0.00
   20   20    2      6.35      0.00
  -19   21    2      7.00      0.00
  -17   21    2      1.99      0.00
  -15   21    2      5.73      0.00
  -13   21    2     19.18      0.00
  -11   21    2      2.15      0.00
   -9   21    2    -26.90      0.00
   -7   21    2    -14.47      0.00
   -5   21    2     11.37      0.00
   -3   21    2     14.04      0.00
   -1   21    2      6.23      0.00
    1   21    2    -10.74      0.00
    3   21    2    -26.11      0.00
    5   21    2     -7.59      0.00
    7   21    2     43.70      0.00
    9   21    2     70.29      0.00
   11   21    2     39.13      0.00
   13   21    2      2.22      0.00
   15   21    2      1.38      0.00
   17   21    2     12.02      0.00
   19   21    2      7.17      0.00
   21   21    2      2.01      0.00
  -20   22    2     -1.04      0.00
  -18   22    2     -6.60      0.00
  -16   22    2     -9.11      0.00
  -14   22    2     -6.71      0.00
  -12   22    2     -3.29      0.00
  -10   22    2      1.18      0.00
   -8   22    2      5.10      0.00
   -6   22    2     -3.28      0.00
   -4   22    2    -16.74      0.00
   -2   22    2    -14.29      0.00
    0   22    2     -5.56      0.00
    2   22    2     -0.84      0.00
    4   22    2      4.09      0.00
    6   22    2      4.94      0.00
    8   22    2      4.58      0.00
   10   22    2      8.00      0.00
   12   22    2     12.20      0.00
   14   22    2     14.35      0.00
   16   22    2     11.13      0.00
   18   22    2      0.88      0.00
   20   22    2     -7.46      0.00
   22   22    2     -0.87      0.00
  -21   23    2     -4.41      0.00
  -19   23    2    -10.19      0.00
  -17   23    2     -8.94      0.00
  -15   23    2    -16.40      0.00
  -13   23    2    -42.24      0.00
  -11   23    2    -46.54      0.00
   -9   23    2    -21.26      0.00
   -7   23    2    -14.69      0.00
   -5   23    2    -29.50      0.00
   -3   23    2    -35.44      0.00
   -1   23    2    -32.55      0.00
    1   23    2    -24.74      0.00
    3   23    2     -6.82      0.00
    5   23    2      0.90      0.00
    7   23    2    -27.53      0.00
    9   23    2    -49.30      0.00
   11   23    2    -23.91      0.00
   13   23    2      8.84      0.00
   15   23    2     16.12      0.00
   17   23    2      7.81      0.00
   19   23    2      0.85      0.00
   21   23    2     -5.19      0.00
   23   23    2     -8.36      0.00
  -22   24    2     10.64      0.00
  -20   24    2      8.88      0.00
  -18   24    2      4.25      0.00
  -16   24    2     -0.13      0.00
  -14   24    2      0.24      0.00
  -12   24    2      5.22      0.00
  -10   24    2      5.76      0.00
   -8   24    2      1.51      0.00
   -6   24    2      5.05      0.00
   -4   24    2     16.03      0.00
   -2   24    2     17.53      0.00
    0   24    2      9.09      0.00
    2   24    2     -2.36      0.00
    4   24    2    -13.84      0.00
    6   24    2    -16.23      0.00
    8   24    2    -11.64      0.00
   10   24    2     -8.63      0.00
   12   24    2     -8.06      0.00
   14   24    2    -10.31      0.00
   16   24    2    -12.92      0.00
   18   24    2     -8.18      0.00
   20   24    2      1.56      0.00
   22   24    2      2.10      0.00
   24   24    2     -5.16      0.00
  -23   25    2     -5.47      0.00
  -21   25    2     -4.00      0.00
  -19   25    2      4.87      0.00
  -17   25    2      4.04      0.00
  -15   25    2      5.59      0.00
  -13   25    2     24.62      0.00
  -11   25    2     32.59      0.00
   -9   25    2     10.32      0.00
   -7   25    2    -10.77      0.00
   -5   25    2    -13.82      0.00
   -3   25    2    -10.58      0.00
   -1   25    2     -6.29      0.00
    1   25    2     -1.00      0.00
    3   25    2    -10.04      0.00
    5   25    2    -29.10      0.00
    7   25    2    -17.85      0.00
    9   25    2      5.47      0.00
   11   25    2      3.46      0.00
   13   25    2     -2.63      0.00
   15   25    2     -0.92      0.00
   17   25    2      2.99      0.00
   19   25    2      8.34      0.00
   21   25    2     15.41      0.00
   23   25    2     16.23      0.00
   25   25    2      0.45      0.00
  -24   26    2     -7.20      0.00
  -22   26    2    -10.15      0.00
  -20   26    2     -4.55      0.00
  -18   26    2      5.23      0.00
  -16   26    2     11.33      0.00
  -14   26    2      8.04      0.00
  -12   26    2     -2.68      0.00
  -10   26    2     -6.43      0.00
   -8   26    2     -1.55      0.00
   -6   26    2     -0.85      0.00
   -4   26    2     -7.88      0.00
   -2   26    2    -12.31      0.00
    0   26    2     -8.04      0.00
    2   26    2      1.34      0.00
    4   26    2      9.47      0.00
    6   26    2      9.35      0.00
    8   26    2      3.82      0.00
   10   26    2      0.85      0.00
   12   26    2      0.05      0.00
   14   26    2      1.50      0.00
   16   26    2      7.24      0.00
   18   26    2      8.88      0.00
   20   26    2      1.65      0.00
   22   26    2     -3.64      0.00
   24   26    2     -0.56      0.00
   26   26    2      5.67      0.00
  -25   27    2      7.25      0.00
  -23   27    2     12.10      0.00
  -21   27    2      5.72      0.00
  -19   27    2     -4.40      0.00
  -17   27    2     -1.33      0.00
  -15   27    2      5.18      0.00
  -13   27    2     -2.00      0.00
  -11   27    2     -9.64      0.00
   -9   27    2      0.35      0.00
   -7   27    2     13.09      0.00
   -5   27    2     16.87      0.00
   -3   27    2     12.58      0.00
   -1   27    2      0.77      0.00
    1   27    2    -15.10      0.00
    3   27    2    -15.04      0.00
    5   27    2      7.19      0.00
    7   27    2     11.46      0.00
    9   27    2     -4.43      0.00
   11   27    2    -12.92      0.00
   13   27    2    -18.79      0.00
   15   27    2    -18.79      0.00
   17   27    2     -9.83      0.00
   19   27    2     -3.34      0.00
   21   27    2     -6.10      0.00
   23   27    2     -7.60      0.00
   25   27    2      2.81      0.00
   27   27    2      6.47      0.00
  -26   28    2      6.14      0.00
  -24   28    2      2.02      0.00
  -22   28    2      3.13      0.00
  -20   28    2     -0.20      0.00
  -18   28    2     -7.61      0.00
  -16   28    2    -11.76      0.00
  -14   28    2     -9.53      0.00
  -12   28    2     -0.33      0.00
  -10   28    2      5.57      0.00
   -8   28    2      4.57      0.00
   -6   28    2      4.02      0.00
   -4   28    2      6.41      0.00
   -2   28    2      9.18      0.00
    0   28    2      8.00      0.00
    2   28    2      3.48      0.00
    4   28    2      0.79      0.00
    6   28    2      1.41      0.00
    8   28    2      1.85      0.00
   10   28    2     -1.05      0.00
   12   28    2     -2.42      0.00
   14   28    2     -0.92      0.00
   16   28    2     -4.13      0.00
   18   28    2     -8.39      0.00
   20   28    2     -5.74      0.00
   22   28    2     -0.07      0.00
   24   28    2      0.82      0.00
   26   28    2     -5.06      0.00
   28   28    2     -7.75      0.00
  -25   29    2      5.04      0.00
  -23   29    2      0.95      0.00
  -21   29    2      6.59      0.00
  -19   29    2     13.60      0.00
  -17   29    2      9.88      0.00
  -15   29    2      1.50      0.00
  -13   29    2      0.32      0.00
  -11   29    2      6.63      0.00
   -9   29    2     10.42      0.00
   -7   29    2     15.94      0.00
   -5   29    2     20.77      0.00
   -3   29    2     18.83      0.00
   -1   29    2     20.14      0.00
    1   29    2     30.18      0.00
    3   29    2     30.01      0.00
    5   29    2      9.09      0.00
    7   29    2     -5.26      0.00
    9   29    2     -3.85      0.00
   11   29    2      1.43      0.00
   13   29    2      7.61      0.00
   15   29    2      7.03      0.00
   17   29    2     -0.93      0.00
   19   29    2     -7.80      0.00
   21   29    2     -4.85      0.00
   23   29    2     -0.26      0.00
   25   29    2     -4.89      0.00
  -24   30    2      2.73      0.00
  -22   30    2      0.18      0.00
  -20   30    2     -0.73      0.00
  -18   30    2      2.79      0.00
  -16   30    2      4.39      0.00
  -14   30    2      5.05      0.00
  -12   30    2      3.21      0.00
  -10   30    2     -0.68      0.00
   -8   30    2     -2.63      0.00
   -6   30    2     -2.24      0.00
   -4   30    2      0.20      0.00
   -2   30    2      1.20      0.00
    0   30    2      0.27      0.00
    2   30    2     -0.47      0.00
    4   30    2     -1.87      0.00
    6   30    2     -1.67      0.00
    8   30    2      2.32      0.00
   10   30    2      8.45      0.00
   12   30    2      9.33      0.00
   14   30    2      3.41      0.00
   16   30    2      0.87      0.00
   18   30    2      2.73      0.00
   20   30    2      2.87      0.00
   22   30    2     -0.61      0.00
   24   30    2     -3.64      0.00
  -23   31    2     -4.81      0.00
  -21   31    2     -3.68      0.00
  -19   31    2     -3.15      0.00
  -17   31    2     -0.16      0.00
  -15   31    2      4.35      0.00
  -13   31    2     10.92      0.00
  -11   31    2     10.97      0.00
   -9   31    2      4.56      0.00
   -7   31    2     -8.16      0.00
   -5   31    2    -18.76      0.00
   -3   31    2     -9.46      0.00
   -1   31    2      4.91      0.00
    1   31    2      1.40      0.00
    3   31    2     -4.40      0.00
    5   31    2      0.53      0.00
    7   31    2      6.37      0.00
    9   31    2     10.61      0.00
   11   31    2      7.62      0.00
   13   31    2      0.44      0.00
   15   31    2     -2.50      0.00
   17   31    2     -4.19      0.00
   19   31    2     -1.39      0.00
   21   31    2     -0.38      0.00
   23   31    2     -2.47      0.00
  -22   32    2      0.32      0.00
  -20   32    2      1.43      0.00
  -18   32    2     -0.51      0.00
  -16   32    2      0.38      0.00
  -14   32    2     -0.83      0.00
  -12   32    2     -6.73      0.00
  -10   32    2     -8.53      0.00
   -8   32    2     -5.79      0.00
   -6   32    2     -3.69      0.00
   -4   32    2     -3.99      0.00
   -2   32    2     -3.72      0.00
    0   32    2     -1.05      0.00
    2   32    2      2.07      0.00
    4   32    2      4.36      0.00
    6   32    2      2.98      0.00
    8   32    2     -2.12      0.00
   10   32    2     -7.83      0.00
   12   32    2     -7.67      0.00
   14   32    2     -0.10      0.00
   16   32    2      6.49      0.00
   18   32    2      9.40      0.00
   20   32    2      8.97      0.00
   22   32    2      8.01      0.00
  -21   33    2     -4.23      0.00
  -19   33    2     -9.90      0.00
  -17   33    2    -10.74      0.00
  -15   33    2     -6.77      0.00
  -13   33    2    -10.27      0.00
  -11   33    2    -12.31      0.00
   -9   33    2     -7.39      0.00
   -7   33    2      1.73      0.00
   -5   33    2     15.71      0.00
   -3   33    2     12.04      0.00
   -1   33    2     -5.93      0.00
    1   33    2     -4.05      0.00
    3   33    2      6.58      0.00
    5   33    2     13.81      0.00
    7   33    2     18.39      0.00
    9   33    2      9.60      0.00
   11   33    2      4.77      0.00
   13   33    2      4.91      0.00
   15   33    2      0.69      0.00
   17   33    2      3.99      0.00
   19   33    2      4.57      0.00
   21   33    2      1.39      0.00
  -20   34    2      0.11      0.00
  -18   34    2      0.82      0.00
  -16   34    2     -1.99      0.00
  -14   34    2     -3.42      0.00
  -12   34    2      4.43      0.00
  -10   34    2      9.98      0.00
   -8   34    2      7.52      0.00
   -6   34    2      3.21      0.00
   -4   34    2     -1.10      0.00
   -2   34    2     -4.73      0.00
    0   34    2     -6.62      0.00
    2   34    2     -7.78      0.00
    4   34    2     -8.51      0.00
    6   34    2     -5.98      0.00
    8   34    2     -1.24      0.00
   10   34    2      3.74      0.00
   12   34    2      5.64      0.00
   14   34    2      2.27      0.00
   16   34    2     -2.72      0.00
   18   34    2     -8.41      0.00
   20   34    2     -9.81      0.00
  -17   35    2      5.51      0.00
  -15   35    2     -4.01      0.00
  -13   35    2     -6.97      0.00
  -11   35    2     -6.89      0.00
   -9   35    2     -9.91      0.00
   -7   35    2     -9.20      0.00
   -5   35    2    -19.84      0.00
   -3   35    2    -26.45      0.00
   -1   35    2    -11.54      0.00
    1   35    2     -9.61      0.00
    3   35    2    -16.36      0.00
    5   35    2    -22.10      0.00
    7   35    2    -29.49      0.00
    9   35    2    -16.53      0.00
   11   35    2     -3.17      0.00
   13   35    2      3.19      0.00
   15   35    2     14.15      0.00
   17   35    2     10.14      0.00
  -16   36    2      2.44      0.00
  -14   36    2      5.45      0.00
  -12   36    2     -0.40      0.00
  -10   36    2     -7.38      0.00
   -8   36    2     -7.64      0.00
   -6   36    2     -5.23      0.00
   -4   36    2      0.41      0.00
   -2   36    2      6.77      0.00
    0   36    2      7.30      0.00
    2   36    2      4.67      0.00
    4   36    2      3.65      0.00
    6   36    2      2.17      0.00
    8   36    2      1.26      0.00
   10   36    2      0.38      0.00
   12   36    2     -2.42      0.00
   14   36    2     -4.74      0.00
   16   36    2     -4.77      0.00
  -13   37    2      4.26      0.00
  -11   37    2      3.71      0.00
   -9   37    2      4.72      0.00
   -7   37    2     -4.21      0.00
   -5   37    2     -2.40      0.00
   -3   37    2      8.19      0.00
   -1   37    2     -3.20      0.00
    1   37    2     -6.60      0.00
    3   37    2     -0.15      0.00
    5   37    2      4.25      0.00
    7   37    2     15.22      0.00
    9   37    2      8.34      0.00
   11   37    2     -1.15      0.00
   13   37    2     -1.55      0.00
  -10   38    2      8.50      0.00
   -8   38    2      8.91      0.00
   -6   38    2      7.16      0.00
   -4   38    2      1.88      0.00
   -2   38    2     -5.13      0.00
    0   38    2     -4.11      0.00
    2   38    2      2.81      0.00
    4   38    2      5.50      0.00
    6   38    2      4.17      0.00
    8   38    2     -0.52      0.00
   10   38    2     -5.49      0.00
   -7   39    2      9.33      0.00
   -5   39    2     12.97      0.00
   -3   39    2      3.89      0.00
   -1   39    2     12.22      0.00
    1   39    2     13.77      0.00
    3   39    2      4.58      0.00
    5   39    2      2.58      0.00
    0    1    3    194.23      0.00
   -1    2    3     34.33      0.00
    1    2    3    -26.91      0.00
   -2    3    3    149.07      0.00
    0    3    3     38.21      0.00
    2    3    3    199.36      0.00
   -3    4    3   -343.46      0.00
   -1    4    3   -227.73      0.00
    1    4    3    -73.32      0.00
    3    4    3   -103.91      0.00
   -4    5    3    -77.21      0.00
   -2    5    3   -172.43      0.00
    0    5    3    -52.64      0.00
    2    5    3    -91.36      0.00
    4    5    3   -173.35      0.00
   -5    6    3     49.04      0.00
   -3    6    3    190.10      0.00
   -1    6    3    118.70      0.00
    1    6    3    -39.58      0.00
    3    6    3    -68.48      0.00
    5    6    3    -91.36      0.00
   -6    7    3    -90.77      0.00
   -4    7    3     24.95      0.00
   -2    7    3    106.96      0.00
    0    7    3    -13.93      0.00
    2    7    3    -41.71      0.00
    4    7    3     24.28      0.00
    6    7    3    -30.07      0.00
   -7    8    3     51.49      0.00
   -5    8    3     23.35      0.00
   -3    8    3    -87.62      0.00
   -1    8    3    -84.95      0.00
    1    8    3     -5.62      0.00
    3    8    3     13.03      0.00
    5    8    3     35.26      0.00
    7    8    3     36.05      0.00
   -8    9    3    -51.64      0.00
   -6    9    3     -7.51      0.00
   -4    9    3    -62.43      0.00
   -2    9    3   -111.95      0.00
    0    9    3    -10.76      0.00
    2    9    3     35.82      0.00
    4    9    3    -20.53      0.00
    6    9    3     -4.72      0.00
    8    9    3      9.17      0.00
   -9   10    3     58.05      0.00
   -7   10    3     30.25      0.00
   -5   10    3     14.26      0.00
   -3   10    3     66.08      0.00
   -1   10    3     78.12      0.00
    1   10    3     50.58      0.00
    3   10    3     41.82      0.00
    5   10    3      5.16      0.00
    7   10    3    -25.78      0.00
    9   10    3     19.70      0.00
  -10   11    3     57.05      0.00
   -8   11    3     87.53      0.00
   -6   11    3     24.65      0.00
   -4   11    3     13.05      0.00
   -2   11    3     32.49      0.00
    0   11    3    -29.91      0.00
    2   11    3    -60.23      0.00
    4   11    3     -5.89      0.00
    6   11    3     -0.77      0.00
    8   11    3    -20.25      0.00
   10   11    3     16.88      0.00
  -11   12    3    -30.62      0.00
   -9   12    3    -77.02      0.00
   -7   12    3    -50.10      0.00
   -5   12    3     14.21      0.00
   -3   12    3     35.63      0.00
   -1   12    3     42.30      0.00
    1   12    3     37.31      0.00
    3   12    3     14.63      0.00
    5   12    3     29.04      0.00
    7   12    3     58.92      0.00
    9   12    3     39.65      0.00
   11   12    3      1.71      0.00
  -12   13    3    -21.21      0.00
  -10   13    3    -37.03      0.00
   -8   13    3    -37.48      0.00
   -6   13    3     34.72      0.00
   -4   13    3     69.39      0.00
   -2   13    3     42.36      0.00
    0   13    3     51.22      0.00
    2   13    3     57.04      0.00
    4   13    3     10.04      0.00
    6   13    3     -2.23      0.00
    8   13    3     22.82      0.00
   10   13    3     14.44      0.00
   12   13    3      5.97      0.00
  -13   14    3      1.84      0.00
  -11   14    3     19.88      0.00
   -9   14    3     57.93      0.00
   -7   14    3     49.38      0.00
   -5   14    3    -14.14      0.00
   -3   14    3    -61.19      0.00
   -1   14    3    -70.32      0.00
    1   14    3    -39.88      0.00
    3   14    3     13.48      0.00
    5   14    3     29.53      0.00
    7   14    3      7.00      0.00
    9   14    3     -6.72      0.00
   11   14    3     -1.47      0.00
   13   14    3     25.05      0.00
  -14   15    3     56.55      0.00
  -12   15    3     35.42      0.00
  -10   15    3     16.74      0.00
   -8   15    3     16.91      0.00
   -6   15    3    -15.15      0.00
   -4   15    3    -24.77      0.00
   -2   15    3     19.96      0.00
    0   15    3     34.94      0.00
    2   15    3     19.62      0.00
    4   15    3     31.18      0.00
    6   15    3     29.49      0.00
    8   15    3     -1.94      0.00
   10   15    3    -17.12      0.00
   12   15    3    -18.55      0.00
   14   15    3     -0.88      0.00
  -15   16    3    -33.86      0.00
  -13   16    3    -30.24      0.00
  -11   16    3    -29.41      0.00
   -9   16    3    -54.04      0.00
   -7   16    3    -72.30      0.00
   -5   16    3    -44.04      0.00
   -3   16    3     -1.06      0.00
   -1   16    3     17.48      0.00
    1   16    3      0.98      0.00
    3   16    3    -39.12      0.00
    5   16    3    -60.38      0.00
    7   16    3    -44.41      0.00
    9   16    3     -8.99      0.00
   11   16    3     21.92      0.00
   13   16    3     12.86      0.00
   15   16    3    -25.96      0.00
  -16   17    3    -32.37      0.00
  -14   17    3    -46.29      0.00
  -12   17    3    -21.16      0.00
  -10   17    3      5.90      0.00
   -8   17    3     -8.49      0.00
   -6   17    3    -18.82      0.00
   -4   17    3    -25.69      0.00
   -2   17    3    -57.95      0.00
    0   17    3    -59.16      0.00
    2   17    3    -18.64      0.00
    4   17    3      1.36      0.00
    6   17    3      4.63      0.00
    8   17    3     14.96      0.00
   10   17    3     22.90      0.00
   12   17    3     23.31      0.00
   14   17    3      2.10      0.00
   16   17    3    -30.45      0.00
  -17   18    3     30.79      0.00
  -15   18    3     34.41      0.00
  -13   18    3     27.93      0.00
  -11   18    3      8.50      0.00
   -9   18    3      3.30      0.00
   -7   18    3     22.83      0.00
   -5   18    3     23.80      0.00
   -3   18    3     -7.47      0.00
   -1   18    3    -37.11      0.00
    1   18    3    -44.99      0.00
    3   18    3    -29.20      0.00
    5   18    3     -2.47      0.00
    7   18    3     12.39      0.00
    9   18    3     -2.72      0.00
   11   18    3    -36.73      0.00
   13   18    3    -39.34      0.00
   15   18    3     -1.07      0.00
   17   18    3     22.90      0.00
  -18   19    3     13.18      0.00
  -16   19    3      4.51      0.00
  -14   19    3     10.30      0.00
  -12   19    3     -1.94      0.00
  -10   19    3    -24.61      0.00
   -8   19    3    -12.31      0.00
   -6   19    3      6.65      0.00
   -4   19    3      6.12      0.00
   -2   19    3     12.99      0.00
    0   19    3      3.36      0.00
    2   19    3    -34.36      0.00
    4   19    3    -50.43      0.00
    6   19    3    -32.21      0.00
    8   19    3     -6.12      0.00
   10   19    3      3.37      0.00
   12   19    3     -2.31      0.00
   14   19    3      3.91      0.00
   16   19    3     20.71      0.00
   18   19    3     17.66      0.00
  -19   20    3     -1.15      0.00
  -17   20    3    -11.02      0.00
  -15   20    3    -14.52      0.00
  -13   20    3    -12.81      0.00
  -11   20    3     10.50      0.00
   -9   20    3     38.03      0.00
   -7   20    3     29.35      0.00
   -5   20    3      7.96      0.00
   -3   20    3     15.73      0.00
   -1   20    3     36.36      0.00
    1   20    3     46.86      0.00
    3   20    3     42.68      0.00
    5   20    3     15.38      0.00
    7   20    3    -23.49      0.00
    9   20    3    -33.28      0.00
   11   20    3     -4.63      0.00
   13   20    3     14.03      0.00
   15   20    3     -2.50      0.00
   17   20    3    -22.06      0.00
   19   20    3    -22.16      0.00
  -20   21    3    -13.78      0.00
  -18   21    3     -2.59      0.00
  -16   21    3      7.47      0.00
  -14   21    3     -3.28      0.00
  -12   21    3    -11.60      0.00
  -10   21    3     -0.96      0.00
   -8   21    3     -3.86      0.00
   -6   21    3    -13.95      0.00
   -4   21    3     -4.95      0.00
   -2   21    3      0.02      0.00
    0   21    3      3.26      0.00
    2   21    3     18.68      0.00
    4   21    3     22.10      0.00
    6   21    3     -2.06      0.00
    8   21    3    -35.34      0.00
   10   21    3    -39.89      0.00
   12   21    3    -16.60      0.00
   14   21    3     -1.52      0.00
   16   21    3     -2.30      0.00
   18   21    3      1.33      0.00
   20   21    3     11.14      0.00
  -21   22    3     -4.32      0.00
  -19   22    3      4.02      0.00
  -17   22    3     10.82      0.00
  -15   22    3     15.88      0.00
  -13   22    3     26.12      0.00
  -11   22    3     17.85      0.00
   -9   22    3     -9.33      0.00
   -7   22    3     -9.04      0.00
   -5   22    3     18.86      0.00
   -3   22    3     29.52      0.00
   -1   22    3     21.39      0.00
    1   22    3     12.44      0.00
    3   22    3      1.16      0.00
    5   22    3      3.31      0.00
    7   22    3     30.32      0.00
    9   22    3     43.44      0.00
   11   22    3     20.16      0.00
   13   22    3     -3.96      0.00
   15   22    3     -5.49      0.00
   17   22    3      3.98      0.00
   19   22    3     12.23      0.00
   21   22    3     14.20      0.00
  -22   23    3      3.89      0.00
  -20   23    3      3.27      0.00
  -18   23    3      1.62      0.00
  -16   23    3      0.01      0.00
  -14   23    3     14.01      0.00
  -12   23    3     31.55      0.00
  -10   23    3     30.40      0.00
   -8   23    3     26.60      0.00
   -6   23    3     25.77      0.00
   -4   23    3     12.79      0.00
   -2   23    3      5.18      0.00
    0   23    3      8.57      0.00
    2   23    3      7.39      0.00
    4   23    3      3.40      0.00
    6   23    3     12.39      0.00
    8   23    3     31.89      0.00
   10   23    3     28.58      0.00
   12   23    3      3.96      0.00
   14   23    3    -10.19      0.00
   16   23    3     -8.13      0.00
   18   23    3     -4.35      0.00
   20   23    3     -5.83      0.00
   22   23    3      0.69      0.00
  -23   24    3     -6.30      0.00
  -21   24    3     -5.29      0.00
  -19   24    3     -8.61      0.00
  -17   24    3     -8.81      0.00
  -15   24    3    -10.71      0.00
  -13   24    3    -26.61      0.00
  -11   24    3    -31.20      0.00
   -9   24    3     -8.11      0.00
   -7   24    3      5.42      0.00
   -5   24    3     -7.26      0.00
   -3   24    3    -18.25      0.00
   -1   24    3    -17.16      0.00
    1   24    3    -12.01      0.00
    3   24    3      5.44      0.00
    5   24    3     23.35      0.00
    7   24    3     11.90      0.00
    9   24    3     -5.68      0.00
   11   24    3     -1.54      0.00
   13   24    3      5.89      0.00
   15   24    3      8.00      0.00
   17   24    3      6.30      0.00
   19   24    3     -4.79      0.00
   21   24    3    -17.38      0.00
   23   24    3    -13.94      0.00
  -24   25    3      6.22      0.00
  -22   25    3     14.95      0.00
  -20   25    3      8.54      0.00
  -18   25    3     -0.59      0.00
  -16   25    3     -3.94      0.00
  -14   25    3    -11.53      0.00
  -12   25    3    -21.85      0.00
  -10   25    3    -20.95      0.00
   -8   25    3    -13.79      0.00
   -6   25    3     -5.69      0.00
   -4   25    3      8.51      0.00
   -2   25    3     14.66      0.00
    0   25    3      6.44      0.00
    2   25    3     -0.50      0.00
    4   25    3      5.47      0.00
    6   25    3      9.26      0.00
    8   25    3     -0.80      0.00
   10   25    3     -1.63      0.00
   12   25    3      7.49      0.00
   14   25    3      7.77      0.00
   16   25    3     -0.09      0.00
   18   25    3     -7.03      0.00
   20   25    3     -7.18      0.00
   22   25    3     -7.26      0.00
   24   25    3     -4.97      0.00
  -25   26    3     -1.02      0.00
  -23   26    3     -0.33      0.00
  -21   26    3      1.19      0.00
  -19   26    3      1.20      0.00
  -17   26    3     -4.02      0.00
  -15   26    3     -7.40      0.00
  -13   26    3      5.58      0.00
  -11   26    3     14.96      0.00
   -9   26    3     -1.92      0.00
   -7   26    3    -20.70      0.00
   -5   26    3    -21.70      0.00
   -3   26    3    -13.37      0.00
   -1   26    3     -3.99      0.00
    1   26    3      3.96      0.00
    3   26    3     -2.79      0.00
    5   26    3    -21.55      0.00
    7   26    3    -18.68      0.00
    9   26    3     -0.26      0.00
   11   26    3      9.12      0.00
   13   26    3     15.29      0.00
   15   26    3     12.97      0.00
   17   26    3      2.25      0.00
   19   26    3      2.90      0.00
   21   26    3     14.54      0.00
   23   26    3     15.80      0.00
   25   26    3     -0.82      0.00
  -26   27    3    -12.03      0.00
  -24   27    3    -15.13      0.00
  -22   27    3    -18.29      0.00
  -20   27    3     -7.02      0.00
  -18   27    3      5.81      0.00
  -16   27    3      9.13      0.00
  -14   27    3     10.19      0.00
  -12   27    3     12.06      0.00
  -10   27    3      9.53      0.00
   -8   27    3      5.44      0.00
   -6   27    3      0.91      0.00
   -4   27    3     -7.67      0.00
   -2   27    3     -9.77      0.00
    0   27    3      0.70      0.00
    2   27    3     10.34      0.00
    4   27    3      3.15      0.00
    6   27    3     -7.48      0.00
    8   27    3     -3.69      0.00
   10   27    3      0.49      0.00
   12   27    3      0.77      0.00
   14   27    3      3.97      0.00
   16   27    3      7.79      0.00
   18   27    3      9.40      0.00
   20   27    3      7.14      0.00
   22   27    3      3.29      0.00
   24   27    3     -2.41      0.00
   26   27    3     -3.55      0.00
  -27   28    3     -2.89      0.00
  -25   28    3     -0.03      0.00
  -23   28    3      1.69      0.00
  -21   28    3     -4.76      0.00
  -19   28    3     -7.46      0.00
  -17   28    3     -2.03      0.00
  -15   28    3      4.85      0.00
  -13   28    3     -0.80      0.00
  -11   28    3    -11.63      0.00
   -9   28    3     -8.80      0.00
   -7   28    3     -2.28      0.00
   -5   28    3     -0.36      0.00
   -3   28    3     -2.98      0.00
   -1   28    3    -13.04      0.00
    1   28    3    -25.98      0.00
    3   28    3    -26.28      0.00
    5   28    3     -8.82      0.00
    7   28    3      0.75      0.00
    9   28    3     -3.58      0.00
   11   28    3     -8.92      0.00
   13   28    3    -16.27      0.00
   15   28    3    -13.75      0.00
   17   28    3      1.83      0.00
   19   28    3     10.20      0.00
   21   28    3      3.48      0.00
   23   28    3     -2.80      0.00
   25   28    3      4.05      0.00
   27   28    3     11.08      0.00
  -26   29    3      4.29      0.00
  -24   29    3      2.73      0.00
  -22   29    3      3.72      0.00
  -20   29    3     -3.12      0.00
  -18   29    3    -10.36      0.00
  -16   29    3    -10.66      0.00
  -14   29    3     -9.60      0.00
  -12   29    3     -9.02      0.00
  -10   29    3     -6.45      0.00
   -8   29    3     -8.40      0.00
   -6   29    3    -14.89      0.00
   -4   29    3    -15.01      0.00
   -2   29    3    -11.61      0.00
    0   29    3    -14.50      0.00
    2   29    3    -18.33      0.00
    4   29    3     -9.78      0.00
    6   29    3      1.51      0.00
    8   29    3      2.14      0.00
   10   29    3     -0.32      0.00
   12   29    3     -1.75      0.00
   14   29    3     -2.63      0.00
   16   29    3     -3.79      0.00
   18   29    3     -4.55      0.00
   20   29    3     -3.69      0.00
   22   29    3     -0.96      0.00
   24   29    3      5.75      0.00
   26   29    3      6.81      0.00
  -25   30    3      2.19      0.00
  -23   30    3     -0.51      0.00
  -21   30    3      6.92      0.00
  -19   30    3     10.32      0.00
  -17   30    3      6.66      0.00
  -15   30    3      0.52      0.00
  -13   30    3     -1.99      0.00
  -11   30    3      3.14      0.00
   -9   30    3      7.95      0.00
   -7   30    3     11.97      0.00
   -5   30    3     10.92      0.00
   -3   30    3      2.83      0.00
   -1   30    3      1.48      0.00
    1   30    3     10.30      0.00
    3   30    3     14.71      0.00
    5   30    3      5.57      0.00
    7   30    3     -5.27      0.00
    9   30    3    -10.72      0.00
   11   30    3     -9.92      0.00
   13   30    3     -1.18      0.00
   15   30    3      3.10      0.00
   17   30    3     -2.73      0.00
   19   30    3     -9.84      0.00
   21   30    3     -8.32      0.00
   23   30    3     -0.98      0.00
   25   30    3     -0.39      0.00
  -24   31    3      5.05      0.00
  -22   31    3      2.38      0.00
  -20   31    3      0.61      0.00
  -18   31    3     -0.62      0.00
  -16   31    3     -3.60      0.00
  -14   31    3     -4.96      0.00
  -12   31    3     -4.51      0.00
  -10   31    3     -6.40      0.00
   -8   31    3     -2.48      0.00
   -6   31    3     10.71      0.00
   -4   31    3     16.52      0.00
   -2   31    3      8.89      0.00
    0   31    3      3.63      0.00
    2   31    3      4.62      0.00
    4   31    3      1.11      0.00
    6   31    3     -2.02      0.00
    8   31    3     -2.11      0.00
   10   31    3     -2.18      0.00
   12   31    3     -0.92      0.00
   14   31    3     -1.60      0.00
   16   31    3     -0.22      0.00
   18   31    3      1.69      0.00
   20   31    3      1.12      0.00
   22   31    3      0.12      0.00
   24   31    3     -4.53      0.00
  -23   32    3      4.57      0.00
  -21   32    3      2.43      0.00
  -19   32    3      2.63      0.00
  -17   32    3      4.13      0.00
  -15   32    3      4.61      0.00
  -13   32    3     11.06      0.00
  -11   32    3     15.74      0.00
   -9   32    3     12.79      0.00
   -7   32    3      5.19      0.00
   -5   32    3      0.10      0.00
   -3   32    3      6.42      0.00
   -1   32    3     13.55      0.00
    1   32    3      8.34      0.00
    3   32    3     -0.30      0.00
    5   32    3     -4.57      0.00
    7   32    3     -4.60      0.00
    9   32    3      1.88      0.00
   11   32    3      4.85      0.00
   13   32    3     -1.10      0.00
   15   32    3     -6.61      0.00
   17   32    3     -9.59      0.00
   19   32    3     -6.36      0.00
   21   32    3     -1.08      0.00
   23   32    3     -3.05      0.00
  -20   33    3      2.83      0.00
  -18   33    3      7.10      0.00
  -16   33    3      9.39      0.00
  -14   33    3      8.57      0.00
  -12   33    3      4.71      0.00
  -10   33    3      4.88      0.00
   -8   33    3      4.93      0.00
   -6   33    3     -4.65      0.00
   -4   33    3    -12.51      0.00
   -2   33    3     -5.83      0.00
    0   33    3     -1.15      0.00
    2   33    3     -5.65      0.00
    4   33    3     -7.05      0.00
    6   33    3    -10.19      0.00
    8   33    3    -10.15      0.00
   10   33    3     -5.42      0.00
   12   33    3     -4.14      0.00
   14   33    3      0.84      0.00
   16   33    3      3.42      0.00
   18   33    3      3.14      0.00
   20   33    3      4.69      0.00
  -19   34    3     -4.64      0.00
  -17   34    3     -3.98      0.00
  -15   34    3      1.93      0.00
  -13   34    3     -1.30      0.00
  -11   34    3     -9.87      0.00
   -9   34    3     -9.78      0.00
   -7   34    3     -3.35      0.00
   -5   34    3      8.32      0.00
   -3   34    3     13.15      0.00
   -1   34    3      6.06      0.00
    1   34    3      4.78      0.00
    3   34    3      9.65      0.00
    5   34    3     17.12      0.00
    7   34    3     22.67      0.00
    9   34    3     12.68      0.00
   11   34    3      0.16      0.00
   13   34    3     -4.44      0.00
   15   34    3     -6.62      0.00
   17   34    3     -0.34      0.00
   19   34    3      4.63      0.00
  -18   35    3     -1.75      0.00
  -16   35    3     -2.26      0.00
  -14   35    3      0.42      0.00
  -12   35    3      6.23      0.00
  -10   35    3      7.73      0.00
   -8   35    3      2.87      0.00
   -6   35    3      3.95      0.00
   -4   35    3     11.19      0.00
   -2   35    3      7.68      0.00
    0   35    3      5.62      0.00
    2   35    3     12.99      0.00
    4   35    3     13.30      0.00
    6   35    3     15.45      0.00
    8   35    3     14.17      0.00
   10   35    3      5.87      0.00
   12   35    3      4.00      0.00
   14   35    3     -1.63      0.00
   16   35    3     -5.96      0.00
   18   35    3     -4.83      0.00
  -15   36    3     -6.68      0.00
  -13   36    3     -6.77      0.00
  -11   36    3      1.75      0.00
   -9   36    3      4.99      0.00
   -7   36    3      4.89      0.00
   -5   36    3     -5.14      0.00
   -3   36    3    -17.36      0.00
   -1   36    3    -11.65      0.00
    1   36    3     -4.36      0.00
    3   36    3     -3.76      0.00
    5   36    3     -8.61      0.00
    7   36    3    -16.32      0.00
    9   36    3     -8.07      0.00
   11   36    3      5.92      0.00
   13   36    3     13.40      0.00
   15   36    3     19.09      0.00
  -12   37    3     -6.33      0.00
  -10   37    3     -8.59      0.00
   -8   37    3     -1.98      0.00
   -6   37    3      4.83      0.00
   -4   37    3      2.15      0.00
   -2   37    3      6.55      0.00
    0   37    3      8.62      0.00
    2   37    3     -3.06      0.00
    4   37    3     -5.37      0.00
    6   37    3     -7.02      0.00
    8   37    3     -7.57      0.00
   10   37    3     -0.67      0.00
   12   37    3     -2.42      0.00
   -9   38    3     -9.63      0.00
   -7   38    3    -12.63      0.00
   -5   38    3     -7.23      0.00
   -3   38    3      5.24      0.00
   -1   38    3      0.56      0.00
    1   38    3     -7.78      0.00
    3   38    3     -8.44      0.00
    5   38    3     -4.57      0.00
    7   38    3      5.27      0.00
    9   38    3      4.96      0.00
   -4   39    3     -8.35      0.00
   -2   39    3    -13.11      0.00
    0   39    3    -15.64      0.00
    2   39    3     -0.55      0.00
    4   39    3      4.44      0.00
    0    0    4   -508.21      0.00
    1    1    4     17.77      0.00
    0    2    4    255.42      0.00
    2    2    4     49.83      0.00
   -1    3    4     69.22      0.00
    1    3    4    -14.15      0.00
    3    3    4   -104.13      0.00
   -2    4    4    184.81      0.00
    0    4    4     -4.51      0.00
    2    4    4     48.02      0.00
    4    4    4    153.76      0.00
   -3    5    4    -85.03      0.00
   -1    5    4    -47.86      0.00
    1    5    4     19.57      0.00
    3    5    4    110.17      0.00
    5    5    4    109.68      0.00
   -4    6    4    -36.47      0.00
   -2    6    4   -118.62      0.00
    0    6    4     37.95      0.00
    2    6    4     72.98      0.00
    4    6    4     29.74      0.00
    6    6    4    119.00      0.00
   -5    7    4     28.62      0.00
   -3    7    4      9.46      0.00
   -1    7    4     16.54      0.00
    1    7    4     18.47      0.00
    3    7    4    -39.32      0.00
    5    7    4    -67.23      0.00
    7    7    4    -17.69      0.00
   -6    8    4   -120.48      0.00
   -4    8    4     -5.58      0.00
   -2    8    4    102.01      0.00
    0    8    4     17.41      0.00
    2    8    4    -20.26      0.00
    4    8    4      7.46      0.00
    6    8    4    -57.34      0.00
    8    8    4    -60.94      0.00
   -7    9    4     12.36      0.00
   -5    9    4      6.80      0.00
   -3    9    4      9.48      0.00
   -1    9    4    -29.89      0.00
    1    9    4    -78.50      0.00
    3    9    4    -41.60      0.00
    5    9    4     22.32      0.00
    7    9    4     18.82      0.00
    9    9    4      1.10      0.00
   -8   10    4    -25.51      0.00
   -6   10    4     32.56      0.00
   -4   10    4    -17.05      0.00
   -2   10    4    -98.75      0.00
    0   10    4    -58.91      0.00
    2   10    4    -33.08      0.00
    4   10    4    -49.66      0.00
    6   10    4      9.44      0.00
    8   10    4     41.77      0.00
   10   10    4     -8.83      0.00
   -9   11    4     15.74      0.00
   -7   11    4     18.51      0.00
   -5   11    4     24.79      0.00
   -3   11    4     10.79      0.00
   -1   11    4     27.95      0.00
    1   11    4     70.88      0.00
    3   11    4     43.12      0.00
    5   11    4    -32.17      0.00
    7   11    4    -50.34      0.00
    9   11    4    -32.48      0.00
   11   11    4    -21.71      0.00
  -10   12    4     11.50      0.00
   -8   12    4     22.59      0.00
   -6   12    4    -54.23      0.00
   -4   12    4    -76.09      0.00
   -2   12    4    -35.89      0.00
    0   12    4    -42.66      0.00
    2   12    4    -38.50      0.00
    4   12    4     -6.01      0.00
    6   12    4    -36.44      0.00
    8   12    4    -72.33      0.00
   10   12    4    -46.07      0.00
   12   12    4    -27.64      0.00
  -11   13    4     -4.89      0.00
   -9   13    4    -29.08      0.00
   -7   13    4    -52.18      0.00
   -5   13    4    -54.28      0.00
   -3   13    4    -12.85      0.00
   -1   13    4      9.20      0.00
    1   13    4    -21.32      0.00
    3   13    4    -23.23      0.00
    5   13    4     21.80      0.00
    7   13    4     34.90      0.00
    9   13    4     18.70      0.00
   11   13    4      1.97      0.00
   13   13    4    -25.40      0.00
  -12   14    4     14.83      0.00
  -10   14    4      9.47      0.00
   -8   14    4     -0.14      0.00
   -6   14    4     53.21      0.00
   -4   14    4     87.36      0.00
   -2   14    4     57.41      0.00
    0   14    4     34.98      0.00
    2   14    4     10.24      0.00
    4   14    4    -29.54      0.00
    6   14    4    -19.47      0.00
    8   14    4     19.76      0.00
   10   14    4     28.89      0.00
   12   14    4     22.77      0.00
   14   14    4     -3.05      0.00
  -13   15    4    -28.70      0.00
  -11   15    4      7.23      0.00
   -9   15    4     40.73      0.00
   -7   15    4     64.77      0.00
   -5   15    4     59.11      0.00
   -3   15    4      0.88      0.00
   -1   15    4    -44.13      0.00
    1   15    4    -17.84      0.00
    3   15    4     17.31      0.00
    5   15    4     13.11      0.00
    7   15    4      9.43      0.00
    9   15    4     10.92      0.00
   11   15    4      8.37      0.00
   13   15    4     21.72      0.00
   15   15    4     25.95      0.00
  -14   16    4     33.30      0.00
  -12   16    4      8.93      0.00
  -10   16    4     -4.14      0.00
   -8   16    4     20.93      0.00
   -6   16    4     21.55      0.00
   -4   16    4      7.45      0.00
   -2   16    4     23.12      0.00
    0   16    4     32.58      0.00
    2   16    4     31.12      0.00
    4   16    4     42.77      0.00
    6   16    4     35.63      0.00
    8   16    4      3.05      0.00
   10   16    4    -26.38      0.00
   12   16    4    -38.18      0.00
   14   16    4    -12.33      0.00
   16   16    4     23.10      0.00
  -15   17    4      3.95      0.00
  -13   17    4      2.25      0.00
  -11   17    4    -22.52      0.00
   -9   17    4    -36.97      0.00
   -7   17    4    -43.12      0.00
   -5   17    4    -36.19      0.00
   -3   17    4     13.91      0.00
   -1   17    4     60.45      0.00
    1   17    4     41.45      0.00
    3   17    4     -2.89      0.00
    5   17    4    -21.36      0.00
    7   17    4    -22.91      0.00
    9   17    4     -9.62      0.00
   11   17    4     12.21      0.00
   13   17    4     12.92      0.00
   15   17    4      2.47      0.00
   17   17    4      5.17      0.00
  -16   18    4    -11.21      0.00
  -14   18    4    -13.91      0.00
  -12   18    4      7.55      0.00
  -10   18    4     33.18      0.00
   -8   18    4     12.54      0.00
   -6   18    4    -15.44      0.00
   -4   18    4     -9.84      0.00
   -2   18    4      1.03      0.00
    0   18    4     19.60      0.00
    2   18    4     47.52      0.00
    4   18    4     51.26      0.00
    6   18    4     33.75      0.00
    8   18    4     21.25      0.00
   10   18    4     29.72      0.00
   12   18    4     43.26      0.00
   14   18    4     23.83      0.00
   16   18    4    -11.12      0.00
   18   18    4    -11.72      0.00
  -17   19    4      7.81      0.00
  -15   19    4     10.28      0.00
  -13   19    4      8.00      0.00
  -11   19    4     11.40      0.00
   -9   19    4      1.22      0.00
   -7   19    4     -6.67      0.00
   -5   19    4      0.02      0.00
   -3   19    4    -18.21      0.00
   -1   19    4    -46.96      0.00
    1   19    4    -35.51      0.00
    3   19    4     -3.36      0.00
    5   19    4     16.46      0.00
    7   19    4     21.50      0.00
    9   19    4      7.60      0.00
   11   19    4    -14.59      0.00
   13   19    4    -17.32      0.00
   15   19    4     -2.67      0.00
   17   19    4      6.30      0.00
   19   19    4     11.50      0.00
  -18   20    4     -6.20      0.00
  -16   20    4    -16.01      0.00
  -14   20    4    -13.32      0.00
  -12   20    4    -19.98      0.00
  -10   20    4    -46.55      0.00
   -8   20    4    -42.72      0.00
   -6   20    4    -13.25      0.00
   -4   20    4    -12.22      0.00
   -2   20    4    -28.65      0.00
    0   20    4    -45.80      0.00
    2   20    4    -66.06      0.00
    4   20    4    -64.52      0.00
    6   20    4    -26.38      0.00
    8   20    4     18.55      0.00
   10   20    4     22.96      0.00
   12   20    4     -3.37      0.00
   14   20    4     -9.65      0.00
   16   20    4      5.49      0.00
   18   20    4      8.10      0.00
   20   20    4     -1.56      0.00
  -19   21    4     11.45      0.00
  -17   21    4     -7.09      0.00
  -15   21    4    -10.72      0.00
  -13   21    4     -4.27      0.00
  -11   21    4      3.53      0.00
   -9   21    4     21.74      0.00
   -7   21    4     29.96      0.00
   -5   21    4      7.58      0.00
   -3   21    4     -4.57      0.00
   -1   21    4      5.19      0.00
    1   21    4      2.40      0.00
    3   21    4     -6.83      0.00
    5   21    4    -11.50      0.00
    7   21    4    -14.83      0.00
    9   21    4     -9.27      0.00
   11   21    4      1.21      0.00
   13   21    4      1.15      0.00
   15   21    4     -8.25      0.00
   17   21    4    -13.77      0.00
   19   21    4    -19.66      0.00
   21   21    4    -20.88      0.00
  -20   22    4      0.24      0.00
  -18   22    4      4.44      0.00
  -16   22    4     12.54      0.00
  -14   22    4      3.75      0.00
  -12   22    4     -9.65      0.00
  -10   22    4      2.75      0.00
   -8   22    4      7.91      0.00
   -6   22    4    -13.67      0.00
   -4   22    4    -21.21      0.00
   -2   22    4    -14.04      0.00
    0   22    4     -9.96      0.00
    2   22    4      0.21      0.00
    4   22    4      8.87      0.00
    6   22    4    -10.90      0.00
    8   22    4    -45.76      0.00
   10   22    4    -42.77      0.00
   12   22    4     -7.44      0.00
   14   22    4     12.71      0.00
   16   22    4     11.10      0.00
   18   22    4      5.68      0.00
   20   22    4      3.03      0.00
   22   22    4     -3.31      0.00
  -21   23    4     -4.84      0.00
  -19   23    4      0.18      0.00
  -17   23    4      8.97      0.00
  -15   23    4      8.59      0.00
  -13   23    4      4.88      0.00
  -11   23    4      0.40      0.00
   -9   23    4    -14.33      0.00
   -7   23    4    -22.67      0.00
   -5   23    4     -2.21      0.00
   -3   23    4     17.39      0.00
   -1   23    4     14.79      0.00
    1   23    4      9.91      0.00
    3   23    4      1.74      0.00
    5   23    4     -8.74      0.00
    7   23    4     -8.41      0.00
    9   23    4     -3.13      0.00
   11   23    4      0.61      0.00
   13   23    4      4.48      0.00
   15   23    4      5.48      0.00
   17   23    4      1.66      0.00
   19   23    4      6.01      0.00
   21   23    4     13.71      0.00
   23   23    4      5.17      0.00
  -22   24    4      0.94      0.00
  -20   24    4     -2.31      0.00
  -18   24    4     -4.79      0.00
  -16   24    4    -11.38      0.00
  -14   24    4     -2.54      0.00
  -12   24    4     18.83      0.00
  -10   24    4     16.47      0.00
   -8   24    4      3.17      0.00
   -6   24    4      6.17      0.00
   -4   24    4      7.35      0.00
   -2   24    4      4.72      0.00
    0   24    4      8.18      0.00
    2   24    4      2.83      0.00
    4   24    4    -17.08      0.00
    6   24    4    -19.41      0.00
    8   24    4      3.00      0.00
   10   24    4      5.17      0.00
   12   24    4    -12.40      0.00
   14   24    4    -18.78      0.00
   16   24    4    -15.55      0.00
   18   24    4     -7.45      0.00
   20   24    4      3.88      0.00
   22   24    4     13.66      0.00
   24   24    4      9.09      0.00
  -23   25    4     -8.24      0.00
  -21   25    4     -9.64      0.00
  -19   25    4     -4.76      0.00
  -17   25    4     -0.84      0.00
  -15   25    4      3.53      0.00
  -13   25    4      0.20      0.00
  -11   25    4     -5.32      0.00
   -9   25    4      3.77      0.00
   -7   25    4     16.53      0.00
   -5   25    4     10.22      0.00
   -3   25    4     -2.75      0.00
   -1   25    4     -3.89      0.00
    1   25    4     -1.25      0.00
    3   25    4      6.39      0.00
    5   25    4     17.71      0.00
    7   25    4     16.29      0.00
    9   25    4      2.96      0.00
   11   25    4     -9.83      0.00
   13   25    4    -15.55      0.00
   15   25    4     -9.71      0.00
   17   25    4      3.03      0.00
   19   25    4      2.89      0.00
   21   25    4     -9.10      0.00
   23   25    4    -10.81      0.00
   25   25    4     -1.13      0.00
  -24   26    4      7.32      0.00
  -22   26    4     11.37      0.00
  -20   26    4     10.31      0.00
  -18   26    4      9.94      0.00
  -16   26    4     14.93      0.00
  -14   26    4      9.62      0.00
  -12   26    4     -7.95      0.00
  -10   26    4     -6.62      0.00
   -8   26    4     10.64      0.00
   -6   26    4     19.93      0.00
   -4   26    4     24.59      0.00
   -2   26    4     22.24      0.00
    0   26    4     10.06      0.00
    2   26    4      4.74      0.00
    4   26    4     19.72      0.00
    6   26    4     28.51      0.00
    8   26    4     12.98      0.00
   10   26    4      4.81      0.00
   12   26    4      5.93      0.00
   14   26    4      1.27      0.00
   16   26    4      1.02      0.00
   18   26    4      1.54      0.00
   20   26    4     -5.31      0.00
   22   26    4    -12.19      0.00
   24   26    4     -6.26      0.00
   26   26    4      6.55      0.00
  -25   27    4      5.54      0.00
  -23   27    4     10.36      0.00
  -21   27    4     12.28      0.00
  -19   27    4      4.10      0.00
  -17   27    4     -5.97      0.00
  -15   27    4    -13.42      0.00
  -13   27    4     -8.11      0.00
  -11   27    4      4.84      0.00
   -9   27    4      3.97      0.00
   -7   27    4     -8.10      0.00
   -5   27    4    -11.90      0.00
   -3   27    4     -5.56      0.00
   -1   27    4      0.70      0.00
    1   27    4      5.90      0.00
    3   27    4      6.35      0.00
    5   27    4     -1.30      0.00
    7   27    4     -3.95      0.00
    9   27    4      4.78      0.00
   11   27    4     15.66      0.00
   13   27    4     21.13      0.00
   15   27    4     14.54      0.00
   17   27    4     -0.62      0.00
   19   27    4     -5.31      0.00
   21   27    4      3.99      0.00
   23   27    4     10.83      0.00
   25   27    4      5.14      0.00
   27   27    4     -5.28      0.00
  -26   28    4     -8.75      0.00
  -24   28    4    -10.68      0.00
  -22   28    4     -7.13      0.00
  -20   28    4      1.54      0.00
  -18   28    4      5.42      0.00
  -16   28    4      2.18      0.00
  -14   28    4      4.25      0.00
  -12   28    4     15.12      0.00
  -10   28    4     14.20      0.00
   -8   28    4      4.86      0.00
   -6   28    4      0.97      0.00
   -4   28    4     -3.15      0.00
   -2   28    4     -2.55      0.00
    0   28    4      7.72      0.00
    2   28    4     16.45      0.00
    4   28    4      8.33      0.00
    6   28    4     -3.44      0.00
    8   28    4     -1.83      0.00
   10   28    4     -2.30      0.00
   12   28    4     -2.94      0.00
   14   28    4      2.22      0.00
   16   28    4     -0.35      0.00
   18   28    4     -7.31      0.00
   20   28    4     -6.65      0.00
   22   28    4     -1.59      0.00
   24   28    4     -3.73      0.00
   26   28    4     -7.80      0.00
  -25   29    4     -2.16      0.00
  -23   29    4     -3.57      0.00
  -21   29    4    -11.17      0.00
  -19   29    4    -10.20      0.00
  -17   29    4     -3.25      0.00
  -15   29    4      4.54      0.00
  -13   29    4      4.22      0.00
  -11   29    4     -7.56      0.00
   -9   29    4    -12.51      0.00
   -7   29    4     -2.55      0.00
   -5   29    4      9.20      0.00
   -3   29    4     11.21      0.00
   -1   29    4      4.42      0.00
    1   29    4     -4.89      0.00
    3   29    4    -10.28      0.00
    5   29    4     -4.92      0.00
    7   29    4      3.98      0.00
    9   29    4      4.78      0.00
   11   29    4     -1.04      0.00
   13   29    4     -8.30      0.00
   15   29    4     -7.39      0.00
   17   29    4      2.93      0.00
   19   29    4      9.31      0.00
   21   29    4      5.39      0.00
   23   29    4     -3.75      0.00
   25   29    4     -5.77      0.00
  -24   30    4      5.41      0.00
  -22   30    4      0.40      0.00
  -20   30    4     -6.11      0.00
  -18   30    4     -6.04      0.00
  -16   30    4     -2.02      0.00
  -14   30    4     -2.10      0.00
  -12   30    4     -6.82      0.00
  -10   30    4     -4.79      0.00
   -8   30    4     -3.83      0.00
   -6   30    4     -9.28      0.00
   -4   30    4     -5.62      0.00
   -2   30    4      4.04      0.00
    0   30    4      5.47      0.00
    2   30    4     -0.87      0.00
    4   30    4     -1.90      0.00
    6   30    4      2.69      0.00
    8   30    4      7.58      0.00
   10   30    4     15.27      0.00
   12   30    4     15.98      0.00
   14   30    4      8.54      0.00
   16   30    4      4.76      0.00
   18   30    4      7.12      0.00
   20   30    4      8.63      0.00
   22   30    4      4.88      0.00
   24   30    4      3.10      0.00
  -23   31    4     -2.37      0.00
  -21   31    4      7.11      0.00
  -19   31    4     12.20      0.00
  -17   31    4     11.35      0.00
  -15   31    4      7.90      0.00
  -13   31    4      2.51      0.00
  -11   31    4      4.78      0.00
   -9   31    4      8.50      0.00
   -7   31    4     -0.16      0.00
   -5   31    4    -14.26      0.00
   -3   31    4    -19.67      0.00
   -1   31    4    -14.11      0.00
    1   31    4     -5.33      0.00
    3   31    4      1.91      0.00
    5   31    4      1.75      0.00
    7   31    4     -5.22      0.00
    9   31    4     -8.85      0.00
   11   31    4     -5.37      0.00
   13   31    4      4.04      0.00
   15   31    4      8.86      0.00
   17   31    4      4.96      0.00
   19   31    4     -0.65      0.00
   21   31    4     -3.51      0.00
   23   31    4      1.35      0.00
  -22   32    4     -6.21      0.00
  -20   32    4     -8.14      0.00
  -18   32    4    -13.19      0.00
  -16   32    4    -15.67      0.00
  -14   32    4    -14.15      0.00
  -12   32    4    -13.40      0.00
  -10   32    4    -18.25      0.00
   -8   32    4    -17.03      0.00
   -6   32    4     -5.91      0.00
   -4   32    4     -3.98      0.00
   -2   32    4    -15.44      0.00
    0   32    4    -21.64      0.00
    2   32    4    -14.70      0.00
    4   32    4     -3.97      0.00
    6   32    4      5.33      0.00
    8   32    4      4.15      0.00
   10   32    4     -5.83      0.00
   12   32    4     -7.49      0.00
   14   32    4     -2.94      0.00
   16   32    4      2.07      0.00
   18   32    4      3.06      0.00
   20   32    4     -2.09      0.00
   22   32    4     -3.02      0.00
  -21   33    4     -2.66      0.00
  -19   33    4     -7.39      0.00
  -17   33    4     -8.69      0.00
  -15   33    4     -9.69      0.00
  -13   33    4     -2.29      0.00
  -11   33    4      4.13      0.00
   -9   33    4      1.27      0.00
   -7   33    4      2.36      0.00
   -5   33    4      7.72      0.00
   -3   33    4      8.45      0.00
   -1   33    4      5.90      0.00
    1   33    4      4.92      0.00
    3   33    4      0.94      0.00
    5   33    4     -4.20      0.00
    7   33    4     -3.03      0.00
    9   33    4      0.98      0.00
   11   33    4      2.11      0.00
   13   33    4     -3.79      0.00
   15   33    4     -8.94      0.00
   17   33    4     -8.95      0.00
   19   33    4     -6.55      0.00
   21   33    4     -0.64      0.00
  -18   34    4     10.36      0.00
  -16   34    4      9.50      0.00
  -14   34    4      5.60      0.00
  -12   34    4      5.75      0.00
  -10   34    4     11.23      0.00
   -8   34    4     11.38      0.00
   -6   34    4      0.65      0.00
   -4   34    4     -8.61      0.00
   -2   34    4     -3.25      0.00
    0   34    4      2.66      0.00
    2   34    4     -1.58      0.00
    4   34    4     -8.48      0.00
    6   34    4    -18.99      0.00
    8   34    4    -18.09      0.00
   10   34    4     -4.46      0.00
   12   34    4      1.06      0.00
   14   34    4      3.86      0.00
   16   34    4      3.31      0.00
   18   34    4     -0.59      0.00
  -17   35    4      3.74      0.00
  -15   35    4      6.06      0.00
  -13   35    4      1.46      0.00
  -11   35    4     -6.24      0.00
   -9   35    4     -2.32      0.00
   -7   35    4      3.57      0.00
   -5   35    4      5.99      0.00
   -3   35    4      9.07      0.00
   -1   35    4      7.65      0.00
    1   35    4     -0.64      0.00
    3   35    4     -1.79      0.00
    5   35    4      5.79      0.00
    7   35    4      7.46      0.00
    9   35    4      1.62      0.00
   11   35    4     -5.50      0.00
   13   35    4     -5.98      0.00
   15   35    4     -3.33      0.00
   17   35    4     -1.16      0.00
  -14   36    4      3.38      0.00
  -12   36    4      2.41      0.00
  -10   36    4     -2.72      0.00
   -8   36    4     -5.84      0.00
   -6   36    4     -1.59      0.00
   -4   36    4      8.75      0.00
   -2   36    4      6.97      0.00
    0   36    4      0.69      0.00
    2   36    4      2.19      0.00
    4   36    4      0.73      0.00
    6   36    4      5.61      0.00
    8   36    4      6.78      0.00
   10   36    4     -3.06      0.00
   12   36    4     -5.07      0.00
   14   36    4     -8.13      0.00
  -11   37    4      6.39      0.00
   -9   37    4      3.53      0.00
   -7   37    4     -3.96      0.00
   -5   37    4     -9.66      0.00
   -3   37    4    -15.61      0.00
   -1   37    4    -15.26      0.00
    1   37    4     -3.47      0.00
    3   37    4      2.62      0.00
    5   37    4     -3.23      0.00
    7   37    4     -5.16      0.00
    9   37    4     -0.89      0.00
   11   37    4      4.93      0.00
   -8   38    4      8.14      0.00
   -6   38    4     10.23      0.00
   -4   38    4      3.83      0.00
   -2   38    4      6.49      0.00
    0   38    4     12.74      0.00
    2   38    4      7.21      0.00
    4   38    4      8.36      0.00
    6   38    4      6.27      0.00
    8   38    4      0.64      0.00
   -3   39    4     14.04      0.00
   -1   39    4     15.63      0.00
    1   39    4      5.46      0.00
    3   39    4     -3.03      0.00
    0    1    5   -264.56      0.00
   -1    2    5   -145.64      0.00
    1    2    5   -133.94      0.00
   -2    3    5    -62.08      0.00
    0    3    5     63.63      0.00
    2    3    5     22.47      0.00
   -3    4    5    -70.08      0.00
   -1    4    5     -8.72      0.00
    1    4    5     24.08      0.00
    3    4    5    -90.72      0.00
   -4    5    5     45.86      0.00
   -2    5    5     58.87      0.00
    0    5    5    -47.23      0.00
    2    5    5    -68.63      0.00
    4    5    5    -43.27      0.00
   -5    6    5    -62.36      0.00
   -3    6    5     62.55      0.00
   -1    6    5     19.40      0.00
    1    6    5    -65.80      0.00
    3    6    5    -13.46      0.00
    5    6    5    -42.41      0.00
   -6    7    5    139.86      0.00
   -4    7    5     78.48      0.00
   -2    7    5     19.74      0.00
    0    7    5     50.97      0.00
    2    7    5     57.85      0.00
    4    7    5     54.18      0.00
    6    7    5     80.11      0.00
   -7    8    5     39.54      0.00
   -5    8    5     27.81      0.00
   -3    8    5    -72.77      0.00
   -1    8    5    -36.12      0.00
    1    8    5     65.55      0.00
    3    8    5     33.40      0.00
    5    8    5     18.01      0.00
    7    8    5     75.97      0.00
   -8    9    5    -49.04      0.00
   -6    9    5   -101.55      0.00
   -4    9    5    -52.51      0.00
   -2    9    5     30.02      0.00
    0    9    5     55.59      0.00
    2    9    5     65.62      0.00
    4    9    5     42.66      0.00
    6    9    5    -18.81      0.00
    8    9    5    -16.94      0.00
   -9   10    5     19.48      0.00
   -7   10    5      8.26      0.00
   -5   10    5     -6.07      0.00
   -3   10    5     55.46      0.00
   -1   10    5     33.22      0.00
    1   10    5    -48.37      0.00
    3   10    5    -15.39      0.00
    5   10    5     33.19      0.00
    7   10    5     -0.66      0.00
    9   10    5     -4.03      0.00
  -10   11    5    -10.86      0.00
   -8   11    5     -4.25      0.00
   -6   11    5     33.41      0.00
   -4   11    5     23.09      0.00
   -2   11    5    -21.17      0.00
    0   11    5    -43.95      0.00
    2   11    5    -52.71      0.00
    4   11    5    -19.15      0.00
    6   11    5     53.68      0.00
    8   11    5     73.39      0.00
   10   11    5     40.92      0.00
  -11   12    5     23.43      0.00
   -9   12    5      0.41      0.00
   -7   12    5     34.15      0.00
   -5   12    5     79.89      0.00
   -3   12    5     43.82      0.00
   -1   12    5     32.66      0.00
    1   12    5     71.81      0.00
    3   12    5     34.83      0.00
    5   12    5    -27.46      0.00
    7   12    5    -13.34      0.00
    9   12    5      5.54      0.00
   11   12    5     11.37      0.00
  -12   13    5    -38.18      0.00
  -10   13    5    -14.42      0.00
   -8   13    5      3.98      0.00
   -6   13    5    -15.35      0.00
   -4   13    5    -37.49      0.00
   -2   13    5    -38.52      0.00
    0   13    5    -24.42      0.00
    2   13    5      2.26      0.00
    4   13    5     -1.04      0.00
    6   13    5    -45.23      0.00
    8   13    5    -64.85      0.00
   10   13    5    -43.76      0.00
   12   13    5    -12.34      0.00
  -13   14    5     22.69      0.00
  -11   14    5    -12.68      0.00
   -9   14    5    -25.23      0.00
   -7   14    5    -62.39      0.00
   -5   14    5   -103.99      0.00
   -3   14    5    -64.67      0.00
   -1   14    5    -17.81      0.00
    1   14    5    -26.55      0.00
    3   14    5     -7.91      0.00
    5   14    5     34.90      0.00
    7   14    5     25.98      0.00
    9   14    5      1.37      0.00
   11   14    5    -13.95      0.00
   13   14    5    -35.27      0.00
  -14   15    5     23.67      0.00
  -12   15    5     28.49      0.00
  -10   15    5      9.56      0.00
   -8   15    5    -25.49      0.00
   -6   15    5    -37.70      0.00
   -4   15    5    -14.67      0.00
   -2   15    5     11.55      0.00
    0   15    5      8.28      0.00
    2   15    5    -24.79      0.00
    4   15    5    -42.46      0.00
    6   15    5    -22.08      0.00
    8   15    5      2.99      0.00
   10   15    5     15.19      0.00
   12   15    5      9.47      0.00
   14   15    5    -20.17      0.00
  -15   16    5    -31.22      0.00
  -13   16    5    -31.10      0.00
  -11   16    5      9.71      0.00
   -9   16    5     24.81      0.00
   -7   16    5     32.55      0.00
   -5   16    5     46.37      0.00
   -3   16    5      6.16      0.00
   -1   16    5    -44.56      0.00
    1   16    5    -33.54      0.00
    3   16    5    -14.78      0.00
    5   16    5    -20.92      0.00
    7   16    5    -13.11      0.00
    9   16    5      0.56      0.00
   11   16    5      9.22      0.00
   13   16    5     19.67      0.00
   15   16    5      9.19      0.00
  -16   17    5      7.16      0.00
  -14   17    5      0.50      0.00
  -12   17    5     -4.68      0.00
  -10   17    5     -3.22      0.00
   -8   17    5     21.40      0.00
   -6   17    5     50.22      0.00
   -4   17    5     37.30      0.00
   -2   17    5     -4.02      0.00
    0   17    5    -23.42      0.00
    2   17    5    -10.60      0.00
    4   17    5      4.80      0.00
    6   17    5      4.81      0.00
    8   17    5     -6.76      0.00
   10   17    5    -30.64      0.00
   12   17    5    -44.84      0.00
   14   17    5    -21.43      0.00
   16   17    5      2.81      0.00
  -17   18    5     -7.52      0.00
  -15   18    5     -0.22      0.00
  -13   18    5      0.22      0.00
  -11   18    5    -27.89      0.00
   -9   18    5    -32.83      0.00
   -7   18    5    -16.65      0.00
   -5   18    5    -18.01      0.00
   -3   18    5     -1.26      0.00
   -1   18    5     24.44      0.00
    1   18    5      3.06      0.00
    3   18    5    -32.00      0.00
    5   18    5    -37.80      0.00
    7   18    5    -26.85      0.00
    9   18    5    -11.71      0.00
   11   18    5     -4.22      0.00
   13   18    5     -6.90      0.00
   15   18    5     -2.12      0.00
   17   18    5      5.38      0.00
  -18   19    5      2.62      0.00
  -16   19    5      1.57      0.00
  -14   19    5      7.29      0.00
  -12   19    5     16.34      0.00
  -10   19    5     37.30      0.00
   -8   19    5     40.36      0.00
   -6   19    5     12.24      0.00
   -4   19    5      7.48      0.00
   -2   19    5     39.51      0.00
    0   19    5     61.69      0.00
    2   19    5     59.64      0.00
    4   19    5     45.59      0.00
    6   19    5     21.10      0.00
    8   19    5      0.38      0.00
   10   19    5     10.72      0.00
   12   19    5     32.08      0.00
   14   19    5     21.00      0.00
   16   19    5     -2.41      0.00
   18   19    5     -4.23      0.00
  -19   20    5     -0.95      0.00
  -17   20    5     19.08      0.00
  -15   20    5     22.37      0.00
  -13   20    5     14.54      0.00
  -11   20    5     24.73      0.00
   -9   20    5     25.51      0.00
   -7   20    5      6.72      0.00
   -5   20    5     10.52      0.00
   -3   20    5     17.86      0.00
   -1   20    5     10.90      0.00
    1   20    5     24.12      0.00
    3   20    5     44.11      0.00
    5   20    5     40.76      0.00
    7   20    5     16.78      0.00
    9   20    5     -7.29      0.00
   11   20    5    -10.30      0.00
   13   20    5      0.76      0.00
   15   20    5      6.89      0.00
   17   20    5      6.43      0.00
   19   20    5     12.47      0.00
  -20   21    5    -11.67      0.00
  -18   21    5     -3.32      0.00
  -16   21    5     -4.41      0.00
  -14   21    5     -9.11      0.00
  -12   21    5    -12.57      0.00
  -10   21    5    -35.12      0.00
   -8   21    5    -50.80      0.00
   -6   21    5    -24.36      0.00
   -4   21    5      1.25      0.00
   -2   21    5     -4.64      0.00
    0   21    5    -12.02      0.00
    2   21    5    -13.35      0.00
    4   21    5    -13.39      0.00
    6   21    5      7.04      0.00
    8   21    5     36.53      0.00
   10   21    5     31.68      0.00
   12   21    5      2.76      0.00
   14   21    5     -4.95      0.00
   16   21    5      2.14      0.00
   18   21    5      2.82      0.00
   20   21    5      5.36      0.00
  -21   22    5      7.72      0.00
  -19   22    5      1.47      0.00
  -17   22    5    -15.21      0.00
  -15   22    5    -17.88      0.00
  -13   22    5     -3.72      0.00
  -11   22    5     -1.18      0.00
   -9   22    5     -2.13      0.00
   -7   22    5     11.17      0.00
   -5   22    5      7.67      0.00
   -3   22    5     -5.14      0.00
   -1   22    5     -0.53      0.00
    1   22    5      0.85      0.00
    3   22    5     -3.17      0.00
    5   22    5      1.93      0.00
    7   22    5     16.97      0.00
    9   22    5     25.32      0.00
   11   22    5     12.70      0.00
   13   22    5     -4.12      0.00
   15   22    5    -10.86      0.00
   17   22    5     -9.33      0.00
   19   22    5    -11.16      0.00
   21   22    5    -10.25      0.00
  -22   23    5     -3.86      0.00
  -20   23    5     -3.09      0.00
  -18   23    5     -6.20      0.00
  -16   23    5     -0.16      0.00
  -14   23    5      2.93      0.00
  -12   23    5     -6.59      0.00
  -10   23    5      1.39      0.00
   -8   23    5     17.60      0.00
   -6   23    5      2.44      0.00
   -4   23    5    -22.44      0.00
   -2   23    5    -26.81      0.00
    0   23    5    -24.36      0.00
    2   23    5    -14.01      0.00
    4   23    5      9.05      0.00
    6   23    5     10.84      0.00
    8   23    5    -12.89      0.00
   10   23    5    -15.94      0.00
   12   23    5      3.24      0.00
   14   23    5     11.28      0.00
   16   23    5     12.46      0.00
   18   23    5     13.21      0.00
   20   23    5      3.17      0.00
   22   23    5     -7.34      0.00
  -23   24    5     -3.53      0.00
  -21   24    5      1.31      0.00
  -19   24    5      6.27      0.00
  -17   24    5     16.14      0.00
  -15   24    5     17.23      0.00
  -13   24    5      5.92      0.00
  -11   24    5      2.84      0.00
   -9   24    5      7.35      0.00
   -7   24    5      0.36      0.00
   -5   24    5      0.34      0.00
   -3   24    5      7.80      0.00
   -1   24    5      0.81      0.00
    1   24    5     -6.80      0.00
    3   24    5     -6.43      0.00
    5   24    5     -6.14      0.00
    7   24    5    -10.05      0.00
    9   24    5     -6.96      0.00
   11   24    5      8.17      0.00
   13   24    5     15.30      0.00
   15   24    5     10.55      0.00
   17   24    5      2.86      0.00
   19   24    5      1.06      0.00
   21   24    5      2.56      0.00
   23   24    5     -3.41      0.00
  -24   25    5      4.93      0.00
  -22   25    5      7.35      0.00
  -20   25    5      1.14      0.00
  -18   25    5     -6.56      0.00
  -16   25    5    -18.31      0.00
  -14   25    5    -18.56      0.00
  -12   25    5      2.13      0.00
  -10   25    5      6.70      0.00
   -8   25    5    -10.72      0.00
   -6   25    5    -14.81      0.00
   -4   25    5     -6.49      0.00
   -2   25    5     -3.75      0.00
    0   25    5     -2.96      0.00
    2   25    5     -9.43      0.00
    4   25    5    -32.46      0.00
    6   25    5    -40.26      0.00
    8   25    5    -16.77      0.00
   10   25    5     -1.16      0.00
   12   25    5     -2.29      0.00
   14   25    5     -1.44      0.00
   16   25    5     -6.59      0.00
   18   25    5    -12.96      0.00
   20   25    5     -3.41      0.00
   22   25    5     10.00      0.00
   24   25    5      8.63      0.00
  -25   26    5     -1.91      0.00
  -23   26    5     -5.27      0.00
  -21   26    5     -9.26      0.00
  -19   26    5     -9.36      0.00
  -17   26    5    -10.75      0.00
  -15   26    5     -8.98      0.00
  -13   26    5     -3.82      0.00
  -11   26    5     -8.68      0.00
   -9   26    5    -19.64      0.00
   -7   26    5    -17.22      0.00
   -5   26    5    -13.32      0.00
   -3   26    5    -14.54      0.00
   -1   26    5     -7.60      0.00
    1   26    5     -0.87      0.00
    3   26    5     -2.31      0.00
    5   26    5     -5.30      0.00
    7   26    5     -4.25      0.00
    9   26    5     -8.82      0.00
   11   26    5    -19.84      0.00
   13   26    5    -18.88      0.00
   15   26    5     -8.51      0.00
   17   26    5     -0.48      0.00
   19   26    5      0.56      0.00
   21   26    5     -3.79      0.00
   23   26    5     -5.69      0.00
   25   26    5     -4.70      0.00
  -26   27    5      2.69      0.00
  -24   27    5      0.40      0.00
  -22   27    5     -2.97      0.00
  -20   27    5      1.44      0.00
  -18   27    5     11.39      0.00
  -16   27    5     22.82      0.00
  -14   27    5     21.24      0.00
  -12   27    5     -1.03      0.00
  -10   27    5    -11.01      0.00
   -8   27    5      1.71      0.00
   -6   27    5     11.59      0.00
   -4   27    5     11.87      0.00
   -2   27    5      9.03      0.00
    0   27    5      2.74      0.00
    2   27    5     -3.03      0.00
    4   27    5      5.73      0.00
    6   27    5     14.14      0.00
    8   27    5      2.80      0.00
   10   27    5     -6.81      0.00
   12   27    5     -9.38      0.00
   14   27    5    -13.04      0.00
   16   27    5     -4.63      0.00
   18   27    5      8.50      0.00
   20   27    5      6.53      0.00
   22   27    5     -3.16      0.00
   24   27    5     -2.85      0.00
   26   27    5      5.30      0.00
  -25   28    5      5.22      0.00
  -23   28    5      3.34      0.00
  -21   28    5      3.50      0.00
  -19   28    5      0.72      0.00
  -17   28    5     -2.41      0.00
  -15   28    5     -6.96      0.00
  -13   28    5    -10.83      0.00
  -11   28    5     -1.74      0.00
   -9   28    5     11.44      0.00
   -7   28    5      7.52      0.00
   -5   28    5     -1.13      0.00
   -3   28    5     -2.01      0.00
   -1   28    5     -3.04      0.00
    1   28    5     -3.91      0.00
    3   28    5     -1.26      0.00
    5   28    5      0.74      0.00
    7   28    5     -0.97      0.00
    9   28    5      3.66      0.00
   11   28    5     14.02      0.00
   13   28    5     14.70      0.00
   15   28    5      7.49      0.00
   17   28    5      2.10      0.00
   19   28    5      1.66      0.00
   21   28    5      5.16      0.00
   23   28    5      9.81      0.00
   25   28    5      9.05      0.00
  -24   29    5     -3.28      0.00
  -22   29    5      5.46      0.00
  -20   29    5      9.68      0.00
  -18   29    5      4.14      0.00
  -16   29    5     -4.03      0.00
  -14   29    5     -4.22      0.00
  -12   29    5      9.32      0.00
  -10   29    5     17.27      0.00
   -8   29    5     12.25      0.00
   -6   29    5      5.74      0.00
   -4   29    5      0.19      0.00
   -2   29    5     -3.34      0.00
    0   29    5     -1.30      0.00
    2   29    5      8.13      0.00
    4   29    5     10.70      0.00
    6   29    5      1.39      0.00
    8   29    5     -5.47      0.00
   10   29    5    -10.22      0.00
   12   29    5     -8.12      0.00
   14   29    5      0.92      0.00
   16   29    5     -0.98      0.00
   18   29    5    -10.53      0.00
   20   29    5    -12.01      0.00
   22   29    5     -4.78      0.00
   24   29    5     -0.82      0.00
  -23   30    5      0.34      0.00
  -21   30    5     -2.87      0.00
  -19   30    5     -7.12      0.00
  -17   30    5     -9.01      0.00
  -15   30    5     -6.01      0.00
  -13   30    5      1.47      0.00
  -11   30    5     -2.39      0.00
   -9   30    5    -11.21      0.00
   -7   30    5     -3.06      0.00
   -5   30    5      8.41      0.00
   -3   30    5      7.60      0.00
   -1   30    5      1.41      0.00
    1   30    5     -2.98      0.00
    3   30    5     -4.93      0.00
    5   30    5     -2.83      0.00
    7   30    5      2.19      0.00
    9   30    5     -0.88      0.00
   11   30    5    -10.25      0.00
   13   30    5    -14.62      0.00
   15   30    5    -11.62      0.00
   17   30    5     -5.97      0.00
   19   30    5     -2.87      0.00
   21   30    5     -1.78      0.00
   23   30    5     -3.99      0.00
  -22   31    5     -0.60      0.00
  -20   31    5     -3.94      0.00
  -18   31    5     -0.12      0.00
  -16   31    5      2.53      0.00
  -14   31    5      2.24      0.00
  -12   31    5      0.68      0.00
  -10   31    5      1.65      0.00
   -8   31    5      3.64      0.00
   -6   31    5      5.52      0.00
   -4   31    5     11.34      0.00
   -2   31    5     18.34      0.00
    0   31    5     20.59      0.00
    2   31    5     10.97      0.00
    4   31    5     -2.42      0.00
    6   31    5     -2.55      0.00
    8   31    5      8.79      0.00
   10   31    5     19.38      0.00
   12   31    5     15.07      0.00
   14   31    5      0.89      0.00
   16   31    5     -4.86      0.00
   18   31    5     -2.05      0.00
   20   31    5      2.05      0.00
   22   31    5      0.71      0.00
  -21   32    5     12.04      0.00
  -19   32    5     22.28      0.00
  -17   32    5     27.99      0.00
  -15   32    5     26.88      0.00
  -13   32    5     14.96      0.00
  -11   32    5      9.38      0.00
   -9   32    5     12.82      0.00
   -7   32    5      5.89      0.00
   -5   32    5     -2.35      0.00
   -3   32    5      0.41      0.00
   -1   32    5      7.13      0.00
    1   32    5      9.76      0.00
    3   32    5      9.59      0.00
    5   32    5      4.49      0.00
    7   32    5     -4.51      0.00
    9   32    5     -4.33      0.00
   11   32    5      3.08      0.00
   13   32    5     11.29      0.00
   15   32    5     14.25      0.00
   17   32    5      9.41      0.00
   19   32    5      4.92      0.00
   21   32    5      1.01      0.00
  -20   33    5     -5.90      0.00
  -18   33    5     -7.65      0.00
  -16   33    5     -3.93      0.00
  -14   33    5     -0.74      0.00
  -12   33    5     -6.91      0.00
  -10   33    5    -13.96      0.00
   -8   33    5    -11.63      0.00
   -6   33    5     -5.08      0.00
   -4   33    5     -3.20      0.00
   -2   33    5     -6.73      0.00
    0   33    5    -10.97      0.00
    2   33    5     -5.94      0.00
    4   33    5      9.71      0.00
    6   33    5     18.55      0.00
    8   33    5      9.11      0.00
   10   33    5     -5.14      0.00
   12   33    5     -4.23      0.00
   14   33    5      5.49      0.00
   16   33    5     10.07      0.00
   18   33    5     10.32      0.00
   20   33    5      4.87      0.00
  -17   34    5    -19.91      0.00
  -15   34    5    -19.93      0.00
  -13   34    5     -8.88      0.00
  -11   34    5      0.80      0.00
   -9   34    5     -1.39      0.00
   -7   34    5     -1.38      0.00
   -5   34    5      1.02      0.00
   -3   34    5     -0.15      0.00
   -1   34    5     -0.87      0.00
    1   34    5      2.04      0.00
    3   34    5     -0.34      0.00
    5   34    5     -2.00      0.00
    7   34    5      5.25      0.00
    9   34    5      7.09      0.00
   11   34    5      3.77      0.00
   13   34    5     -3.55      0.00
   15   34    5     -9.90      0.00
   17   34    5     -6.35      0.00
  -16   35    5     -2.37      0.00
  -14   35    5     -6.37      0.00
  -12   35    5      0.25      0.00
  -10   35    5      5.74      0.00
   -8   35    5     -1.10      0.00
   -6   35    5    -11.07      0.00
   -4   35    5    -15.44      0.00
   -2   35    5    -11.98      0.00
    0   35    5     -4.46      0.00
    2   35    5     -1.99      0.00
    4   35    5    -10.04      0.00
    6   35    5    -18.30      0.00
    8   35    5    -10.28      0.00
   10   35    5      4.95      0.00
   12   35    5      7.35      0.00
   14   35    5      3.39      0.00
   16   35    5      1.74      0.00
  -13   36    5      0.93      0.00
  -11   36    5     -5.57      0.00
   -9   36    5     -2.32      0.00
   -7   36    5      3.20      0.00
   -5   36    5      4.28      0.00
   -3   36    5      3.66      0.00
   -1   36    5      2.49      0.00
    1   36    5     -2.51      0.00
    3   36    5      3.16      0.00
    5   36    5     12.87      0.00
    7   36    5      6.92      0.00
    9   36    5      0.17      0.00
   11   36    5     -3.38      0.00
   13   36    5     -1.62      0.00
  -10   37    5     -5.01      0.00
   -8   37    5      1.84      0.00
   -6   37    5      8.90      0.00
   -4   37    5     10.70      0.00
   -2   37    5      5.57      0.00
    0   37    5     -2.03      0.00
    2   37    5     -5.90      0.00
    4   37    5     -3.53      0.00
    6   37    5      3.03      0.00
    8   37    5      1.58      0.00
   10   37    5     -5.22      0.00
   -7   38    5     -6.89      0.00
   -5   38    5    -10.09      0.00
   -3   38    5    -10.92      0.00
   -1   38    5    -13.90      0.00
    1   38    5     -7.87      0.00
    3   38    5     -7.65      0.00
    5   38    5    -15.86      0.00
    7   38    5     -9.12      0.00
    1    1    6    145.15      0.00
    0    2    6     13.29      0.00
    2    2    6    -20.69      0.00
   -1    3    6     41.68      0.00
    1    3    6      6.61      0.00
    3    3    6    135.12      0.00
   -2    4    6    -11.65      0.00
    0    4    6      0.31      0.00
    2    4    6     37.26      0.00
    4    4    6     41.89      0.00
   -3    5    6   -108.70      0.00
   -1    5    6    -41.05      0.00
    1    5    6     42.30      0.00
    3    5    6    -15.43      0.00
    5    5    6     19.18      0.00
   -4    6    6    -35.94      0.00
   -2    6    6    -53.84      0.00
    0    6    6    -24.74      0.00
    2    6    6    -25.94      0.00
    4    6    6    -41.63      0.00
    6    6    6     15.20      0.00
   -5    7    6    -88.16      0.00
   -3    7    6     21.56      0.00
   -1    7    6    -14.41      0.00
    1    7    6    -95.70      0.00
    3    7    6    -55.55      0.00
    5    7    6    -59.78      0.00
    7    7    6    -93.04      0.00
   -6    8    6     77.73      0.00
   -4    8    6     87.68      0.00
   -2    8    6     66.95      0.00
    0    8    6    -14.23      0.00
    2    8    6    -49.30      0.00
    4    8    6    -10.77      0.00
    6    8    6    -13.72      0.00
    8    8    6    -54.50      0.00
   -7    9    6     17.17      0.00
   -5    9    6     28.74      0.00
   -3    9    6    -52.98      0.00
   -1    9    6    -43.06      0.00
    1    9    6     16.92      0.00
    3    9    6    -15.09      0.00
    5    9    6    -21.86      0.00
    7    9    6     13.88      0.00
    9    9    6    -26.95      0.00
   -8   10    6    -44.18      0.00
   -6   10    6    -52.62      0.00
   -4   10    6    -49.58      0.00
   -2   10    6    -25.68      0.00
    0   10    6     51.78      0.00
    2   10    6     83.53      0.00
    4   10    6     16.15      0.00
    6   10    6    -32.27      0.00
    8   10    6    -16.89      0.00
   10   10    6     -7.48      0.00
   -9   11    6     56.91      0.00
   -7   11    6     29.65      0.00
   -5   11    6     -9.94      0.00
   -3   11    6     21.14      0.00
   -1   11    6     13.69      0.00
    1   11    6    -27.97      0.00
    3   11    6     -2.33      0.00
    5   11    6     11.13      0.00
    7   11    6    -23.32      0.00
    9   11    6    -10.48      0.00
   11   11    6     11.52      0.00
  -10   12    6     -0.99      0.00
   -8   12    6      6.74      0.00
   -6   12    6    -11.86      0.00
   -4   12    6     -9.83      0.00
   -2   12    6      4.99      0.00
    0   12    6    -29.47      0.00
    2   12    6    -51.86      0.00
    4   12    6      8.45      0.00
    6   12    6     65.94      0.00
    8   12    6     59.88      0.00
   10   12    6     36.11      0.00
   12   12    6     -0.26      0.00
  -11   13    6      2.50      0.00
   -9   13    6    -22.83      0.00
   -7   13    6     -1.44      0.00
   -5   13    6     50.00      0.00
   -3   13    6     50.99      0.00
   -1   13    6     48.49      0.00
    1   13    6     59.48      0.00
    3   13    6     25.52      0.00
    5   13    6     -3.40      0.00
    7   13    6     14.14      0.00
    9   13    6     15.15      0.00
   11   13    6      3.23      0.00
   13   13    6      1.46      0.00
  -12   14    6    -34.63      0.00
  -10   14    6     -8.68      0.00
   -8   14    6     17.51      0.00
   -6   14    6     55.98      0.00
   -4   14    6     44.83      0.00
   -2   14    6     -8.93      0.00
    0   14    6    -10.50      0.00
    2   14    6     20.90      0.00
    4   14    6      2.78      0.00
    6   14    6    -30.46      0.00
    8   14    6    -28.71      0.00
   10   14    6    -14.48      0.00
   12   14    6     14.65      0.00
   14   14    6     47.22      0.00
  -13   15    6     20.67      0.00
  -11   15    6      6.81      0.00
   -9   15    6     18.51      0.00
   -7   15    6     20.41      0.00
   -5   15    6     -6.08      0.00
   -3   15    6     -8.58      0.00
   -1   15    6      3.89      0.00
    1   15    6      7.65      0.00
    3   15    6     30.52      0.00
    5   15    6     50.59      0.00
    7   15    6     36.28      0.00
    9   15    6     17.53      0.00
   11   15    6      3.94      0.00
   13   15    6     -0.55      0.00
   15   15    6     20.08      0.00
  -14   16    6     35.39      0.00
  -12   16    6     22.85      0.00
  -10   16    6     -3.04      0.00
   -8   16    6    -26.98      0.00
   -6   16    6    -63.29      0.00
   -4   16    6    -49.97      0.00
   -2   16    6     18.63      0.00
    0   16    6     39.54      0.00
    2   16    6      2.15      0.00
    4   16    6    -15.14      0.00
    6   16    6     -7.47      0.00
    8   16    6     -1.73      0.00
   10   16    6      9.70      0.00
   12   16    6      9.73      0.00
   14   16    6     -9.53      0.00
   16   16    6     -7.84      0.00
  -15   17    6    -23.61      0.00
  -13   17    6    -26.83      0.00
  -11   17    6     -8.62      0.00
   -9   17    6     -7.79      0.00
   -7   17    6    -25.37      0.00
   -5   17    6    -23.98      0.00
   -3   17    6    -18.78      0.00
   -1   17    6    -20.07      0.00
    1   17    6    -11.65      0.00
    3   17    6     -8.35      0.00
    5   17    6    -13.31      0.00
    7   17    6    -11.89      0.00
    9   17    6     -2.71      0.00
   11   17    6     15.66      0.00
   13   17    6     21.09      0.00
   15   17    6     -1.23      0.00
   17   17    6    -10.74      0.00
  -16   18    6     11.84      0.00
  -14   18    6     -3.81      0.00
  -12   18    6     -0.79      0.00
  -10   18    6      2.72      0.00
   -8   18    6     -0.86      0.00
   -6   18    6     21.19      0.00
   -4   18    6     21.87      0.00
   -2   18    6    -27.85      0.00
    0   18    6    -48.32      0.00
    2   18    6    -17.04      0.00
    4   18    6      9.51      0.00
    6   18    6     17.08      0.00
    8   18    6     11.99      0.00
   10   18    6    -11.83      0.00
   12   18    6    -30.28      0.00
   14   18    6    -18.65      0.00
   16   18    6     -6.24      0.00
   18   18    6     -8.78      0.00
  -17   19    6     -2.84      0.00
  -15   19    6     -0.71      0.00
  -13   19    6      2.91      0.00
  -11   19    6    -16.88      0.00
   -9   19    6    -36.07      0.00
   -7   19    6    -24.39      0.00
   -5   19    6    -16.18      0.00
   -3   19    6    -23.84      0.00
   -1   19    6    -29.13      0.00
    1   19    6    -38.12      0.00
    3   19    6    -44.76      0.00
    5   19    6    -34.73      0.00
    7   19    6     -9.59      0.00
    9   19    6      6.68      0.00
   11   19    6     -5.76      0.00
   13   19    6    -15.53      0.00
   15   19    6     -1.48      0.00
   17   19    6      6.09      0.00
   19   19    6     -0.86      0.00
  -18   20    6     -7.89      0.00
  -16   20    6    -16.15      0.00
  -14   20    6     -2.77      0.00
  -12   20    6      4.80      0.00
  -10   20    6     16.95      0.00
   -8   20    6     37.11      0.00
   -6   20    6     21.50      0.00
   -4   20    6     -3.63      0.00
   -2   20    6      9.24      0.00
    0   20    6     17.45      0.00
    2   20    6      0.73      0.00
    4   20    6    -11.77      0.00
    6   20    6    -21.09      0.00
    8   20    6    -25.59      0.00
   10   20    6     -9.37      0.00
   12   20    6     11.63      0.00
   14   20    6      7.80      0.00
   16   20    6     -4.50      0.00
   18   20    6     -6.51      0.00
   20   20    6     -9.26      0.00
  -19   21    6     -5.56      0.00
  -17   21    6     -2.02      0.00
  -15   21    6      0.69      0.00
  -13   21    6     -6.34      0.00
  -11   21    6      5.59      0.00
   -9   21    6     31.33      0.00
   -7   21    6     26.59      0.00
   -5   21    6     11.04      0.00
   -3   21    6      9.75      0.00
   -1   21    6      5.22      0.00
    1   21    6      0.90      0.00
    3   21    6      2.95      0.00
    5   21    6     -3.06      0.00
    7   21    6    -27.79      0.00
    9   21    6    -43.26      0.00
   11   21    6    -22.75      0.00
   13   21    6     -1.24      0.00
   15   21    6     -0.64      0.00
   17   21    6      0.74      0.00
   19   21    6      5.99      0.00
   21   21    6     -0.92      0.00
  -20   22    6     -0.54      0.00
  -18   22    6     13.76      0.00
  -16   22    6     17.12      0.00
  -14   22    6      2.30      0.00
  -12   22    6     -5.95      0.00
  -10   22    6    -14.96      0.00
   -8   22    6    -32.80      0.00
   -6   22    6    -20.83      0.00
   -4   22    6     13.21      0.00
   -2   22    6     20.54      0.00
    0   22    6     15.69      0.00
    2   22    6     12.33      0.00
    4   22    6     -0.15      0.00
    6   22    6     -1.30      0.00
    8   22    6     11.49      0.00
   10   22    6     11.28      0.00
   12   22    6     -2.56      0.00
   14   22    6     -5.26      0.00
   16   22    6     -1.47      0.00
   18   22    6     -1.65      0.00
   20   22    6      4.89      0.00
   22   22    6      2.77      0.00
  -21   23    6     11.05      0.00
  -19   23    6     13.18      0.00
  -17   23    6      8.05      0.00
  -15   23    6      2.13      0.00
  -13   23    6     11.89      0.00
  -11   23    6     13.04      0.00
   -9   23    6     -6.01      0.00
   -7   23    6     -4.88      0.00
   -5   23    6     10.55      0.00
   -3   23    6     15.71      0.00
   -1   23    6     24.43      0.00
    1   23    6     32.45      0.00
    3   23    6     24.28      0.00
    5   23    6     12.38      0.00
    7   23    6     20.06      0.00
    9   23    6     27.21      0.00
   11   23    6      8.61      0.00
   13   23    6     -5.36      0.00
   15   23    6     -3.71      0.00
   17   23    6     -6.31      0.00
   19   23    6     -8.95      0.00
   21   23    6     -1.25      0.00
   23   23    6      9.37      0.00
  -22   24    6     -8.86      0.00
  -20   24    6    -12.16      0.00
  -18   24    6    -17.26      0.00
  -16   24    6    -12.91      0.00
  -14   24    6     -0.88      0.00
  -12   24    6     -2.36      0.00
  -10   24    6     -5.69      0.00
   -8   24    6      5.70      0.00
   -6   24    6      5.12      0.00
   -4   24    6    -13.95      0.00
   -2   24    6    -17.01      0.00
    0   24    6     -7.53      0.00
    2   24    6      4.67      0.00
    4   24    6     26.18      0.00
    6   24    6     32.33      0.00
    8   24    6     12.96      0.00
   10   24    6     -2.33      0.00
   12   24    6      0.05      0.00
   14   24    6      4.20      0.00
   16   24    6      8.46      0.00
   18   24    6     12.65      0.00
   20   24    6      2.91      0.00
   22   24    6     -5.49      0.00
   24   24    6     -1.28      0.00
  -23   25    6     -7.66      0.00
  -21   25    6     -3.11      0.00
  -19   25    6      3.15      0.00
  -17   25    6     11.75      0.00
  -15   25    6     18.37      0.00
  -13   25    6      7.27      0.00
  -11   25    6     -1.46      0.00
   -9   25    6     11.74      0.00
   -7   25    6     16.38      0.00
   -5   25    6      9.47      0.00
   -3   25    6      7.82      0.00
   -1   25    6      1.02      0.00
    1   25    6     -7.83      0.00
    3   25    6     -0.55      0.00
    5   25    6     15.96      0.00
    7   25    6     13.42      0.00
    9   25    6      3.57      0.00
   11   25    6      8.39      0.00
   13   25    6      5.89      0.00
   15   25    6     -3.10      0.00
   17   25    6     -0.04      0.00
   19   25    6      4.07      0.00
   21   25    6      0.51      0.00
   23   25    6     -3.68      0.00
   25   25    6     -1.92      0.00
  -24   26    6      0.61      0.00
  -22   26    6      7.04      0.00
  -20   26    6      4.82      0.00
  -18   26    6     -0.29      0.00
  -16   26    6     -8.76      0.00
  -14   26    6    -13.89      0.00
  -12   26    6     -0.59      0.00
  -10   26    6     14.72      0.00
   -8   26    6     10.05      0.00
   -6   26    6      1.91      0.00
   -4   26    6      5.15      0.00
   -2   26    6      2.70      0.00
    0   26    6     -3.44      0.00
    2   26    6     -5.05      0.00
    4   26    6    -14.36      0.00
    6   26    6    -19.28      0.00
    8   26    6     -4.30      0.00
   10   26    6     11.67      0.00
   12   26    6     14.12      0.00
   14   26    6      9.99      0.00
   16   26    6     -0.30      0.00
   18   26    6    -10.12      0.00
   20   26    6     -2.91      0.00
   22   26    6     10.13      0.00
   24   26    6     10.94      0.00
   26   26    6      3.73      0.00
  -25   27    6     -0.44      0.00
  -23   27    6      3.92      0.00
  -21   27    6     -0.24      0.00
  -19   27    6     -6.59      0.00
  -17   27    6    -11.89      0.00
  -15   27    6    -14.31      0.00
  -13   27    6     -3.46      0.00
  -11   27    6      4.78      0.00
   -9   27    6     -4.34      0.00
   -7   27    6     -7.73      0.00
   -5   27    6     -3.38      0.00
   -3   27    6     -3.15      0.00
   -1   27    6      0.45      0.00
    1   27    6      9.47      0.00
    3   27    6     10.27      0.00
    5   27    6     -0.97      0.00
    7   27    6     -2.36      0.00
    9   27    6      2.63      0.00
   11   27    6     -0.18      0.00
   13   27    6      5.16      0.00
   15   27    6     12.43      0.00
   17   27    6      6.05      0.00
   19   27    6     -2.17      0.00
   21   27    6     -4.94      0.00
   23   27    6     -8.20      0.00
   25   27    6    -10.63      0.00
   27   27    6     -6.66      0.00
  -26   28    6     -0.51      0.00
  -24   28    6      2.40      0.00
  -22   28    6      0.60      0.00
  -20   28    6      2.98      0.00
  -18   28    6      9.16      0.00
  -16   28    6     15.62      0.00
  -14   28    6     17.22      0.00
  -12   28    6      3.43      0.00
  -10   28    6    -14.55      0.00
   -8   28    6    -15.85      0.00
   -6   28    6     -7.51      0.00
   -4   28    6     -4.33      0.00
   -2   28    6     -0.58      0.00
    0   28    6      1.26      0.00
    2   28    6     -7.08      0.00
    4   28    6     -9.59      0.00
    6   28    6     -1.49      0.00
    8   28    6     -0.03      0.00
   10   28    6     -4.32      0.00
   12   28    6     -7.36      0.00
   14   28    6     -7.57      0.00
   16   28    6      2.26      0.00
   18   28    6     13.88      0.00
   20   28    6     10.43      0.00
   22   28    6     -3.22      0.00
   24   28    6     -9.08      0.00
   26   28    6     -2.60      0.00
  -25   29    6     -1.05      0.00
  -23   29    6     -8.82      0.00
  -21   29    6    -10.88      0.00
  -19   29    6     -6.58      0.00
  -17   29    6     -1.83      0.00
  -15   29    6      0.19      0.00
  -13   29    6     -7.61      0.00
  -11   29    6    -12.64      0.00
   -9   29    6     -8.48      0.00
   -7   29    6    -11.70      0.00
   -5   29    6    -16.26      0.00
   -3   29    6    -13.32      0.00
   -1   29    6     -9.50      0.00
    1   29    6    -12.20      0.00
    3   29    6    -17.02      0.00
    5   29    6    -11.54      0.00
    7   29    6     -4.33      0.00
    9   29    6      0.91      0.00
   11   29    6      6.78      0.00
   13   29    6      2.44      0.00
   15   29    6     -4.25      0.00
   17   29    6     -1.47      0.00
   19   29    6      3.91      0.00
   21   29    6      6.57      0.00
   23   29    6     10.08      0.00
   25   29    6     11.38      0.00
  -24   30    6     -4.32      0.00
  -22   30    6     -2.82      0.00
  -20   30    6      0.00      0.00
  -18   30    6      0.69      0.00
  -16   30    6      1.77      0.00
  -14   30    6      0.78      0.00
  -12   30    6      2.85      0.00
  -10   30    6     11.22      0.00
   -8   30    6     13.43      0.00
   -6   30    6      7.71      0.00
   -4   30    6      2.72      0.00
   -2   30    6     -2.54      0.00
    0   30    6     -5.32      0.00
    2   30    6      4.00      0.00
    4   30    6     12.74      0.00
    6   30    6      3.85      0.00
    8   30    6     -9.36      0.00
   10   30    6    -13.70      0.00
   12   30    6     -7.51      0.00
   14   30    6      1.46      0.00
   16   30    6     -2.27      0.00
   18   30    6    -11.48      0.00
   20   30    6    -11.79      0.00
   22   30    6     -2.71      0.00
   24   30    6      4.36      0.00
  -21   31    6      4.65      0.00
  -19   31    6     -4.14      0.00
  -17   31    6    -11.33      0.00
  -15   31    6    -13.21      0.00
  -13   31    6     -6.69      0.00
  -11   31    6     -3.90      0.00
   -9   31    6     -6.06      0.00
   -7   31    6     -0.79      0.00
   -5   31    6      2.05      0.00
   -3   31    6     -0.93      0.00
   -1   31    6     -4.64      0.00
    1   31    6     -5.05      0.00
    3   31    6      1.38      0.00
    5   31    6      4.89      0.00
    7   31    6      1.36      0.00
    9   31    6     -6.60      0.00
   11   31    6    -12.41      0.00
   13   31    6     -9.37      0.00
   15   31    6     -3.73      0.00
   17   31    6     -0.77      0.00
   19   31    6     -0.17      0.00
   21   31    6     -0.01      0.00
  -20   32    6     -1.51      0.00
  -18   32    6     -7.43      0.00
  -16   32    6    -16.23      0.00
  -14   32    6    -16.21      0.00
  -12   32    6     -4.16      0.00
  -10   32    6      1.34      0.00
   -8   32    6     -1.12      0.00
   -6   32    6     -3.44      0.00
   -4   32    6     -4.18      0.00
   -2   32    6     -1.30      0.00
    0   32    6      3.16      0.00
    2   32    6     -2.15      0.00
    4   32    6    -13.60      0.00
    6   32    6     -8.99      0.00
    8   32    6      6.23      0.00
   10   32    6     12.84      0.00
   12   32    6      3.93      0.00
   14   32    6    -10.74      0.00
   16   32    6    -11.17      0.00
   18   32    6     -3.15      0.00
   20   32    6      2.27      0.00
  -19   33    6     14.04      0.00
  -17   33    6     17.13      0.00
  -15   33    6     15.76      0.00
  -13   33    6      9.06      0.00
  -11   33    6      6.41      0.00
   -9   33    6      7.06      0.00
   -7   33    6      2.53      0.00
   -5   33    6      0.88      0.00
   -3   33    6     -0.96      0.00
   -1   33    6     -5.28      0.00
    1   33    6     -5.91      0.00
    3   33    6     -7.55      0.00
    5   33    6    -13.13      0.00
    7   33    6    -14.07      0.00
    9   33    6     -4.53      0.00
   11   33    6      4.03      0.00
   13   33    6      6.12      0.00
   15   33    6      5.28      0.00
   17   33    6     -0.03      0.00
   19   33    6     -4.20      0.00
  -16   34    6     17.05      0.00
  -14   34    6     18.92      0.00
  -12   34    6      2.09      0.00
  -10   34    6     -8.08      0.00
   -8   34    6     -0.83      0.00
   -6   34    6     10.51      0.00
   -4   34    6     14.83      0.00
   -2   34    6     10.00      0.00
    0   34    6      0.33      0.00
    2   34    6     -1.45      0.00
    4   34    6      9.91      0.00
    6   34    6     11.03      0.00
    8   34    6     -1.79      0.00
   10   34    6     -9.49      0.00
   12   34    6     -3.78      0.00
   14   34    6      8.32      0.00
   16   34    6      9.03      0.00
  -15   35    6     -2.83      0.00
  -13   35    6      2.02      0.00
  -11   35    6      5.43      0.00
   -9   35    6      6.81      0.00
   -7   35    6      9.07      0.00
   -5   35    6      8.11      0.00
   -3   35    6     10.96      0.00
   -1   35    6     18.63      0.00
    1   35    6     18.69      0.00
    3   35    6      9.89      0.00
    5   35    6      6.98      0.00
    7   35    6      8.34      0.00
    9   35    6      0.26      0.00
   11   35    6     -6.58      0.00
   13   35    6     -8.14      0.00
   15   35    6     -8.64      0.00
  -12   36    6      0.49      0.00
  -10   36    6      6.16      0.00
   -8   36    6     -4.32      0.00
   -6   36    6    -16.50      0.00
   -4   36    6    -16.69      0.00
   -2   36    6     -7.73      0.00
    0   36    6      2.98      0.00
    2   36    6      7.03      0.00
    4   36    6     -4.15      0.00
    6   36    6     -9.33      0.00
    8   36    6      0.59      0.00
   10   36    6      8.34      0.00
   12   36    6      7.31      0.00
   -9   37    6     -4.62      0.00
   -7   37    6     -4.29      0.00
   -5   37    6     -1.24      0.00
   -3   37    6     -0.49      0.00
   -1   37    6     -2.93      0.00
    1   37    6     -2.41      0.00
    3   37    6      8.03      0.00
    5   37    6     13.11      0.00
    7   37    6      5.32      0.00
    9   37    6      3.22      0.00
   -6   38    6     12.71      0.00
   -4   38    6     10.07      0.00
   -2   38    6      2.21      0.00
    0   38    6     -3.91      0.00
    2   38    6     -7.90      0.00
    4   38    6     -0.18      0.00
    0    1    7    -71.09      0.00
   -1    2    7    -26.96      0.00
    1    2    7      2.88      0.00
   -2    3    7    -53.19      0.00
    0    3    7     -8.37      0.00
    2    3    7    -97.47      0.00
   -3    4    7    152.62      0.00
   -1    4    7     81.47      0.00
    1    4    7     14.78      0.00
    3    4    7     21.90      0.00
   -4    5    7      8.88      0.00
   -2    5    7     56.94      0.00
    0    5    7     -0.62      0.00
    2    5    7     44.19      0.00
    4    5    7     95.28      0.00
   -5    6    7     -3.13      0.00
   -3    6    7    -45.73      0.00
   -1    6    7      0.21      0.00
    1    6    7     52.47      0.00
    3    6    7     53.58      0.00
    5    6    7     65.81      0.00
   -6    7    7     42.65      0.00
   -4    7    7    -12.93      0.00
   -2    7    7    -44.80      0.00
    0    7    7     39.73      0.00
    2    7    7     37.97      0.00
    4    7    7    -24.93      0.00
    6    7    7     16.92      0.00
   -7    8    7    -44.63      0.00
   -5    8    7    -43.60      0.00
   -3    8    7      4.57      0.00
   -1    8    7     10.94      0.00
    1    8    7      6.21      0.00
    3    8    7     14.73      0.00
    5    8    7     -8.66      0.00
    7    8    7     -5.21      0.00
   -8    9    7     50.90      0.00
   -6    9    7     27.66      0.00
   -4    9    7     55.34      0.00
   -2    9    7     67.60      0.00
    0    9    7    -23.59      0.00
    2    9    7    -44.04      0.00
    4    9    7     29.04      0.00
    6    9    7     29.30      0.00
    8    9    7      6.95      0.00
   -9   10    7    -37.77      0.00
   -7   10    7    -11.05      0.00
   -5   10    7     -4.24      0.00
   -3   10    7    -32.82      0.00
   -1   10    7    -48.79      0.00
    1   10    7    -58.27      0.00
    3   10    7    -57.51      0.00
    5   10    7    -11.14      0.00
    7   10    7     18.87      0.00
    9   10    7     -9.39      0.00
  -10   11    7    -25.64      0.00
   -8   11    7    -59.33      0.00
   -6   11    7    -27.75      0.00
   -4   11    7    -28.89      0.00
   -2   11    7    -39.30      0.00
    0   11    7     27.88      0.00
    2   11    7     51.56      0.00
    4   11    7    -18.26      0.00
    6   11    7    -43.06      0.00
    8   11    7    -24.77      0.00
   10   11    7    -32.42      0.00
  -11   12    7     17.28      0.00
   -9   12    7     38.29      0.00
   -7   12    7     33.06      0.00
   -5   12    7     12.79      0.00
   -3   12    7     -4.33      0.00
   -1   12    7    -14.03      0.00
    1   12    7     -3.33      0.00
    3   12    7      5.44      0.00
    5   12    7    -26.02      0.00
    7   12    7    -52.15      0.00
    9   12    7    -32.14      0.00
   11   12    7     -6.18      0.00
  -12   13    7     13.70      0.00
  -10   13    7     17.22      0.00
   -8   13    7     23.00      0.00
   -6   13    7    -19.85      0.00
   -4   13    7    -27.05      0.00
   -2   13    7      2.98      0.00
    0   13    7    -23.32      0.00
    2   13    7    -44.99      0.00
    4   13    7      2.34      0.00
    6   13    7     30.82      0.00
    8   13    7     18.62      0.00
   10   13    7     14.42      0.00
   12   13    7     -5.01      0.00
  -13   14    7     18.77      0.00
  -11   14    7     -0.32      0.00
   -9   14    7    -26.34      0.00
   -7   14    7    -42.25      0.00
   -5   14    7    -27.98      0.00
   -3   14    7     13.92      0.00
   -1   14    7     40.41      0.00
    1   14    7     19.64      0.00
    3   14    7    -15.18      0.00
    5   14    7    -17.11      0.00
    7   14    7     -6.97      0.00
    9   14    7    -11.44      0.00
   11   14    7    -15.60      0.00
   13   14    7    -28.05      0.00
  -14   15    7    -44.95      0.00
  -12   15    7    -32.23      0.00
  -10   15    7    -18.59      0.00
   -8   15    7    -14.44      0.00
   -6   15    7     18.22      0.00
   -4   15    7     15.80      0.00
   -2   15    7    -35.03      0.00
    0   15    7    -39.27      0.00
    2   15    7    -10.49      0.00
    4   15    7    -17.00      0.00
    6   15    7    -26.28      0.00
    8   15    7    -16.41      0.00
   10   15    7    -10.29      0.00
   12   15    7      4.52      0.00
   14   15    7     13.70      0.00
  -15   16    7      5.88      0.00
  -13   16    7      8.67      0.00
  -11   16    7     23.02      0.00
   -9   16    7     37.96      0.00
   -7   16    7     60.25      0.00
   -5   16    7     62.00      0.00
   -3   16    7     19.72      0.00
   -1   16    7    -15.67      0.00
    1   16    7      0.38      0.00
    3   16    7     36.67      0.00
    5   16    7     49.88      0.00
    7   16    7     45.36      0.00
    9   16    7     30.64      0.00
   11   16    7      2.72      0.00
   13   16    7     -3.97      0.00
   15   16    7     13.66      0.00
  -16   17    7      4.82      0.00
  -14   17    7     26.17      0.00
  -12   17    7     19.78      0.00
  -10   17    7      8.31      0.00
   -8   17    7     12.75      0.00
   -6   17    7     -1.12      0.00
   -4   17    7      2.82      0.00
   -2   17    7     47.99      0.00
    0   17    7     57.75      0.00
    2   17    7     21.86      0.00
    4   17    7     -0.17      0.00
    6   17    7     -4.53      0.00
    8   17    7     -2.47      0.00
   10   17    7      5.61      0.00
   12   17    7      5.58      0.00
   14   17    7      2.95      0.00
   16   17    7     10.67      0.00
  -17   18    7    -11.36      0.00
  -15   18    7    -15.60      0.00
  -13   18    7    -21.66      0.00
  -11   18    7    -21.24      0.00
   -9   18    7     -5.17      0.00
   -7   18    7     -9.52      0.00
   -5   18    7    -21.38      0.00
   -3   18    7      4.39      0.00
   -1   18    7     34.72      0.00
    1   18    7     27.20      0.00
    3   18    7      3.32      0.00
    5   18    7    -11.69      0.00
    7   18    7    -21.59      0.00
    9   18    7    -14.53      0.00
   11   18    7     18.49      0.00
   13   18    7     29.83      0.00
   15   18    7      5.69      0.00
   17   18    7     -0.74      0.00
  -18   19    7      6.13      0.00
  -16   19    7     14.26      0.00
  -14   19    7      0.44      0.00
  -12   19    7     -2.23      0.00
  -10   19    7      3.47      0.00
   -8   19    7     -5.62      0.00
   -6   19    7      0.12      0.00
   -4   19    7     10.10      0.00
   -2   19    7     -9.62      0.00
    0   19    7    -15.50      0.00
    2   19    7      9.28      0.00
    4   19    7     27.16      0.00
    6   19    7     28.34      0.00
    8   19    7     15.24      0.00
   10   19    7     -1.39      0.00
   12   19    7     -7.95      0.00
   14   19    7     -6.67      0.00
   16   19    7     -3.85      0.00
   18   19    7      2.05      0.00
  -19   20    7     -3.96      0.00
  -17   20    7      7.92      0.00
  -15   20    7      9.88      0.00
  -13   20    7     12.26      0.00
  -11   20    7      1.24      0.00
   -9   20    7    -35.51      0.00
   -7   20    7    -45.68      0.00
   -5   20    7    -21.72      0.00
   -3   20    7    -16.81      0.00
   -1   20    7    -22.49      0.00
    1   20    7    -10.98      0.00
    3   20    7      1.41      0.00
    5   20    7     10.51      0.00
    7   20    7     30.45      0.00
    9   20    7     37.92      0.00
   11   20    7     10.05      0.00
   13   20    7     -7.30      0.00
   15   20    7      7.29      0.00
   17   20    7     10.44      0.00
   19   20    7      5.73      0.00
  -20   21    7     12.29      0.00
  -18   21    7      3.00      0.00
  -16   21    7     -5.18      0.00
  -14   21    7      7.64      0.00
  -12   21    7     17.30      0.00
  -10   21    7     13.54      0.00
   -8   21    7     19.55      0.00
   -6   21    7     16.12      0.00
   -4   21    7     -4.09      0.00
   -2   21    7     -3.58      0.00
    0   21    7      3.52      0.00
    2   21    7     -0.53      0.00
    4   21    7     -1.97      0.00
    6   21    7     -0.77      0.00
    8   21    7      5.21      0.00
   10   21    7      9.88      0.00
   12   21    7      9.52      0.00
   14   21    7      7.54      0.00
   16   21    7      1.67      0.00
   18   21    7     -5.58      0.00
   20   21    7     -7.89      0.00
  -21   22    7     -6.80      0.00
  -19   22    7    -13.64      0.00
  -17   22    7    -20.95      0.00
  -15   22    7    -15.35      0.00
  -13   22    7    -14.41      0.00
  -11   22    7     -8.06      0.00
   -9   22    7     23.03      0.00
   -7   22    7     32.48      0.00
   -5   22    7      2.29      0.00
   -3   22    7    -20.26      0.00
   -1   22    7    -29.73      0.00
    1   22    7    -39.79      0.00
    3   22    7    -32.79      0.00
    5   22    7    -18.70      0.00
    7   22    7    -28.78      0.00
    9   22    7    -40.71      0.00
   11   22    7    -20.71      0.00
   13   22    7     -2.75      0.00
   15   22    7     -6.38      0.00
   17   22    7     -1.16      0.00
   19   22    7      2.57      0.00
   21   22    7     -7.02      0.00
  -22   23    7     -4.93      0.00
  -20   23    7     -6.80      0.00
  -18   23    7     -2.62      0.00
  -16   23    7      1.05      0.00
  -14   23    7    -10.35      0.00
  -12   23    7    -21.60      0.00
  -10   23    7    -18.57      0.00
   -8   23    7    -21.42      0.00
   -6   23    7    -21.95      0.00
   -4   23    7     -4.24      0.00
   -2   23    7     -0.29      0.00
    0   23    7    -11.34      0.00
    2   23    7    -19.37      0.00
    4   23    7    -25.11      0.00
    6   23    7    -23.52      0.00
    8   23    7    -18.24      0.00
   10   23    7    -10.13      0.00
   12   23    7     -5.85      0.00
   14   23    7     -9.67      0.00
   16   23    7    -10.05      0.00
   18   23    7     -5.88      0.00
   20   23    7     -1.13      0.00
   22   23    7     -6.27      0.00
  -23   24    7     13.66      0.00
  -21   24    7     17.62      0.00
  -19   24    7     19.66      0.00
  -17   24    7     17.58      0.00
  -15   24    7      4.79      0.00
  -13   24    7      4.59      0.00
  -11   24    7     10.49      0.00
   -9   24    7     -5.17      0.00
   -7   24    7    -14.31      0.00
   -5   24    7      2.86      0.00
   -3   24    7     15.69      0.00
   -1   24    7     19.84      0.00
    1   24    7     24.87      0.00
    3   24    7      9.43      0.00
    5   24    7    -17.89      0.00
    7   24    7    -14.76      0.00
    9   24    7      4.78      0.00
   11   24    7      2.78      0.00
   13   24    7     -1.31      0.00
   15   24    7      2.79      0.00
   17   24    7     -5.30      0.00
   19   24    7     -7.20      0.00
   21   24    7      6.13      0.00
   23   24    7      8.86      0.00
  -24   25    7      0.78      0.00
  -22   25    7     -6.64      0.00
  -20   25    7     -7.85      0.00
  -18   25    7     -7.48      0.00
  -16   25    7     -7.04      0.00
  -14   25    7      0.39      0.00
  -12   25    7      6.89      0.00
  -10   25    7      0.91      0.00
   -8   25    7     -0.64      0.00
   -6   25    7      2.15      0.00
   -4   25    7     -7.93      0.00
   -2   25    7    -10.03      0.00
    0   25    7      0.22      0.00
    2   25    7      6.80      0.00
    4   25    7      9.56      0.00
    6   25    7      8.13      0.00
    8   25    7      4.52      0.00
   10   25    7     -2.44      0.00
   12   25    7     -4.23      0.00
   14   25    7      4.71      0.00
   16   25    7     11.44      0.00
   18   25    7     11.30      0.00
   20   25    7      4.68      0.00
   22   25    7     -0.83      0.00
   24   25    7     -1.06      0.00
  -25   26    7      1.75      0.00
  -23   26    7     -7.42      0.00
  -21   26    7     -6.05      0.00
  -19   26    7     -0.88      0.00
  -17   26    7      5.68      0.00
  -15   26    7     16.23      0.00
  -13   26    7     10.36      0.00
  -11   26    7     -5.61      0.00
   -9   26    7     -2.67      0.00
   -7   26    7      6.31      0.00
   -5   26    7      3.95      0.00
   -3   26    7      3.55      0.00
   -1   26    7      3.79      0.00
    1   26    7     -7.13      0.00
    3   26    7     -6.21      0.00
    5   26    7     14.46      0.00
    7   26    7     15.58      0.00
    9   26    7     -1.76      0.00
   11   26    7     -6.48      0.00
   13   26    7     -9.64      0.00
   15   26    7    -12.47      0.00
   17   26    7     -0.88      0.00
   19   26    7      3.50      0.00
   21   26    7     -7.32      0.00
   23   26    7    -10.11      0.00
   25   26    7     -2.69      0.00
  -26   27    7      1.39      0.00
  -24   27    7      1.15      0.00
  -22   27    7      4.65      0.00
  -20   27    7      3.78      0.00
  -18   27    7     -1.78      0.00
  -16   27    7     -5.94      0.00
  -14   27    7    -10.40      0.00
  -12   27    7    -11.79      0.00
  -10   27    7     -2.63      0.00
   -8   27    7      1.56      0.00
   -6   27    7     -2.36      0.00
   -4   27    7      1.89      0.00
   -2   27    7      4.78      0.00
    0   27    7      2.45      0.00
    2   27    7      3.73      0.00
    4   27    7      4.95      0.00
    6   27    7      1.67      0.00
    8   27    7     -3.73      0.00
   10   27    7     -2.89      0.00
   12   27    7     -0.41      0.00
   14   27    7     -4.88      0.00
   16   27    7    -11.37      0.00
   18   27    7    -13.52      0.00
   20   27    7     -6.27      0.00
   22   27    7      6.77      0.00
   24   27    7     14.20      0.00
   26   27    7     10.26      0.00
  -25   28    7     -1.37      0.00
  -23   28    7      3.10      0.00
  -21   28    7      2.68      0.00
  -19   28    7     -0.71      0.00
  -17   28    7     -4.09      0.00
  -15   28    7     -9.05      0.00
  -13   28    7     -1.53      0.00
  -11   28    7     14.98      0.00
   -9   28    7     20.35      0.00
   -7   28    7     17.47      0.00
   -5   28    7     14.84      0.00
   -3   28    7      9.41      0.00
   -1   28    7      5.07      0.00
    1   28    7     16.51      0.00
    3   28    7     27.93      0.00
    5   28    7     14.92      0.00
    7   28    7      2.56      0.00
    9   28    7      3.27      0.00
   11   28    7      0.88      0.00
   13   28    7      3.23      0.00
   15   28    7      4.60      0.00
   17   28    7     -6.59      0.00
   19   28    7    -11.42      0.00
   21   28    7     -2.90      0.00
   23   28    7      2.02      0.00
   25   28    7     -0.95      0.00
  -24   29    7      4.45      0.00
  -22   29    7      8.29      0.00
  -20   29    7      9.37      0.00
  -18   29    7     11.06      0.00
  -16   29    7     10.37      0.00
  -14   29    7     11.14      0.00
  -12   29    7     12.71      0.00
  -10   29    7      6.19      0.00
   -8   29    7      3.73      0.00
   -6   29    7      8.40      0.00
   -4   29    7      7.74      0.00
   -2   29    7      5.03      0.00
    0   29    7      1.65      0.00
    2   29    7     -4.11      0.00
    4   29    7     -5.97      0.00
    6   29    7      1.36      0.00
    8   29    7     12.07      0.00
   10   29    7     15.09      0.00
   12   29    7     11.06      0.00
   14   29    7      8.67      0.00
   16   29    7     12.47      0.00
   18   29    7     15.66      0.00
   20   29    7      9.50      0.00
   22   29    7     -4.40      0.00
   24   29    7    -14.37      0.00
  -23   30    7     -4.23      0.00
  -21   30    7     -6.33      0.00
  -19   30    7     -4.78      0.00
  -17   30    7     -3.55      0.00
  -15   30    7     -1.32      0.00
  -13   30    7     -4.27      0.00
  -11   30    7    -12.24      0.00
   -9   30    7    -18.01      0.00
   -7   30    7    -19.09      0.00
   -5   30    7    -14.03      0.00
   -3   30    7     -6.16      0.00
   -1   30    7      1.42      0.00
    1   30    7     -2.22      0.00
    3   30    7    -15.50      0.00
    5   30    7    -11.90      0.00
    7   30    7      2.70      0.00
    9   30    7     11.38      0.00
   11   30    7     16.84      0.00
   13   30    7     13.08      0.00
   15   30    7      8.96      0.00
   17   30    7     14.31      0.00
   19   30    7     15.98      0.00
   21   30    7      8.74      0.00
   23   30    7      1.52      0.00
  -20   31    7     -7.43      0.00
  -18   31    7     -0.91      0.00
  -16   31    7      7.35      0.00
  -14   31    7      9.14      0.00
  -12   31    7      3.09      0.00
  -10   31    7      3.82      0.00
   -8   31    7      5.39      0.00
   -6   31    7      4.24      0.00
   -4   31    7      4.10      0.00
   -2   31    7      2.36      0.00
    0   31    7      4.27      0.00
    2   31    7     10.28      0.00
    4   31    7     11.42      0.00
    6   31    7      1.32      0.00
    8   31    7    -10.86      0.00
   10   31    7    -14.60      0.00
   12   31    7     -9.67      0.00
   14   31    7     -1.98      0.00
   16   31    7     -3.04      0.00
   18   31    7     -7.76      0.00
   20   31    7     -6.39      0.00
  -19   32    7     -1.64      0.00
  -17   32    7      0.15      0.00
  -15   32    7      1.86      0.00
  -13   32    7      0.25      0.00
  -11   32    7     -2.72      0.00
   -9   32    7     -1.49      0.00
   -7   32    7      1.79      0.00
   -5   32    7     -0.16      0.00
   -3   32    7     -0.70      0.00
   -1   32    7     -0.44      0.00
    1   32    7     -1.53      0.00
    3   32    7      6.48      0.00
    5   32    7     11.72      0.00
    7   32    7      4.58      0.00
    9   32    7     -4.59      0.00
   11   32    7    -10.43      0.00
   13   32    7     -7.54      0.00
   15   32    7     -3.46      0.00
   17   32    7     -5.63      0.00
   19   32    7     -7.31      0.00
  -18   33    7     -4.16      0.00
  -16   33    7    -13.21      0.00
  -14   33    7    -15.07      0.00
  -12   33    7     -4.85      0.00
  -10   33    7     -0.32      0.00
   -8   33    7     -2.76      0.00
   -6   33    7     -8.18      0.00
   -4   33    7     -9.71      0.00
   -2   33    7     -1.73      0.00
    0   33    7      3.34      0.00
    2   33    7     -0.10      0.00
    4   33    7     -2.50      0.00
    6   33    7      5.94      0.00
    8   33    7     13.10      0.00
   10   33    7     10.42      0.00
   12   33    7      3.02      0.00
   14   33    7     -6.06      0.00
   16   33    7     -4.52      0.00
   18   33    7      2.57      0.00
  -15   34    7     -8.18      0.00
  -13   34    7     -5.07      0.00
  -11   34    7      1.41      0.00
   -9   34    7     -0.04      0.00
   -7   34    7     -7.06      0.00
   -5   34    7     -9.26      0.00
   -3   34    7    -13.79      0.00
   -1   34    7    -20.42      0.00
    1   34    7    -14.98      0.00
    3   34    7    -10.13      0.00
    5   34    7    -13.37      0.00
    7   34    7     -9.41      0.00
    9   34    7      1.02      0.00
   11   34    7      8.12      0.00
   13   34    7      7.03      0.00
   15   34    7      3.00      0.00
  -14   35    7      7.19      0.00
  -12   35    7     -2.11      0.00
  -10   35    7     -6.89      0.00
   -8   35    7     -2.56      0.00
   -6   35    7      6.79      0.00
   -4   35    7      8.20      0.00
   -2   35    7     -4.61      0.00
    0   35    7    -15.74      0.00
    2   35    7    -13.87      0.00
    4   35    7     -5.17      0.00
    6   35    7     -5.88      0.00
    8   35    7     -6.53      0.00
   10   35    7      0.12      0.00
   12   35    7      3.61      0.00
   14   35    7      6.09      0.00
  -11   36    7      0.71      0.00
   -9   36    7      4.30      0.00
   -7   36    7     11.18      0.00
   -5   36    7     12.25      0.00
   -3   36    7     13.37      0.00
   -1   36    7     19.27      0.00
    1   36    7     13.14      0.00
    3   36    7      0.25      0.00
    5   36    7     -1.25      0.00
    7   36    7     -2.98      0.00
    9   36    7    -10.32      0.00
   11   36    7    -13.40      0.00
   -8   37    7     -2.70      0.00
   -6   37    7     -9.98      0.00
   -4   37    7     -9.64      0.00
   -2   37    7      0.19      0.00
    0   37    7      8.26      0.00
    2   37    7      6.76      0.00
    4   37    7     -3.99      0.00
    6   37    7     -5.60      0.00
    8   37    7     -2.79      0.00
    0    0    8    145.60      0.00
    1    1    8     -9.12      0.00
    0    2    8    -58.73      0.00
    2    2    8     18.87      0.00
   -1    3    8    -43.07      0.00
    1    3    8      5.82      0.00
    3    3    8     70.71      0.00
   -2    4    8    -80.89      0.00
    0    4    8      1.84      0.00
    2    4    8    -35.87      0.00
    4    4    8    -74.24      0.00
   -3    5    8     55.19      0.00
   -1    5    8     21.37      0.00
    1    5    8    -17.50      0.00
    3    5    8    -86.34      0.00
    5    5    8    -87.35      0.00
   -4    6    8      5.67      0.00
   -2    6    8     25.27      0.00
    0    6    8    -51.05      0.00
    2    6    8    -37.08      0.00
    4    6    8     -2.37      0.00
    6    6    8    -54.04      0.00
   -5    7    8    -14.42      0.00
   -3    7    8      5.94      0.00
   -1    7    8     -1.29      0.00
    1    7    8    -18.00      0.00
    3    7    8     27.40      0.00
    5    7    8     53.58      0.00
    7    7    8      3.21      0.00
   -6    8    8     47.79      0.00
   -4    8    8     -5.12      0.00
   -2    8    8    -43.21      0.00
    0    8    8      5.88      0.00
    2    8    8     -3.14      0.00
    4    8    8    -37.69      0.00
    6    8    8      4.41      0.00
    8    8    8     14.06      0.00
   -7    9    8    -27.09      0.00
   -5    9    8    -16.91      0.00
   -3    9    8    -19.44      0.00
   -1    9    8     19.01      0.00
    1    9    8     72.76      0.00
    3    9    8     39.45      0.00
    5    9    8    -21.19      0.00
    7    9    8    -11.08      0.00
    9    9    8     10.76      0.00
   -8   10    8     26.70      0.00
   -6   10    8     10.03      0.00
   -4   10    8     44.43      0.00
   -2   10    8     78.52      0.00
    0   10    8     45.08      0.00
    2   10    8     42.80      0.00
    4   10    8     64.22      0.00
    6   10    8     23.01      0.00
    8   10    8     -6.75      0.00
   10   10    8      9.40      0.00
   -9   11    8      1.23      0.00
   -7   11    8      3.14      0.00
   -5   11    8     -5.82      0.00
   -3   11    8     11.36      0.00
   -1   11    8     -8.01      0.00
    1   11    8    -58.63      0.00
    3   11    8    -33.61      0.00
    5   11    8     37.53      0.00
    7   11    8     48.63      0.00
    9   11    8     26.99      0.00
   11   11    8     15.39      0.00
  -10   12    8      0.96      0.00
   -8   12    8    -16.71      0.00
   -6   12    8      0.65      0.00
   -4   12    8     -3.87      0.00
   -2   12    8    -18.72      0.00
    0   12    8      4.19      0.00
    2   12    8      7.85      0.00
    4   12    8    -13.37      0.00
    6   12    8      4.74      0.00
    8   12    8     24.20      0.00
   10   12    8     14.29      0.00
   12   12    8     18.47      0.00
  -11   13    8     -3.42      0.00
   -9   13    8      4.08      0.00
   -7   13    8     22.10      0.00
   -5   13    8     29.70      0.00
   -3   13    8    -15.09      0.00
   -1   13    8    -32.83      0.00
    1   13    8      9.13      0.00
    3   13    8     14.86      0.00
    5   13    8    -25.45      0.00
    7   13    8    -30.80      0.00
    9   13    8    -10.16      0.00
   11   13    8      4.74      0.00
   13   13    8     28.23      0.00
  -12   14    8    -12.25      0.00
  -10   14    8     -5.29      0.00
   -8   14    8      8.01      0.00
   -6   14    8     -2.12      0.00
   -4   14    8     -6.16      0.00
   -2   14    8      3.36      0.00
    0   14    8     -3.17      0.00
    2   14    8     -1.04      0.00
    4   14    8     19.07      0.00
    6   14    8     19.00      0.00
    8   14    8     11.18      0.00
   10   14    8      9.28      0.00
   12   14    8     -4.98      0.00
   14   14    8     -4.16      0.00
  -13   15    8     30.79      0.00
  -11   15    8      3.42      0.00
   -9   15    8    -12.26      0.00
   -7   15    8    -37.13      0.00
   -5   15    8    -46.32      0.00
   -3   15    8     11.70      0.00
   -1   15    8     54.93      0.00
    1   15    8     19.77      0.00
    3   15    8    -17.18      0.00
    5   15    8    -15.12      0.00
    7   15    8    -17.05      0.00
    9   15    8    -20.64      0.00
   11   15    8    -12.26      0.00
   13   15    8    -19.12      0.00
   15   15    8    -24.10      0.00
  -14   16    8    -12.09      0.00
  -12   16    8    -15.07      0.00
  -10   16    8    -17.87      0.00
   -8   16    8    -28.60      0.00
   -6   16    8    -31.25      0.00
   -4   16    8    -31.75      0.00
   -2   16    8    -39.08      0.00
    0   16    8    -36.48      0.00
    2   16    8    -30.22      0.00
    4   16    8    -31.02      0.00
    6   16    8    -27.79      0.00
    8   16    8    -24.71      0.00
   10   16    8    -14.58      0.00
   12   16    8      7.88      0.00
   14   16    8      9.59      0.00
   16   16    8     -0.03      0.00
  -15   17    8      0.04      0.00
  -13   17    8      1.17      0.00
  -11   17    8     18.20      0.00
   -9   17    8     15.48      0.00
   -7   17    8     24.01      0.00
   -5   17    8     35.44      0.00
   -3   17    8    -10.83      0.00
   -1   17    8    -56.68      0.00
    1   17    8    -32.39      0.00
    3   17    8      9.31      0.00
    5   17    8     23.30      0.00
    7   17    8     25.69      0.00
    9   17    8     12.77      0.00
   11   17    8    -16.21      0.00
   13   17    8    -21.55      0.00
   15   17    8     -4.97      0.00
   17   17    8     -6.11      0.00
  -16   18    8    -12.67      0.00
  -14   18    8      2.01      0.00
  -12   18    8     11.76      0.00
  -10   18    8      5.69      0.00
   -8   18    8      3.24      0.00
   -6   18    8      6.99      0.00
   -4   18    8      7.61      0.00
   -2   18    8      9.86      0.00
    0   18    8      6.65      0.00
    2   18    8     -4.08      0.00
    4   18    8    -13.61      0.00
    6   18    8    -15.63      0.00
    8   18    8     -4.30      0.00
   10   18    8     -3.85      0.00
   12   18    8    -18.73      0.00
   14   18    8    -13.45      0.00
   16   18    8     -3.44      0.00
   18   18    8    -13.56      0.00
  -17   19    8     -8.92      0.00
  -15   19    8    -14.48      0.00
  -13   19    8    -14.99      0.00
  -11   19    8    -15.53      0.00
   -9   19    8      9.83      0.00
   -7   19    8     20.30      0.00
   -5   19    8      0.25      0.00
   -3   19    8     12.37      0.00
   -1   19    8     36.97      0.00
    1   19    8     20.54      0.00
    3   19    8     -5.84      0.00
    5   19    8    -17.12      0.00
    7   19    8    -23.35      0.00
    9   19    8    -14.31      0.00
   11   19    8     12.90      0.00
   13   19    8     20.51      0.00
   15   19    8     -0.43      0.00
   17   19    8     -9.98      0.00
   19   19    8    -11.91      0.00
  -18   20    8     11.49      0.00
  -16   20    8     15.32      0.00
  -14   20    8      3.94      0.00
  -12   20    8     -7.10      0.00
  -10   20    8      6.72      0.00
   -8   20    8     21.31      0.00
   -6   20    8     18.25      0.00
   -4   20    8     15.06      0.00
   -2   20    8     10.62      0.00
    0   20    8      4.93      0.00
    2   20    8      6.49      0.00
    4   20    8     13.75      0.00
    6   20    8     13.86      0.00
    8   20    8     -4.05      0.00
   10   20    8     -9.49      0.00
   12   20    8      3.11      0.00
   14   20    8     -1.12      0.00
   16   20    8     -4.54      0.00
   18   20    8      7.98      0.00
   20   20    8      5.67      0.00
  -19   21    8    -14.78      0.00
  -17   21    8      2.66      0.00
  -15   21    8      7.40      0.00
  -13   21    8      4.12      0.00
  -11   21    8     -1.45      0.00
   -9   21    8    -29.85      0.00
   -7   21    8    -44.40      0.00
   -5   21    8    -14.79      0.00
   -3   21    8      4.27      0.00
   -1   21    8      2.48      0.00
    1   21    8     12.16      0.00
    3   21    8     15.29      0.00
    5   21    8     11.16      0.00
    7   21    8     18.73      0.00
    9   21    8     22.63      0.00
   11   21    8      7.99      0.00
   13   21    8     -1.38      0.00
   15   21    8      8.06      0.00
   17   21    8      9.65      0.00
   19   21    8      8.98      0.00
   21   21    8     12.29      0.00
  -20   22    8     11.41      0.00
  -18   22    8      9.52      0.00
  -16   22    8      3.26      0.00
  -14   22    8      9.22      0.00
  -12   22    8     22.06      0.00
  -10   22    8     12.60      0.00
   -8   22    8     -0.43      0.00
   -6   22    8      6.51      0.00
   -4   22    8     12.59      0.00
   -2   22    8     18.05      0.00
    0   22    8     28.94      0.00
    2   22    8     31.35      0.00
    4   22    8     19.25      0.00
    6   22    8      9.70      0.00
    8   22    8     19.78      0.00
   10   22    8     20.59      0.00
   12   22    8      7.39      0.00
   14   22    8     10.64      0.00
   16   22    8      9.60      0.00
   18   22    8     -4.58      0.00
   20   22    8     -3.24      0.00
   22   22    8      9.07      0.00
  -21   23    8     -1.92      0.00
  -19   23    8      0.39      0.00
  -17   23    8     -8.27      0.00
  -15   23    8     -6.67      0.00
  -13   23    8     -1.16      0.00
  -11   23    8      1.49      0.00
   -9   23    8     19.84      0.00
   -7   23    8     32.18      0.00
   -5   23    8      7.52      0.00
   -3   23    8    -14.95      0.00
   -1   23    8    -15.75      0.00
    1   23    8    -16.20      0.00
    3   23    8     -2.75      0.00
    5   23    8     15.77      0.00
    7   23    8     10.27      0.00
    9   23    8     -4.94      0.00
   11   23    8     -5.29      0.00
   13   23    8      0.82      0.00
   15   23    8      2.31      0.00
   17   23    8     10.52      0.00
   19   23    8     12.10      0.00
   21   23    8      2.67      0.00
   23   23    8      7.67      0.00
  -22   24    8     -8.25      0.00
  -20   24    8    -11.07      0.00
  -18   24    8    -10.15      0.00
  -16   24    8     -0.36      0.00
  -14   24    8      0.73      0.00
  -12   24    8    -12.53      0.00
  -10   24    8    -11.05      0.00
   -8   24    8     -1.63      0.00
   -6   24    8     -5.55      0.00
   -4   24    8     -6.14      0.00
   -2   24    8     -5.35      0.00
    0   24    8    -14.01      0.00
    2   24    8    -16.58      0.00
    4   24    8     -0.62      0.00
    6   24    8     13.34      0.00
    8   24    8      3.87      0.00
   10   24    8     -1.36      0.00
   12   24    8      2.81      0.00
   14   24    8     -7.83      0.00
   16   24    8    -10.84      0.00
   18   24    8     -0.06      0.00
   20   24    8     -1.04      0.00
   22   24    8     -8.26      0.00
   24   24    8     -5.92      0.00
  -23   25    8     15.50      0.00
  -21   25    8     13.99      0.00
  -19   25    8      8.14      0.00
  -17   25    8      6.02      0.00
  -15   25    8     -0.65      0.00
  -13   25    8     -3.80      0.00
  -11   25    8      0.87      0.00
   -9   25    8     -4.59      0.00
   -7   25    8    -14.11      0.00
   -5   25    8     -3.41      0.00
   -3   25    8      7.02      0.00
   -1   25    8      4.01      0.00
    1   25    8      6.96      0.00
    3   25    8      0.36      0.00
    5   25    8    -17.40      0.00
    7   25    8    -15.93      0.00
    9   25    8     -0.65      0.00
   11   25    8      6.02      0.00
   13   25    8      5.88      0.00
   15   25    8      1.92      0.00
   17   25    8    -10.78      0.00
   19   25    8    -13.52      0.00
   21   25    8     -1.87      0.00
   23   25    8     -0.22      0.00
   25   25    8     -5.05      0.00
  -24   26    8     -2.04      0.00
  -22   26    8     -2.81      0.00
  -20   26    8     -2.14      0.00
  -18   26    8     -0.68      0.00
  -16   26    8     -7.44      0.00
  -14   26    8     -9.05      0.00
  -12   26    8      4.12      0.00
  -10   26    8      6.28      0.00
   -8   26    8     -3.23      0.00
   -6   26    8     -6.31      0.00
   -4   26    8    -11.57      0.00
   -2   26    8    -17.46      0.00
    0   26    8    -12.03      0.00
    2   26    8     -5.00      0.00
    4   26    8    -13.92      0.00
    6   26    8    -22.67      0.00
    8   26    8     -9.92      0.00
   10   26    8     -2.01      0.00
   12   26    8     -4.07      0.00
   14   26    8      5.76      0.00
   16   26    8     10.37      0.00
   18   26    8      4.07      0.00
   20   26    8      4.57      0.00
   22   26    8      6.30      0.00
   24   26    8      0.79      0.00
   26   26    8     -3.98      0.00
  -25   27    8     -4.38      0.00
  -23   27    8    -11.24      0.00
  -21   27    8     -9.73      0.00
  -19   27    8     -1.86      0.00
  -17   27    8      5.83      0.00
  -15   27    8     13.07      0.00
  -13   27    8     12.53      0.00
  -11   27    8      2.83      0.00
   -9   27    8     -1.29      0.00
   -7   27    8      3.36      0.00
   -5   27    8      0.71      0.00
   -3   27    8     -3.50      0.00
   -1   27    8     -3.47      0.00
    1   27    8    -15.73      0.00
    3   27    8    -23.72      0.00
    5   27    8    -10.33      0.00
    7   27    8     -0.33      0.00
    9   27    8     -1.19      0.00
   11   27    8     -1.27      0.00
   13   27    8     -4.57      0.00
   15   27    8     -4.86      0.00
   17   27    8      6.32      0.00
   19   27    8      9.87      0.00
   21   27    8     -0.19      0.00
   23   27    8     -5.41      0.00
   25   27    8     -3.29      0.00
  -24   28    8      3.12      0.00
  -22   28    8      1.26      0.00
  -20   28    8     -1.05      0.00
  -18   28    8     -5.64      0.00
  -16   28    8     -3.92      0.00
  -14   28    8     -4.83      0.00
  -12   28    8    -17.32      0.00
  -10   28    8    -21.48      0.00
   -8   28    8    -15.24      0.00
   -6   28    8    -10.67      0.00
   -4   28    8     -4.66      0.00
   -2   28    8      3.82      0.00
    0   28    8      5.89      0.00
    2   28    8     -1.69      0.00
    4   28    8     -2.10      0.00
    6   28    8      1.92      0.00
    8   28    8     -6.03      0.00
   10   28    8     -6.48      0.00
   12   28    8      3.01      0.00
   14   28    8      1.52      0.00
   16   28    8     -2.28      0.00
   18   28    8     -1.32      0.00
   20   28    8     -2.83      0.00
   22   28    8     -2.44      0.00
   24   28    8      3.13      0.00
  -23   29    8      4.51      0.00
  -21   29    8      4.41      0.00
  -19   29    8      1.23      0.00
  -17   29    8     -3.13      0.00
  -15   29    8     -7.13      0.00
  -13   29    8     -6.44      0.00
  -11   29    8      0.75      0.00
   -9   29    8      6.94      0.00
   -7   29    8      5.64      0.00
   -5   29    8      3.86      0.00
   -3   29    8      3.06      0.00
   -1   29    8      1.50      0.00
    1   29    8     10.92      0.00
    3   29    8     22.38      0.00
    5   29    8     13.49      0.00
    7   29    8     -2.63      0.00
    9   29    8    -13.13      0.00
   11   29    8    -21.73      0.00
   13   29    8    -17.78      0.00
   15   29    8     -9.88      0.00
   17   29    8    -12.58      0.00
   19   29    8    -11.48      0.00
   21   29    8     -1.58      0.00
   23   29    8      5.94      0.00
  -22   30    8      6.31      0.00
  -20   30    8      6.37      0.00
  -18   30    8      5.58      0.00
  -16   30    8      1.79      0.00
  -14   30    8      1.61      0.00
  -12   30    8     10.48      0.00
  -10   30    8     13.52      0.00
   -8   30    8      9.68      0.00
   -6   30    8      4.48      0.00
   -4   30    8     -0.23      0.00
   -2   30    8     -6.20      0.00
    0   30    8    -14.70      0.00
    2   30    8    -12.53      0.00
    4   30    8     -4.70      0.00
    6   30    8     -0.34      0.00
    8   30    8      6.16      0.00
   10   30    8      3.93      0.00
   12   30    8     -7.08      0.00
   14   30    8    -10.49      0.00
   16   30    8     -7.57      0.00
   18   30    8     -5.00      0.00
   20   30    8     -2.11      0.00
   22   30    8     -0.28      0.00
  -19   31    8     -1.75      0.00
  -17   31    8     -2.25      0.00
  -15   31    8     -2.52      0.00
  -13   31    8     -1.67      0.00
  -11   31    8     -2.46      0.00
   -9   31    8     -5.14      0.00
   -7   31    8     -4.80      0.00
   -5   31    8     -1.51      0.00
   -3   31    8      1.52      0.00
   -1   31    8      3.46      0.00
    1   31    8     -0.23      0.00
    3   31    8    -10.84      0.00
    5   31    8    -11.43      0.00
    7   31    8     -1.14      0.00
    9   31    8     10.15      0.00
   11   31    8     23.64      0.00
   13   31    8     22.85      0.00
   15   31    8     11.06      0.00
   17   31    8      6.75      0.00
   19   31    8      3.28      0.00
  -18   32    8      3.60      0.00
  -16   32    8      7.65      0.00
  -14   32    8      8.89      0.00
  -12   32    8      5.02      0.00
  -10   32    8      4.93      0.00
   -8   32    8      7.34      0.00
   -6   32    8     11.82      0.00
   -4   32    8     12.35      0.00
   -2   32    8      8.19      0.00
    0   32    8     14.52      0.00
    2   32    8     19.35      0.00
    4   32    8      9.20      0.00
    6   32    8     -4.93      0.00
    8   32    8    -13.16      0.00
   10   32    8     -9.99      0.00
   12   32    8      0.79      0.00
   14   32    8      8.25      0.00
   16   32    8      8.43      0.00
   18   32    8      6.53      0.00
  -17   33    8      2.00      0.00
  -15   33    8      4.86      0.00
  -13   33    8      2.62      0.00
  -11   33    8     -1.80      0.00
   -9   33    8     -2.95      0.00
   -7   33    8     -1.31      0.00
   -5   33    8     -0.33      0.00
   -3   33    8      0.12      0.00
   -1   33    8      2.21      0.00
    1   33    8      2.22      0.00
    3   33    8      7.37      0.00
    5   33    8     13.06      0.00
    7   33    8      9.92      0.00
    9   33    8      3.31      0.00
   11   33    8     -9.35      0.00
   13   33    8    -13.28      0.00
   15   33    8     -4.58      0.00
   17   33    8     -0.15      0.00
  -14   34    8     -2.17      0.00
  -12   34    8     -0.85      0.00
  -10   34    8      0.22      0.00
   -8   34    8      1.99      0.00
   -6   34    8     -0.28      0.00
   -4   34    8      0.84      0.00
   -2   34    8     12.46      0.00
    0   34    8     13.27      0.00
    2   34    8      3.37      0.00
    4   34    8      5.64      0.00
    6   34    8     16.26      0.00
    8   34    8     16.37      0.00
   10   34    8      6.64      0.00
   12   34    8     -2.37      0.00
   14   34    8     -6.78      0.00
  -13   35    8     -0.26      0.00
  -11   35    8      3.65      0.00
   -9   35    8      4.14      0.00
   -7   35    8      0.30      0.00
   -5   35    8     -3.67      0.00
   -3   35    8     -4.19      0.00
   -1   35    8     -6.66      0.00
    1   35    8     -3.57      0.00
    3   35    8     -1.67      0.00
    5   35    8     -6.80      0.00
    7   35    8     -6.62      0.00
    9   35    8     -3.97      0.00
   11   35    8      4.43      0.00
   13   35    8     10.82      0.00
   -8   36    8     -5.50      0.00
   -6   36    8     -3.28      0.00
   -4   36    8     -1.88      0.00
   -2   36    8    -12.37      0.00
    0   36    8    -18.95      0.00
    2   36    8     -9.94      0.00
    4   36    8     -2.84      0.00
    6   36    8     -4.04      0.00
    8   36    8      2.11      0.00
   10   36    8     10.97      0.00
   -5   37    8      4.24      0.00
   -3   37    8      3.54      0.00
   -1   37    8      6.17      0.00
    1   37    8      4.24      0.00
    3   37    8     -0.25      0.00
    5   37    8      2.91      0.00
    0    1    9     89.64      0.00
   -1    2    9     57.02      0.00
    1    2    9     47.05      0.00
   -2    3    9     38.40      0.00
    0    3    9    -15.77      0.00
    2    3    9     -8.91      0.00
   -3    4    9      8.19      0.00
   -1    4    9    -20.88      0.00
    1    4    9    -20.15      0.00
    3    4    9     57.23      0.00
   -4    5    9    -27.27      0.00
   -2    5    9    -10.77      0.00
    0    5    9     37.42      0.00
    2    5    9     39.85      0.00
    4    5    9     38.13      0.00
   -5    6    9     43.08      0.00
   -3    6    9     -6.30      0.00
   -1    6    9     23.41      0.00
    1    6    9     50.95      0.00
    3    6    9     -9.41      0.00
    5    6    9      1.56      0.00
   -6    7    9    -71.62      0.00
   -4    7    9    -47.06      0.00
   -2    7    9    -30.89      0.00
    0    7    9    -31.17      0.00
    2    7    9    -10.38      0.00
    4    7    9    -12.08      0.00
    6    7    9    -29.52      0.00
   -7    8    9     -5.71      0.00
   -5    8    9     -8.02      0.00
   -3    8    9     34.99      0.00
   -1    8    9      0.66      0.00
    1    8    9    -50.07      0.00
    3    8    9     -4.07      0.00
    5    8    9     12.56      0.00
    7    8    9    -40.63      0.00
   -8    9    9     43.35      0.00
   -6    9    9     57.17      0.00
   -4    9    9     24.55      0.00
   -2    9    9    -16.35      0.00
    0    9    9    -49.69      0.00
    2    9    9    -76.87      0.00
    4    9    9    -54.03      0.00
    6    9    9     -5.35      0.00
    8    9    9      0.29      0.00
   -9   10    9     -4.39      0.00
   -7   10    9     -9.58      0.00
   -5   10    9     -9.98      0.00
   -3   10    9    -47.57      0.00
   -1   10    9    -22.50      0.00
    1   10    9     30.92      0.00
    3   10    9     -4.48      0.00
    5   10    9    -41.74      0.00
    7   10    9     -7.55      0.00
    9   10    9     12.27      0.00
  -10   11    9    -13.58      0.00
   -8   11    9    -19.18      0.00
   -6   11    9    -17.91      0.00
   -4   11    9     -2.88      0.00
   -2   11    9     14.42      0.00
    0   11    9     37.54      0.00
    2   11    9     53.28      0.00
    4   11    9     19.18      0.00
    6   11    9    -34.69      0.00
    8   11    9    -43.34      0.00
   10   11    9    -31.09      0.00
  -11   12    9    -28.16      0.00
   -9   12    9    -14.71      0.00
   -7   12    9    -20.23      0.00
   -5   12    9    -25.16      0.00
   -3   12    9     12.73      0.00
   -1   12    9     10.09      0.00
    1   12    9    -31.78      0.00
    3   12    9    -10.36      0.00
    5   12    9     31.51      0.00
    7   12    9     17.41      0.00
    9   12    9     -3.51      0.00
   11   12    9    -17.19      0.00
  -12   13    9     41.07      0.00
  -10   13    9     29.18      0.00
   -8   13    9     17.00      0.00
   -6   13    9      4.71      0.00
   -4   13    9     10.16      0.00
   -2   13    9     26.84      0.00
    0   13    9     19.09      0.00
    2   13    9     -1.70      0.00
    4   13    9     10.44      0.00
    6   13    9     35.57      0.00
    8   13    9     27.83      0.00
   10   13    9     12.24      0.00
   12   13    9      7.17      0.00
  -13   14    9     -8.94      0.00
  -11   14    9     13.28      0.00
   -9   14    9     17.24      0.00
   -7   14    9     31.63      0.00
   -5   14    9     37.88      0.00
   -3   14    9     -5.59      0.00
   -1   14    9    -26.80      0.00
    1   14    9      3.77      0.00
    3   14    9      7.57      0.00
    5   14    9    -13.95      0.00
    7   14    9     -8.32      0.00
    9   14    9      3.10      0.00
   11   14    9     13.83      0.00
   13   14    9     36.17      0.00
  -14   15    9    -32.88      0.00
  -12   15    9    -28.39      0.00
  -10   15    9    -11.08      0.00
   -8   15    9      9.04      0.00
   -6   15    9     32.76      0.00
   -4   15    9     24.17      0.00
   -2   15    9    -10.06      0.00
    0   15    9    -13.14      0.00
    2   15    9     11.91      0.00
    4   15    9     17.54      0.00
    6   15    9     11.19      0.00
    8   15    9     20.05      0.00
   10   15    9     16.66      0.00
   12   15    9     -0.86      0.00
   14   15    9      4.40      0.00
  -15   16    9      6.03      0.00
  -13   16    9     13.36      0.00
  -11   16    9     -1.90      0.00
   -9   16    9     -5.01      0.00
   -7   16    9    -14.32      0.00
   -5   16    9    -19.43      0.00
   -3   16    9     20.47      0.00
   -1   16    9     50.92      0.00
    1   16    9     26.92      0.00
    3   16    9      1.65      0.00
    5   16    9     -2.48      0.00
    7   16    9     -5.38      0.00
    9   16    9      0.22      0.00
   11   16    9      4.81      0.00
   13   16    9     -6.96      0.00
   15   16    9    -13.22      0.00
  -16   17    9      8.29      0.00
  -14   17    9      9.60      0.00
  -12   17    9     -2.71      0.00
  -10   17    9    -10.08      0.00
   -8   17    9    -15.12      0.00
   -6   17    9    -36.27      0.00
   -4   17    9    -32.31      0.00
   -2   17    9      3.94      0.00
    0   17    9     15.99      0.00
    2   17    9     -0.06      0.00
    4   17    9     -4.07      0.00
    6   17    9     -0.44      0.00
    8   17    9     -6.72      0.00
   10   17    9      7.14      0.00
   12   17    9     34.69      0.00
   14   17    9     26.65      0.00
   16   17    9     12.34      0.00
  -17   18    9     20.45      0.00
  -15   18    9     15.03      0.00
  -13   18    9      7.07      0.00
  -11   18    9     13.17      0.00
   -9   18    9      9.63      0.00
   -7   18    9     10.81      0.00
   -5   18    9     20.66      0.00
   -3   18    9     -0.03      0.00
   -1   18    9    -24.36      0.00
    1   18    9    -10.41      0.00
    3   18    9     12.30      0.00
    5   18    9     24.03      0.00
    7   18    9     24.32      0.00
    9   18    9      7.24      0.00
   11   18    9     -8.40      0.00
   13   18    9     -7.36      0.00
   15   18    9      2.63      0.00
   17   18    9     11.81      0.00
  -18   19    9    -16.76      0.00
  -16   19    9     -8.58      0.00
  -14   19    9     -4.00      0.00
  -12   19    9      4.27      0.00
  -10   19    9     -7.40      0.00
   -8   19    9    -25.74      0.00
   -6   19    9    -12.16      0.00
   -4   19    9     -3.20      0.00
   -2   19    9    -22.44      0.00
    0   19    9    -28.67      0.00
    2   19    9    -18.27      0.00
    4   19    9    -19.47      0.00
    6   19    9    -21.44      0.00
    8   19    9     -8.55      0.00
   10   19    9    -13.58      0.00
   12   19    9    -33.94      0.00
   14   19    9    -20.38      0.00
   16   19    9     -1.42      0.00
   18   19    9     -5.62      0.00
  -19   20    9      4.26      0.00
  -17   20    9    -12.29      0.00
  -15   20    9    -15.32      0.00
  -13   20    9     -8.63      0.00
  -11   20    9    -11.11      0.00
   -9   20    9     -6.61      0.00
   -7   20    9     -2.85      0.00
   -5   20    9    -17.57      0.00
   -3   20    9    -18.51      0.00
   -1   20    9     -5.65      0.00
    1   20    9     -8.45      0.00
    3   20    9    -14.81      0.00
    5   20    9    -21.71      0.00
    7   20    9    -24.68      0.00
    9   20    9    -12.97      0.00
   11   20    9     -2.42      0.00
   13   20    9      0.67      0.00
   15   20    9     -5.03      0.00
   17   20    9    -16.43      0.00
   19   20    9    -21.47      0.00
  -20   21    9     14.47      0.00
  -18   21    9      9.88      0.00
  -16   21    9      3.14      0.00
  -14   21    9     -0.74      0.00
  -12   21    9     -7.07      0.00
  -10   21    9      8.60      0.00
   -8   21    9     32.38      0.00
   -6   21    9     18.30      0.00
   -4   21    9     -4.77      0.00
   -2   21    9     -4.61      0.00
    0   21    9     -7.54      0.00
    2   21    9    -12.35      0.00
    4   21    9      0.32      0.00
    6   21    9      8.65      0.00
    8   21    9     -5.52      0.00
   10   21    9     -8.06      0.00
   12   21    9      6.34      0.00
   14   21    9     -2.01      0.00
   16   21    9     -8.22      0.00
   18   21    9      5.38      0.00
   20   21    9     -0.39      0.00
  -21   22    9    -10.45      0.00
  -19   22    9    -15.83      0.00
  -17   22    9     -1.52      0.00
  -15   22    9      5.09      0.00
  -13   22    9     -0.77      0.00
  -11   22    9     -1.56      0.00
   -9   22    9     -6.58      0.00
   -7   22    9    -15.66      0.00
   -5   22    9     -4.07      0.00
   -3   22    9      7.20      0.00
   -1   22    9      2.02      0.00
    1   22    9     -1.37      0.00
    3   22    9     -6.32      0.00
    5   22    9     -4.59      0.00
    7   22    9      3.05      0.00
    9   22    9      3.82      0.00
   11   22    9      5.85      0.00
   13   22    9      2.54      0.00
   15   22    9     -1.84      0.00
   17   22    9      3.09      0.00
   19   22    9      7.75      0.00
   21   22    9      5.36      0.00
  -22   23    9      4.13      0.00
  -20   23    9      0.63      0.00
  -18   23    9      4.43      0.00
  -16   23    9      5.85      0.00
  -14   23    9      5.87      0.00
  -12   23    9     13.55      0.00
  -10   23    9      6.02      0.00
   -8   23    9    -11.60      0.00
   -6   23    9     -0.35      0.00
   -4   23    9     19.59      0.00
   -2   23    9     18.85      0.00
    0   23    9     19.02      0.00
    2   23    9     16.70      0.00
    4   23    9     -6.70      0.00
    6   23    9    -22.01      0.00
    8   23    9     -7.58      0.00
   10   23    9      2.02      0.00
   12   23    9     -2.99      0.00
   14   23    9      4.78      0.00
   16   23    9      1.53      0.00
   18   23    9    -19.03      0.00
   20   23    9    -15.98      0.00
   22   23    9     -4.15      0.00
  -23   24    9     -7.87      0.00
  -21   24    9     -0.13      0.00
  -19   24    9      4.59      0.00
  -17   24    9     -5.24      0.00
  -15   24    9    -13.12      0.00
  -13   24    9     -8.84      0.00
  -11   24    9     -5.49      0.00
   -9   24    9     -1.77      0.00
   -7   24    9      8.02      0.00
   -5   24    9      3.07      0.00
   -3   24    9     -6.33      0.00
   -1   24    9     -2.18      0.00
    1   24    9      1.89      0.00
    3   24    9      6.39      0.00
    5   24    9      5.11      0.00
    7   24    9     -2.10      0.00
    9   24    9     -6.14      0.00
   11   24    9    -12.92      0.00
   13   24    9     -9.02      0.00
   15   24    9      4.48      0.00
   17   24    9      8.09      0.00
   19   24    9      3.80      0.00
   21   24    9      1.05      0.00
   23   24    9      4.38      0.00
  -24   25    9     -5.62      0.00
  -22   25    9     -6.95      0.00
  -20   25    9     -4.40      0.00
  -18   25    9     -3.93      0.00
  -16   25    9      1.85      0.00
  -14   25    9      5.56      0.00
  -12   25    9     -3.67      0.00
  -10   25    9     -3.67      0.00
   -8   25    9      9.99      0.00
   -6   25    9      9.11      0.00
   -4   25    9      2.69      0.00
   -2   25    9     11.06      0.00
    0   25    9     12.28      0.00
    2   25    9      7.39      0.00
    4   25    9     22.87      0.00
    6   25    9     34.32      0.00
    8   25    9     17.60      0.00
   10   25    9      4.74      0.00
   12   25    9      2.40      0.00
   14   25    9    -10.06      0.00
   16   25    9     -7.15      0.00
   18   25    9     13.45      0.00
   20   25    9     14.18      0.00
   22   25    9      5.50      0.00
   24   25    9      6.45      0.00
  -25   26    9      7.06      0.00
  -23   26    9     12.37      0.00
  -21   26    9     11.03      0.00
  -19   26    9      5.25      0.00
  -17   26    9      5.99      0.00
  -15   26    9      9.66      0.00
  -13   26    9      5.83      0.00
  -11   26    9      2.65      0.00
   -9   26    9      4.49      0.00
   -7   26    9      1.74      0.00
   -5   26    9      4.69      0.00
   -3   26    9     11.35      0.00
   -1   26    9     10.60      0.00
    1   26    9     11.81      0.00
    3   26    9     13.19      0.00
    5   26    9     14.16      0.00
    7   26    9     14.06      0.00
    9   26    9     11.46      0.00
   11   26    9     16.25      0.00
   13   26    9     16.66      0.00
   15   26    9      4.49      0.00
   17   26    9     -4.59      0.00
   19   26    9     -3.91      0.00
   21   26    9     -0.86      0.00
   23   26    9     -1.16      0.00
   25   26    9     -0.85      0.00
  -24   27    9      2.66      0.00
  -22   27    9      3.44      0.00
  -20   27    9      1.19      0.00
  -18   27    9     -0.39      0.00
  -16   27    9     -6.87      0.00
  -14   27    9     -8.04      0.00
  -12   27    9      4.14      0.00
  -10   27    9      8.58      0.00
   -8   27    9     -1.46      0.00
   -6   27    9     -5.84      0.00
   -4   27    9     -4.45      0.00
   -2   27    9    -12.02      0.00
    0   27    9    -11.51      0.00
    2   27    9      3.56      0.00
    4   27    9      1.85      0.00
    6   27    9     -7.33      0.00
    8   27    9      0.51      0.00
   10   27    9      1.26      0.00
   12   27    9     -2.91      0.00
   14   27    9      9.83      0.00
   16   27    9     12.41      0.00
   18   27    9     -1.69      0.00
   20   27    9     -4.70      0.00
   22   27    9     -1.82      0.00
   24   27    9     -3.94      0.00
  -23   28    9     -9.39      0.00
  -21   28    9    -10.22      0.00
  -19   28    9     -4.99      0.00
  -17   28    9      0.51      0.00
  -15   28    9      2.61      0.00
  -13   28    9      8.60      0.00
  -11   28    9     13.32      0.00
   -9   28    9      9.24      0.00
   -7   28    9      5.35      0.00
   -5   28    9      1.41      0.00
   -3   28    9     -3.62      0.00
   -1   28    9     -6.23      0.00
    1   28    9     -9.07      0.00
    3   28    9     -9.72      0.00
    5   28    9     -7.70      0.00
    7   28    9     -3.13      0.00
    9   28    9      2.18      0.00
   11   28    9     -1.56      0.00
   13   28    9     -9.60      0.00
   15   28    9     -6.85      0.00
   17   28    9      2.53      0.00
   19   28    9      5.24      0.00
   21   28    9      3.39      0.00
   23   28    9      1.67      0.00
  -22   29    9     -5.27      0.00
  -20   29    9     -4.45      0.00
  -18   29    9     -3.37      0.00
  -16   29    9      1.04      0.00
  -14   29    9     -0.71      0.00
  -12   29    9    -12.34      0.00
  -10   29    9    -15.96      0.00
   -8   29    9     -8.45      0.00
   -6   29    9     -3.74      0.00
   -4   29    9     -5.39      0.00
   -2   29    9     -0.30      0.00
    0   29    9      5.94      0.00
    2   29    9     -4.22      0.00
    4   29    9    -10.39      0.00
    6   29    9     -4.63      0.00
    8   29    9     -3.76      0.00
   10   29    9      8.09      0.00
   12   29    9     21.60      0.00
   14   29    9      9.86      0.00
   16   29    9     -2.39      0.00
   18   29    9     -1.33      0.00
   20   29    9     -2.21      0.00
   22   29    9     -3.20      0.00
  -21   30    9      5.35      0.00
  -19   30    9      6.49      0.00
  -17   30    9      4.42      0.00
  -15   30    9      2.45      0.00
  -13   30    9     -3.01      0.00
  -11   30    9     -7.76      0.00
   -9   30    9     -4.07      0.00
   -7   30    9      2.98      0.00
   -5   30    9      6.73      0.00
   -3   30    9      5.78      0.00
   -1   30    9      5.45      0.00
    1   30    9      6.22      0.00
    3   30    9      5.43      0.00
    5   30    9      3.97      0.00
    7   30    9      0.47      0.00
    9   30    9     -5.56      0.00
   11   30    9     -8.45      0.00
   13   30    9     -1.00      0.00
   15   30    9      5.22      0.00
   17   30    9      1.79      0.00
   19   30    9      0.09      0.00
   21   30    9     -0.17      0.00
  -18   31    9     -1.14      0.00
  -16   31    9     -4.25      0.00
  -14   31    9     -1.88      0.00
  -12   31    9      5.15      0.00
  -10   31    9      3.66      0.00
   -8   31    9     -4.27      0.00
   -6   31    9     -8.57      0.00
   -4   31    9     -5.30      0.00
   -2   31    9     -4.68      0.00
    0   31    9    -15.11      0.00
    2   31    9    -14.88      0.00
    4   31    9     -1.30      0.00
    6   31    9      6.88      0.00
    8   31    9      9.79      0.00
   10   31    9     -3.63      0.00
   12   31    9    -22.42      0.00
   14   31    9    -15.98      0.00
   16   31    9     -0.85      0.00
   18   31    9      5.16      0.00
  -17   32    9     -7.66      0.00
  -15   32    9     -8.51      0.00
  -13   32    9     -7.23      0.00
  -11   32    9     -4.82      0.00
   -9   32    9     -5.02      0.00
   -7   32    9     -9.23      0.00
   -5   32    9    -11.05      0.00
   -3   32    9     -4.55      0.00
   -1   32    9     -2.19      0.00
    1   32    9     -6.21      0.00
    3   32    9    -10.31      0.00
    5   32    9    -12.04      0.00
    7   32    9     -8.91      0.00
    9   32    9     -1.65      0.00
   11   32    9      8.14      0.00
   13   32    9      5.32      0.00
   15   32    9     -6.45      0.00
   17   32    9     -9.78      0.00
  -16   33    9      5.70      0.00
  -14   33    9      2.94      0.00
  -12   33    9     -0.36      0.00
  -10   33    9      2.61      0.00
   -8   33    9      7.42      0.00
   -6   33    9      7.88      0.00
   -4   33    9      2.35      0.00
   -2   33    9     -5.33      0.00
    0   33    9      1.27      0.00
    2   33    9      8.75      0.00
    4   33    9     -5.22      0.00
    6   33    9    -22.39      0.00
    8   33    9    -27.66      0.00
   10   33    9    -14.90      0.00
   12   33    9      7.01      0.00
   14   33    9     10.20      0.00
   16   33    9      0.73      0.00
  -13   34    9      4.48      0.00
  -11   34    9      2.20      0.00
   -9   34    9     -3.69      0.00
   -7   34    9     -4.94      0.00
   -5   34    9     -2.72      0.00
   -3   34    9     -9.21      0.00
   -1   34    9    -12.53      0.00
    1   34    9     -7.23      0.00
    3   34    9      0.28      0.00
    5   34    9      5.56      0.00
    7   34    9      5.94      0.00
    9   34    9      4.11      0.00
   11   34    9     -4.65      0.00
   13   34    9     -6.92      0.00
  -10   35    9      2.51      0.00
   -8   35    9      2.12      0.00
   -6   35    9      3.39      0.00
   -4   35    9      4.99      0.00
   -2   35    9     11.77      0.00
    0   35    9     11.62      0.00
    2   35    9      2.36      0.00
    4   35    9      8.84      0.00
    6   35    9     20.96      0.00
    8   35    9     20.32      0.00
   10   35    9      9.32      0.00
   -7   36    9      9.56      0.00
   -5   36    9      4.06      0.00
   -3   36    9      6.81      0.00
   -1   36    9     11.29      0.00
    1   36    9      9.75      0.00
    3   36    9      3.57      0.00
    5   36    9     -3.79      0.00
    7   36    9     -7.17      0.00
    1    1   10    -56.34      0.00
    0    2   10    -14.49      0.00
    2    2   10      3.90      0.00
   -1    3   10     -6.41      0.00
    1    3   10      3.27      0.00
    3    3   10    -52.38      0.00
   -2    4   10      1.28      0.00
    0    4   10     10.78      0.00
    2    4   10     -6.84      0.00
    4    4   10    -14.34      0.00
   -3    5   10     21.06      0.00
   -1    5   10    -23.16      0.00
    1    5   10    -43.32      0.00
    3    5   10      5.59      0.00
    5    5   10    -14.27      0.00
   -4    6   10     33.88      0.00
   -2    6   10     38.89      0.00
    0    6   10      2.06      0.00
    2    6   10     -4.50      0.00
    4    6   10     11.56      0.00
    6    6   10    -23.15      0.00
   -5    7   10     51.55      0.00
   -3    7   10     18.40      0.00
   -1    7   10     44.10      0.00
    1    7   10     58.42      0.00
    3    7   10      9.10      0.00
    5    7   10     10.40      0.00
    7    7   10     40.67      0.00
   -6    8   10    -56.57      0.00
   -4    8   10    -60.13      0.00
   -2    8   10    -41.62      0.00
    0    8   10     28.41      0.00
    2    8   10     57.41      0.00
    4    8   10     22.76      0.00
    6    8   10     21.52      0.00
    8    8   10     44.77      0.00
   -7    9   10    -19.88      0.00
   -5    9   10    -19.72      0.00
   -3    9   10     16.55      0.00
   -1    9   10      8.88      0.00
    1    9   10     -3.09      0.00
    3    9   10     32.01      0.00
    5    9   10     32.25      0.00
    7    9   10     -1.30      0.00
    9    9   10     -2.78      0.00
   -8   10   10     29.93      0.00
   -6   10   10     32.19      0.00
   -4   10   10     33.82      0.00
   -2   10   10     20.52      0.00
    0   10   10    -43.81      0.00
    2   10   10    -68.95      0.00
    4   10   10    -11.62      0.00
    6   10   10     23.88      0.00
    8   10   10      9.84      0.00
   10   10   10      6.02      0.00
   -9   11   10      7.74      0.00
   -7   11   10     11.48      0.00
   -5   11   10     10.52      0.00
   -3   11   10    -11.31      0.00
   -1   11   10     -3.20      0.00
    1   11   10     13.73      0.00
    3   11   10     -4.37      0.00
    5   11   10     -8.37      0.00
    7   11   10     11.75      0.00
    9   11   10     14.13      0.00
   11   11   10     19.80      0.00
  -10   12   10      0.38      0.00
   -8   12   10     -7.67      0.00
   -6   12   10      4.42      0.00
   -4   12   10     -6.22      0.00
   -2   12   10    -23.42      0.00
    0   12   10     11.35      0.00
    2   12   10     32.63      0.00
    4   12   10    -17.34      0.00
    6   12   10    -54.06      0.00
    8   12   10    -36.60      0.00
   10   12   10    -18.13      0.00
   12   12   10      3.45      0.00
  -11   13   10    -30.55      0.00
   -9   13   10    -23.17      0.00
   -7   13   10    -23.88      0.00
   -5   13   10    -25.36      0.00
   -3   13   10    -16.94      0.00
   -1   13   10    -24.08      0.00
    1   13   10    -35.93      0.00
    3   13   10    -23.52      0.00
    5   13   10    -11.83      0.00
    7   13   10    -10.93      0.00
    9   13   10     -3.99      0.00
   11   13   10    -10.46      0.00
   13   13   10    -23.20      0.00
  -12   14   10     25.33      0.00
  -10   14   10      9.18      0.00
   -8   14   10     -3.83      0.00
   -6   14   10    -29.54      0.00
   -4   14   10    -14.84      0.00
   -2   14   10     27.54      0.00
    0   14   10     17.31      0.00
    2   14   10    -12.79      0.00
    4   14   10      3.30      0.00
    6   14   10     18.86      0.00
    8   14   10      1.19      0.00
   10   14   10     -7.26      0.00
   12   14   10    -14.47      0.00
   14   14   10    -31.75      0.00
  -13   15   10      8.86      0.00
  -11   15   10      8.46      0.00
   -9   15   10      1.52      0.00
   -7   15   10     -2.35      0.00
   -5   15   10     -4.41      0.00
   -3   15   10     -8.19      0.00
   -1   15   10     -3.99      0.00
    1   15   10      2.88      0.00
    3   15   10     -0.56      0.00
    5   15   10     -4.07      0.00
    7   15   10     -9.54      0.00
    9   15   10    -19.30      0.00
   11   15   10     -7.41      0.00
   13   15   10     11.82      0.00
   15   15   10      8.63      0.00
  -14   16   10    -21.06      0.00
  -12   16   10    -10.82      0.00
  -10   16   10      4.38      0.00
   -8   16   10     16.16      0.00
   -6   16   10     43.97      0.00
   -4   16   10     33.36      0.00
   -2   16   10    -17.19      0.00
    0   16   10    -24.40      0.00
    2   16   10      4.99      0.00
    4   16   10     10.17      0.00
    6   16   10      7.32      0.00
    8   16   10     14.03      0.00
   10   16   10     -0.36      0.00
   12   16   10    -17.23      0.00
   14   16   10     -5.24      0.00
   16   16   10      0.54      0.00
  -15   17   10     -5.09      0.00
  -13   17   10      4.15      0.00
  -11   17   10      7.52      0.00
   -9   17   10      8.34      0.00
   -7   17   10      9.82      0.00
   -5   17   10     10.51      0.00
   -3   17   10      8.08      0.00
   -1   17   10      3.01      0.00
    1   17   10     -0.76      0.00
    3   17   10     -3.15      0.00
    5   17   10    -10.99      0.00
    7   17   10     -8.33      0.00
    9   17   10      5.78      0.00
   11   17   10     -1.93      0.00
   13   17   10    -15.37      0.00
   15   17   10    -12.38      0.00
   17   17   10    -14.17      0.00
  -16   18   10     -8.72      0.00
  -14   18   10     -1.49      0.00
  -12   18   10     -9.67      0.00
  -10   18   10    -11.88      0.00
   -8   18   10     -6.76      0.00
   -6   18   10    -27.97      0.00
   -4   18   10    -30.37      0.00
   -2   18   10      8.01      0.00
    0   18   10     21.70      0.00
    2   18   10      5.34      0.00
    4   18   10      0.93      0.00
    6   18   10      0.14      0.00
    8   18   10     -3.01      0.00
   10   18   10     15.91      0.00
   12   18   10     38.69      0.00
   14   18   10     25.60      0.00
   16   18   10      4.05      0.00
   18   18   10      0.80      0.00
  -17   19   10     12.30      0.00
  -15   19   10      6.48      0.00
  -13   19   10      0.90      0.00
  -11   19   10      6.77      0.00
   -9   19   10     19.30      0.00
   -7   19   10     22.66      0.00
   -5   19   10     21.44      0.00
   -3   19   10     24.58      0.00
   -1   19   10     25.39      0.00
    1   19   10     19.92      0.00
    3   19   10     17.40      0.00
    5   19   10     28.79      0.00
    7   19   10     29.75      0.00
    9   19   10     12.56      0.00
   11   19   10     12.21      0.00
   13   19   10     13.78      0.00
   15   19   10      5.95      0.00
   17   19   10     13.13      0.00
   19   19   10     13.10      0.00
  -18   20   10     -6.80      0.00
  -16   20   10      3.67      0.00
  -14   20   10      1.03      0.00
  -12   20   10      6.52      0.00
  -10   20   10      2.50      0.00
   -8   20   10    -12.73      0.00
   -6   20   10      3.68      0.00
   -4   20   10     23.13      0.00
   -2   20   10      8.93      0.00
    0   20   10      1.88      0.00
    2   20   10      6.71      0.00
    4   20   10      0.53      0.00
    6   20   10      0.61      0.00
    8   20   10      8.52      0.00
   10   20   10      1.23      0.00
   12   20   10    -14.04      0.00
   14   20   10     -5.35      0.00
   16   20   10     11.58      0.00
   18   20   10     11.52      0.00
   20   20   10     14.61      0.00
  -19   21   10      3.19      0.00
  -17   21   10      2.20      0.00
  -15   21   10      2.49      0.00
  -13   21   10      3.79      0.00
  -11   21   10     -5.62      0.00
   -9   21   10    -20.50      0.00
   -7   21   10    -18.08      0.00
   -5   21   10     -8.07      0.00
   -3   21   10     -7.50      0.00
   -1   21   10     -5.65      0.00
    1   21   10      3.53      0.00
    3   21   10      7.35      0.00
    5   21   10     -7.61      0.00
    7   21   10    -15.31      0.00
    9   21   10     -4.02      0.00
   11   21   10     -5.31      0.00
   13   21   10     -3.00      0.00
   15   21   10      5.73      0.00
   17   21   10     -8.97      0.00
   19   21   10    -15.97      0.00
   21   21   10     -1.99      0.00
  -20   22   10     13.91      0.00
  -18   22   10      8.17      0.00
  -16   22   10     -1.61      0.00
  -14   22   10     -1.23      0.00
  -12   22   10     -6.51      0.00
  -10   22   10     -4.79      0.00
   -8   22   10     10.96      0.00
   -6   22   10      0.95      0.00
   -4   22   10    -22.70      0.00
   -2   22   10    -20.88      0.00
    0   22   10    -17.89      0.00
    2   22   10    -14.38      0.00
    4   22   10      4.10      0.00
    6   22   10      9.47      0.00
    8   22   10     -1.77      0.00
   10   22   10     -7.37      0.00
   12   22   10     -3.58      0.00
   14   22   10     -5.21      0.00
   16   22   10     -5.77      0.00
   18   22   10      3.87      0.00
   20   22   10      2.55      0.00
   22   22   10     -1.05      0.00
  -21   23   10     -2.36      0.00
  -19   23   10     -6.37      0.00
  -17   23   10     -3.85      0.00
  -15   23   10     -0.04      0.00
  -13   23   10     -1.09      0.00
  -11   23   10      2.68      0.00
   -9   23   10     10.87      0.00
   -7   23   10      1.64      0.00
   -5   23   10    -13.36      0.00
   -3   23   10    -12.80      0.00
   -1   23   10    -10.18      0.00
    1   23   10    -15.63      0.00
    3   23   10    -16.13      0.00
    5   23   10      0.63      0.00
    7   23   10      9.84      0.00
    9   23   10      2.97      0.00
   11   23   10      7.61      0.00
   13   23   10      3.23      0.00
   15   23   10     -9.47      0.00
   17   23   10      5.96      0.00
   19   23   10     19.36      0.00
   21   23   10     10.09      0.00
   23   23   10      3.87      0.00
  -22   24   10      6.36      0.00
  -20   24   10      0.17      0.00
  -18   24   10      3.47      0.00
  -16   24   10      8.77      0.00
  -14   24   10      8.00      0.00
  -12   24   10     12.03      0.00
  -10   24   10     13.14      0.00
   -8   24   10     -0.10      0.00
   -6   24   10     -1.07      0.00
   -4   24   10      9.59      0.00
   -2   24   10      2.33      0.00
    0   24   10     -2.30      0.00
    2   24   10     -3.50      0.00
    4   24   10    -19.93      0.00
    6   24   10    -24.66      0.00
    8   24   10    -11.00      0.00
   10   24   10      1.41      0.00
   12   24   10      7.74      0.00
   14   24   10      9.18      0.00
   16   24   10     -0.75      0.00
   18   24   10    -15.29      0.00
   20   24   10    -12.56      0.00
   22   24   10     -5.03      0.00
   24   24   10     -6.34      0.00
  -23   25   10     -5.76      0.00
  -21   25   10     -5.27      0.00
  -19   25   10     -3.14      0.00
  -17   25   10     -6.08      0.00
  -15   25   10    -12.68      0.00
  -13   25   10    -11.25      0.00
  -11   25   10     -9.77      0.00
   -9   25   10    -15.58      0.00
   -7   25   10    -10.57      0.00
   -5   25   10     -0.62      0.00
   -3   25   10     -5.61      0.00
   -1   25   10    -13.57      0.00
    1   25   10     -9.99      0.00
    3   25   10     -7.52      0.00
    5   25   10    -18.71      0.00
    7   25   10    -20.31      0.00
    9   25   10     -9.80      0.00
   11   25   10    -13.27      0.00
   13   25   10     -6.89      0.00
   15   25   10     11.12      0.00
   17   25   10      1.94      0.00
   19   25   10    -14.29      0.00
   21   25   10    -12.41      0.00
   23   25   10     -7.32      0.00
   25   25   10     -5.05      0.00
  -24   26   10     -5.36      0.00
  -22   26   10     -9.07      0.00
  -20   26   10     -6.58      0.00
  -18   26   10     -4.81      0.00
  -16   26   10     -2.75      0.00
  -14   26   10     -1.48      0.00
  -12   26   10     -6.16      0.00
  -10   26   10    -10.41      0.00
   -8   26   10     -2.99      0.00
   -6   26   10      3.44      0.00
   -4   26   10      3.28      0.00
   -2   26   10     12.67      0.00
    0   26   10     13.22      0.00
    2   26   10      2.01      0.00
    4   26   10      5.49      0.00
    6   26   10      8.52      0.00
    8   26   10      0.27      0.00
   10   26   10     -5.75      0.00
   12   26   10    -13.48      0.00
   14   26   10    -20.57      0.00
   16   26   10     -9.88      0.00
   18   26   10      6.66      0.00
   20   26   10      6.27      0.00
   22   26   10      1.78      0.00
   24   26   10      2.56      0.00
  -23   27   10      6.84      0.00
  -21   27   10     10.35      0.00
  -19   27   10      7.93      0.00
  -17   27   10      6.37      0.00
  -15   27   10      8.08      0.00
  -13   27   10      0.61      0.00
  -11   27   10     -7.31      0.00
   -9   27   10     -2.47      0.00
   -7   27   10      0.10      0.00
   -5   27   10     -3.32      0.00
   -3   27   10      2.77      0.00
   -1   27   10     13.57      0.00
    1   27   10     10.37      0.00
    3   27   10      2.29      0.00
    5   27   10      7.16      0.00
    7   27   10      6.23      0.00
    9   27   10     -1.17      0.00
   11   27   10      7.63      0.00
   13   27   10      7.74      0.00
   15   27   10     -9.38      0.00
   17   27   10     -9.46      0.00
   19   27   10      2.78      0.00
   21   27   10      6.44      0.00
   23   27   10      6.00      0.00
  -22   28   10      7.74      0.00
  -20   28   10      7.81      0.00
  -18   28   10      4.44      0.00
  -16   28   10     -1.58      0.00
  -14   28   10     -2.45      0.00
  -12   28   10      2.48      0.00
  -10   28   10      6.02      0.00
   -8   28   10      3.64      0.00
   -6   28   10      0.51      0.00
   -4   28   10      0.80      0.00
   -2   28   10     -4.54      0.00
    0   28   10     -5.77      0.00
    2   28   10      4.52      0.00
    4   28   10      5.50      0.00
    6   28   10      0.21      0.00
    8   28   10      0.29      0.00
   10   28   10     -4.08      0.00
   12   28   10     -1.10      0.00
   14   28   10     13.18      0.00
   16   28   10      9.74      0.00
   18   28   10     -4.12      0.00
   20   28   10     -4.92      0.00
   22   28   10     -2.97      0.00
  -21   29   10     -6.69      0.00
  -19   29   10     -5.99      0.00
  -17   29   10     -2.52      0.00
  -15   29   10      0.53      0.00
  -13   29   10     12.31      0.00
  -11   29   10     22.74      0.00
   -9   29   10     17.30      0.00
   -7   29   10      8.57      0.00
   -5   29   10      8.70      0.00
   -3   29   10      8.45      0.00
   -1   29   10      0.61      0.00
    1   29   10      2.12      0.00
    3   29   10     12.27      0.00
    5   29   10      9.45      0.00
    7   29   10      5.20      0.00
    9   29   10      4.18      0.00
   11   29   10     -9.01      0.00
   13   29   10    -13.96      0.00
   15   29   10      1.34      0.00
   17   29   10     11.09      0.00
   19   29   10      7.45      0.00
   21   29   10      2.89      0.00
  -18   30   10     -8.16      0.00
  -16   30   10     -3.07      0.00
  -14   30   10     -2.78      0.00
  -12   30   10     -6.38      0.00
  -10   30   10     -5.35      0.00
   -8   30   10     -3.30      0.00
   -6   30   10     -4.53      0.00
   -4   30   10     -6.18      0.00
   -2   30   10     -2.02      0.00
    0   30   10      6.77      0.00
    2   30   10      7.49      0.00
    4   30   10      3.39      0.00
    6   30   10      2.82      0.00
    8   30   10      2.67      0.00
   10   30   10     12.63      0.00
   12   30   10     17.82      0.00
   14   30   10      1.01      0.00
   16   30   10     -5.78      0.00
   18   30   10      0.71      0.00
  -17   31   10      4.78      0.00
  -15   31   10      2.99      0.00
  -13   31   10     -4.24      0.00
  -11   31   10     -8.88      0.00
   -9   31   10     -0.83      0.00
   -7   31   10     10.45      0.00
   -5   31   10      9.69      0.00
   -3   31   10     -0.73      0.00
   -1   31   10     -1.11      0.00
    1   31   10      2.22      0.00
    3   31   10     -2.63      0.00
    5   31   10     -2.05      0.00
    7   31   10      0.62      0.00
    9   31   10      0.26      0.00
   11   31   10      7.40      0.00
   13   31   10     12.11      0.00
   15   31   10      2.91      0.00
   17   31   10     -6.91      0.00
  -16   32   10      2.46      0.00
  -14   32   10      5.26      0.00
  -12   32   10     10.20      0.00
  -10   32   10      6.19      0.00
   -8   32   10      0.72      0.00
   -6   32   10      2.68      0.00
   -4   32   10      3.91      0.00
   -2   32   10      1.65      0.00
    0   32   10     -6.49      0.00
    2   32   10    -10.71      0.00
    4   32   10      0.17      0.00
    6   32   10     10.48      0.00
    8   32   10     13.34      0.00
   10   32   10      2.06      0.00
   12   32   10    -11.00      0.00
   14   32   10      0.30      0.00
   16   32   10     10.50      0.00
  -13   33   10     -4.18      0.00
  -11   33   10     -2.18      0.00
   -9   33   10     -3.97      0.00
   -7   33   10     -7.93      0.00
   -5   33   10     -4.47      0.00
   -3   33   10     10.91      0.00
   -1   33   10     16.70      0.00
    1   33   10      7.39      0.00
    3   33   10      3.12      0.00
    5   33   10      4.30      0.00
    7   33   10      5.92      0.00
    9   33   10      8.23      0.00
   11   33   10      4.97      0.00
   13   33   10     -2.39      0.00
  -10   34   10     -7.59      0.00
   -8   34   10      0.56      0.00
   -6   34   10     -0.55      0.00
   -4   34   10     -0.26      0.00
   -2   34   10      1.46      0.00
    0   34   10      4.72      0.00
    2   34   10      8.60      0.00
    4   34   10     -3.13      0.00
    6   34   10    -16.10      0.00
    8   34   10    -19.06      0.00
   10   34   10    -10.68      0.00
   -7   35   10     -8.31      0.00
   -5   35   10     -7.90      0.00
   -3   35   10    -16.58      0.00
   -1   35   10    -23.53      0.00
    1   35   10    -15.62      0.00
    3   35   10     -7.09      0.00
    5   35   10     -6.17      0.00
    7   35   10     -5.59      0.00
    0    1   11      9.30      0.00
   -1    2   11     27.48      0.00
    1    2   11     23.05      0.00
   -2    3   11     35.59      0.00
    0    3   11      4.20      0.00
    2    3   11     41.26      0.00
   -3    4   11    -51.58      0.00
   -1    4   11    -26.95      0.00
    1    4   11    -15.48      0.00
    3    4   11    -23.01      0.00
   -4    5   11    -12.36      0.00
   -2    5   11    -20.04      0.00
    0    5   11     21.51      0.00
    2    5   11     -6.40      0.00
    4    5   11    -34.95      0.00
   -5    6   11    -14.04      0.00
   -3    6   11    -12.99      0.00
   -1    6   11    -28.72      0.00
    1    6   11    -24.84      0.00
    3    6   11     -9.67      0.00
    5    6   11    -12.90      0.00
   -6    7   11     -2.42      0.00
   -4    7   11     14.21      0.00
   -2    7   11     11.70      0.00
    0    7   11    -44.78      0.00
    2    7   11    -34.09      0.00
    4    7   11     11.47      0.00
    6    7   11     -8.37      0.00
   -7    8   11     24.03      0.00
   -5    8   11     28.80      0.00
   -3    8   11     19.04      0.00
   -1    8   11      8.83      0.00
    1    8   11    -16.23      0.00
    3    8   11    -30.72      0.00
    5    8   11    -16.18      0.00
    7    8   11    -14.83      0.00
   -8    9   11    -24.43      0.00
   -6    9   11    -18.80      0.00
   -4    9   11    -34.06      0.00
   -2    9   11    -30.95      0.00
    0    9   11     29.43      0.00
    2    9   11     36.20      0.00
    4    9   11    -15.44      0.00
    6    9   11    -20.97      0.00
    8    9   11     -5.03      0.00
   -9   10   11     10.15      0.00
   -7   10   11     -1.45      0.00
   -5   10   11      1.97      0.00
   -3   10   11      7.69      0.00
   -1   10   11     16.57      0.00
    1   10   11     36.93      0.00
    3   10   11     34.61      0.00
    5   10   11      2.02      0.00
    7   10   11     -9.59      0.00
    9   10   11     -2.77      0.00
  -10   11   11     -6.66      0.00
   -8   11   11     10.96      0.00
   -6   11   11      6.28      0.00
   -4   11   11     20.98      0.00
   -2   11   11     26.92      0.00
    0   11   11    -21.27      0.00
    2   11   11    -38.00      0.00
    4   11   11      9.16      0.00
    6   11   11     32.12      0.00
    8   11   11     22.64      0.00
   10   11   11     18.66      0.00
  -11   12   11     -0.20      0.00
   -9   12   11     -0.38      0.00
   -7   12   11     -1.80      0.00
   -5   12   11     -5.47      0.00
   -3   12   11      8.24      0.00
   -1   12   11     18.84      0.00
    1   12   11      6.81      0.00
    3   12   11      8.83      0.00
    5   12   11     33.12      0.00
    7   12   11     31.56      0.00
    9   12   11     13.60      0.00
   11   12   11      9.40      0.00
  -12   13   11     -2.65      0.00
  -10   13   11      2.37      0.00
   -8   13   11      2.36      0.00
   -6   13   11     16.44      0.00
   -4   13   11      4.70      0.00
   -2   13   11    -14.87      0.00
    0   13   11     11.06      0.00
    2   13   11     32.66      0.00
    4   13   11      5.17      0.00
    6   13   11    -16.21      0.00
    8   13   11    -13.10      0.00
   10   13   11    -11.03      0.00
   12   13   11      6.04      0.00
  -13   14   11    -18.57      0.00
  -11   14   11     -6.93      0.00
   -9   14   11      0.34      0.00
   -7   14   11     11.26      0.00
   -5   14   11     19.01      0.00
   -3   14   11     -4.26      0.00
   -1   14   11    -25.88      0.00
    1   14   11    -12.06      0.00
    3   14   11      0.36      0.00
    5   14   11     -6.03      0.00
    7   14   11      6.98      0.00
    9   14   11     24.32      0.00
   11   14   11     15.30      0.00
   13   14   11     13.26      0.00
  -14   15   11     20.14      0.00
  -12   15   11     17.43      0.00
  -10   15   11     11.81      0.00
   -8   15   11      4.72      0.00
   -6   15   11    -14.70      0.00
   -4   15   11     -7.23      0.00
   -2   15   11     20.73      0.00
    0   15   11     14.32      0.00
    2   15   11     -8.71      0.00
    4   15   11     -6.16      0.00
    6   15   11      1.34      0.00
    8   15   11      4.51      0.00
   10   15   11     14.27      0.00
   12   15   11      7.98      0.00
   14   15   11     -8.24      0.00
  -15   16   11      4.92      0.00
  -13   16   11     -2.48      0.00
  -11   16   11    -20.23      0.00
   -9   16   11    -24.45      0.00
   -7   16   11    -32.87      0.00
   -5   16   11    -42.39      0.00
   -3   16   11    -17.75      0.00
   -1   16   11      9.30      0.00
    1   16   11     -1.66      0.00
    3   16   11    -16.91      0.00
    5   16   11    -13.17      0.00
    7   16   11    -22.01      0.00
    9   16   11    -29.77      0.00
   11   16   11     -5.32      0.00
   13   16   11      9.00      0.00
   15   16   11      1.67      0.00
  -16   17   11      8.13      0.00
  -14   17   11     -7.85      0.00
  -12   17   11     -8.83      0.00
  -10   17   11     -7.87      0.00
   -8   17   11     -5.19      0.00
   -6   17   11     13.59      0.00
   -4   17   11     15.33      0.00
   -2   17   11     -8.68      0.00
    0   17   11    -14.82      0.00
    2   17   11     -2.34      0.00
    4   17   11      3.03      0.00
    6   17   11      5.19      0.00
    8   17   11     -2.31      0.00
   10   17   11    -21.75      0.00
   12   17   11    -26.68      0.00
   14   17   11    -11.14      0.00
   16   17   11      3.80      0.00
  -17   18   11     -6.40      0.00
  -15   18   11      3.38      0.00
  -13   18   11     15.30      0.00
  -11   18   11     24.47      0.00
   -9   18   11     12.35      0.00
   -7   18   11      8.25      0.00
   -5   18   11     18.37      0.00
   -3   18   11      2.33      0.00
   -1   18   11    -18.89      0.00
    1   18   11     -9.02      0.00
    3   18   11      2.19      0.00
    5   18   11     -6.03      0.00
    7   18   11     -2.78      0.00
    9   18   11      4.93      0.00
   11   18   11    -15.42      0.00
   13   18   11    -24.99      0.00
   15   18   11     -8.84      0.00
   17   18   11     -8.16      0.00
  -18   19   11     -4.98      0.00
  -16   19   11     -8.71      0.00
  -14   19   11     -0.29      0.00
  -12   19   11     -2.87      0.00
  -10   19   11     -5.52      0.00
   -8   19   11     -2.83      0.00
   -6   19   11    -15.62      0.00
   -4   19   11    -25.45      0.00
   -2   19   11    -12.25      0.00
    0   19   11     -2.32      0.00
    2   19   11     -1.05      0.00
    4   19   11     -2.23      0.00
    6   19   11    -11.63      0.00
    8   19   11     -9.40      0.00
   10   19   11      6.84      0.00
   12   19   11     16.31      0.00
   14   19   11     10.04      0.00
   16   19   11     -9.02      0.00
   18   19   11    -17.68      0.00
  -19   20   11     11.63      0.00
  -17   20   11      3.89      0.00
  -15   20   11     -2.39      0.00
  -13   20   11     -7.72      0.00
  -11   20   11     -7.40      0.00
   -9   20   11     13.06      0.00
   -7   20   11     20.61      0.00
   -5   20   11      1.99      0.00
   -3   20   11     -0.36      0.00
   -1   20   11      5.36      0.00
    1   20   11     -7.84      0.00
    3   20   11    -13.03      0.00
    5   20   11      1.66      0.00
    7   20   11      2.68      0.00
    9   20   11     -8.68      0.00
   11   20   11      0.50      0.00
   13   20   11      3.51      0.00
   15   20   11    -11.52      0.00
   17   20   11     -5.75      0.00
   19   20   11     -2.07      0.00
  -20   21   11    -13.70      0.00
  -18   21   11     -9.16      0.00
  -16   21   11     -3.19      0.00
  -14   21   11     -5.98      0.00
  -12   21   11      0.15      0.00
  -10   21   11      6.37      0.00
   -8   21   11     -1.47      0.00
   -6   21   11     -0.38      0.00
   -4   21   11     10.43      0.00
   -2   21   11      8.00      0.00
    0   21   11      3.25      0.00
    2   21   11     -3.26      0.00
    4   21   11     -8.23      0.00
    6   21   11      3.22      0.00
    8   21   11      8.03      0.00
   10   21   11      3.39      0.00
   12   21   11     -0.78      0.00
   14   21   11     -5.60      0.00
   16   21   11      3.70      0.00
   18   21   11     12.04      0.00
   20   21   11      5.90      0.00
  -21   22   11     -0.20      0.00
  -19   22   11     -5.81      0.00
  -17   22   11     -1.53      0.00
  -15   22   11      1.99      0.00
  -13   22   11      5.25      0.00
  -11   22   11      5.96      0.00
   -9   22   11     -8.38      0.00
   -7   22   11    -10.82      0.00
   -5   22   11     13.23      0.00
   -3   22   11     23.94      0.00
   -1   22   11     23.08      0.00
    1   22   11     33.01      0.00
    3   22   11     28.88      0.00
    5   22   11      6.88      0.00
    7   22   11      2.34      0.00
    9   22   11     13.70      0.00
   11   22   11     10.05      0.00
   13   22   11      8.64      0.00
   15   22   11     15.75      0.00
   17   22   11     -0.46      0.00
   19   22   11    -11.10      0.00
   21   22   11      0.63      0.00
  -22   23   11     -0.18      0.00
  -20   23   11      7.20      0.00
  -18   23   11      3.67      0.00
  -16   23   11     -1.55      0.00
  -14   23   11      0.07      0.00
  -12   23   11     -3.91      0.00
  -10   23   11    -10.53      0.00
   -8   23   11     -1.02      0.00
   -6   23   11      8.52      0.00
   -4   23   11      4.24      0.00
   -2   23   11      4.48      0.00
    0   23   11      5.95      0.00
    2   23   11     12.40      0.00
    4   23   11     21.66      0.00
    6   23   11     14.10      0.00
    8   23   11      7.66      0.00
   10   23   11      2.14      0.00
   12   23   11     -4.41      0.00
   14   23   11      5.86      0.00
   16   23   11     10.65      0.00
   18   23   11      4.35      0.00
   20   23   11      3.67      0.00
   22   23   11      4.74      0.00
  -23   24   11     -4.81      0.00
  -21   24   11     -2.44      0.00
  -19   24   11      1.26      0.00
  -17   24   11      0.37      0.00
  -15   24   11      1.32      0.00
  -13   24   11      0.55      0.00
  -11   24   11     -1.79      0.00
   -9   24   11      5.57      0.00
   -7   24   11      7.08      0.00
   -5   24   11     -8.82      0.00
   -3   24   11    -10.97      0.00
   -1   24   11     -2.90      0.00
    1   24   11     -9.47      0.00
    3   24   11     -6.22      0.00
    5   24   11     12.34      0.00
    7   24   11     12.36      0.00
    9   24   11     -0.97      0.00
   11   24   11     -0.95      0.00
   13   24   11     -4.01      0.00
   15   24   11    -10.83      0.00
   17   24   11      6.35      0.00
   19   24   11     18.40      0.00
   21   24   11      7.71      0.00
   23   24   11      4.44      0.00
  -24   25   11      6.60      0.00
  -22   25   11      7.89      0.00
  -20   25   11      4.80      0.00
  -18   25   11      4.92      0.00
  -16   25   11      6.82      0.00
  -14   25   11      5.82      0.00
  -12   25   11      7.67      0.00
  -10   25   11     15.66      0.00
   -8   25   11     12.41      0.00
   -6   25   11      0.45      0.00
   -4   25   11     -2.70      0.00
   -2   25   11     -4.15      0.00
    0   25   11     -1.94      0.00
    2   25   11     -1.69      0.00
    4   25   11     -7.79      0.00
    6   25   11     -5.56      0.00
    8   25   11     -5.94      0.00
   10   25   11     -2.42      0.00
   12   25   11      9.48      0.00
   14   25   11      1.44      0.00
   16   25   11    -12.08      0.00
   18   25   11     -8.12      0.00
   20   25   11      0.47      0.00
   22   25   11      2.74      0.00
   24   25   11      0.99      0.00
  -23   26   11      2.26      0.00
  -21   26   11      0.80      0.00
  -19   26   11     -1.32      0.00
  -17   26   11     -4.30      0.00
  -15   26   11     -9.20      0.00
  -13   26   11     -7.25      0.00
  -11   26   11     -0.74      0.00
   -9   26   11     -1.63      0.00
   -7   26   11     -3.73      0.00
   -5   26   11      1.20      0.00
   -3   26   11     -6.01      0.00
   -1   26   11    -19.05      0.00
    1   26   11     -9.96      0.00
    3   26   11     -1.90      0.00
    5   26   11    -11.09      0.00
    7   26   11     -7.81      0.00
    9   26   11      3.25      0.00
   11   26   11      0.69      0.00
   13   26   11      5.91      0.00
   15   26   11     15.89      0.00
   17   26   11      2.64      0.00
   19   26   11     -9.63      0.00
   21   26   11     -4.90      0.00
   23   26   11     -3.59      0.00
  -22   27   11     -8.45      0.00
  -20   27   11     -6.99      0.00
  -18   27   11     -2.84      0.00
  -16   27   11      0.58      0.00
  -14   27   11      3.34      0.00
  -12   27   11      5.28      0.00
  -10   27   11     -0.43      0.00
   -8   27   11     -3.87      0.00
   -6   27   11      3.44      0.00
   -4   27   11      8.16      0.00
   -2   27   11      6.13      0.00
    0   27   11     -1.74      0.00
    2   27   11     -7.13      0.00
    4   27   11     -4.35      0.00
    6   27   11     -1.76      0.00
    8   27   11      5.77      0.00
   10   27   11      8.10      0.00
   12   27   11     -5.84      0.00
   14   27   11     -7.79      0.00
   16   27   11      6.41      0.00
   18   27   11      8.05      0.00
   20   27   11     -2.20      0.00
   22   27   11     -5.75      0.00
  -21   28   11      1.75      0.00
  -19   28   11      1.98      0.00
  -17   28   11      5.06      0.00
  -15   28   11      8.84      0.00
  -13   28   11      1.07      0.00
  -11   28   11    -10.46      0.00
   -9   28   11    -13.11      0.00
   -7   28   11    -11.72      0.00
   -5   28   11    -13.05      0.00
   -3   28   11     -6.43      0.00
   -1   28   11      6.28      0.00
    1   28   11     -0.03      0.00
    3   28   11    -11.98      0.00
    5   28   11     -5.35      0.00
    7   28   11     -2.38      0.00
    9   28   11     -4.01      0.00
   11   28   11      6.34      0.00
   13   28   11      3.11      0.00
   15   28   11    -10.20      0.00
   17   28   11     -3.81      0.00
   19   28   11      4.73      0.00
   21   28   11      3.15      0.00
  -18   29   11      3.66      0.00
  -16   29   11     -2.29      0.00
  -14   29   11     -7.45      0.00
  -12   29   11    -13.13      0.00
  -10   29   11    -12.51      0.00
   -8   29   11     -5.79      0.00
   -6   29   11     -5.74      0.00
   -4   29   11    -10.52      0.00
   -2   29   11     -9.81      0.00
    0   29   11     -5.55      0.00
    2   29   11     -5.65      0.00
    4   29   11     -7.59      0.00
    6   29   11     -7.64      0.00
    8   29   11    -12.04      0.00
   10   29   11    -15.75      0.00
   12   29   11     -5.02      0.00
   14   29   11      3.86      0.00
   16   29   11     -7.24      0.00
   18   29   11    -14.18      0.00
  -17   30   11      0.56      0.00
  -15   30   11     -3.50      0.00
  -13   30   11      3.05      0.00
  -11   30   11     10.32      0.00
   -9   30   11      7.22      0.00
   -7   30   11      3.44      0.00
   -5   30   11      5.70      0.00
   -3   30   11      6.67      0.00
   -1   30   11     -1.34      0.00
    1   30   11     -3.66      0.00
    3   30   11      3.76      0.00
    5   30   11     -0.09      0.00
    7   30   11     -5.60      0.00
    9   30   11     -7.13      0.00
   11   30   11    -18.02      0.00
   13   30   11    -14.48      0.00
   15   30   11      2.25      0.00
   17   30   11      2.60      0.00
  -16   31   11     -0.18      0.00
  -14   31   11      2.28      0.00
  -12   31   11      3.81      0.00
  -10   31   11      3.70      0.00
   -8   31   11     -3.11      0.00
   -6   31   11     -7.38      0.00
   -4   31   11      0.51      0.00
   -2   31   11      7.06      0.00
    0   31   11      8.38      0.00
    2   31   11     11.56      0.00
    4   31   11      9.03      0.00
    6   31   11      3.24      0.00
    8   31   11      4.00      0.00
   10   31   11     10.51      0.00
   12   31   11      8.98      0.00
   14   31   11     -0.76      0.00
   16   31   11      3.54      0.00
  -13   32   11      0.33      0.00
  -11   32   11     -2.03      0.00
   -9   32   11      5.07      0.00
   -7   32   11      9.50      0.00
   -5   32   11      5.01      0.00
   -3   32   11     -3.38      0.00
   -1   32   11     -3.33      0.00
    1   32   11      4.77      0.00
    3   32   11      3.37      0.00
    5   32   11      1.04      0.00
    7   32   11      2.06      0.00
    9   32   11      0.37      0.00
   11   32   11      6.81      0.00
   13   32   11      5.73      0.00
  -12   33   11      8.16      0.00
  -10   33   11      6.00      0.00
   -8   33   11      4.37      0.00
   -6   33   11      5.70      0.00
   -4   33   11     -3.94      0.00
   -2   33   11    -13.20      0.00
    0   33   11    -12.66      0.00
    2   33   11    -12.31      0.00
    4   33   11     -6.89      0.00
    6   33   11     -0.69      0.00
    8   33   11     -0.96      0.00
   10   33   11     -6.22      0.00
   12   33   11     -8.04      0.00
   -7   34   11     -0.91      0.00
   -5   34   11      2.71      0.00
   -3   34   11     10.04      0.00
   -1   34   11     14.61      0.00
    1   34   11      6.16      0.00
    3   34   11      2.12      0.00
    5   34   11      6.13      0.00
    7   34   11      5.93      0.00
   -2   35   11     15.62      0.00
    0   35   11     13.06      0.00
    2   35   11     10.98      0.00
    0    0   12    -14.33      0.00
    1    1   12      2.07      0.00
    0    2   12    -11.35      0.00
    2    2   12    -37.65      0.00
   -1    3   12     20.86      0.00
    1    3   12      8.91      0.00
    3    3   12    -20.70      0.00
   -2    4   12     35.97      0.00
    0    4   12      2.72      0.00
    2    4   12     27.57      0.00
    4    4   12     38.43      0.00
   -3    5   12    -11.71      0.00
   -1    5   12    -10.72      0.00
    1    5   12     -5.81      0.00
    3    5   12     27.90      0.00
    5    5   12     28.59      0.00
   -4    6   12      1.37      0.00
   -2    6   12     11.01      0.00
    0    6   12     42.19      0.00
    2    6   12     14.71      0.00
    4    6   12    -13.97      0.00
    6    6   12      6.90      0.00
   -5    7   12     -0.50      0.00
   -3    7   12    -11.69      0.00
   -1    7   12      5.53      0.00
    1    7   12     26.79      0.00
    3    7   12      0.28      0.00
    5    7   12    -15.93      0.00
    7    7   12      5.70      0.00
   -6    8   12     -5.56      0.00
   -4    8   12      4.96      0.00
   -2    8   12      6.20      0.00
    0    8   12    -14.82      0.00
    2    8   12      6.25      0.00
    4    8   12     34.43      0.00
    6    8   12     19.99      0.00
    8    8   12      9.09      0.00
   -7    9   12      9.66      0.00
   -5    9   12      5.13      0.00
   -3    9   12     13.87      0.00
   -1    9   12    -10.12      0.00
    1    9   12    -47.71      0.00
    3    9   12    -26.39      0.00
    5    9   12      9.32      0.00
    7    9   12      3.07      0.00
    9    9   12     -0.74      0.00
   -8   10   12     -9.71      0.00
   -6   10   12    -12.32      0.00
   -4   10   12    -30.34      0.00
   -2   10   12    -35.91      0.00
    0   10   12    -14.50      0.00
    2   10   12    -15.40      0.00
    4   10   12    -28.46      0.00
    6   10   12    -17.84      0.00
    8   10   12     -6.65      0.00
   10   10   12     -2.36      0.00
   -9   11   12      6.21      0.00
   -7   11   12      4.23      0.00
   -5   11   12      6.42      0.00
   -3   11   12    -15.09      0.00
   -1   11   12     -9.47      0.00
    1   11   12     25.02      0.00
    3   11   12     11.07      0.00
    5   11   12    -29.42      0.00
    7   11   12    -27.90      0.00
    9   11   12    -17.26      0.00
   11   11   12    -13.71      0.00
  -10   12   12     -4.92      0.00
   -8   12   12     -2.12      0.00
   -6   12   12      1.84      0.00
   -4   12   12     14.23      0.00
   -2   12   12     14.26      0.00
    0   12   12     -7.10      0.00
    2   12   12    -15.81      0.00
    4   12   12     -8.59      0.00
    6   12   12     -5.37      0.00
    8   12   12     -0.23      0.00
   10   12   12      2.35      0.00
   12   12   12     -2.32      0.00
  -11   13   12      7.15      0.00
   -9   13   12      3.15      0.00
   -7   13   12     -8.10      0.00
   -5   13   12    -15.16      0.00
   -3   13   12     15.79      0.00
   -1   13   12     31.06      0.00
    1   13   12      1.62      0.00
    3   13   12     -4.96      0.00
    5   13   12     16.39      0.00
    7   13   12      6.82      0.00
    9   13   12     -7.52      0.00
   11   13   12     -7.34      0.00
   13   13   12    -23.52      0.00
  -12   14   12     -6.78      0.00
  -10   14   12     -7.50      0.00
   -8   14   12     -4.65      0.00
   -6   14   12     -4.79      0.00
   -4   14   12    -12.04      0.00
   -2   14   12    -11.27      0.00
    0   14   12      0.84      0.00
    2   14   12      6.56      0.00
    4   14   12      3.07      0.00
    6   14   12     -4.92      0.00
    8   14   12    -19.79      0.00
   10   14   12    -24.11      0.00
   12   14   12    -12.15      0.00
   14   14   12     -7.42      0.00
  -13   15   12    -25.61      0.00
  -11   15   12    -10.22      0.00
   -9   15   12     -4.02      0.00
   -7   15   12     12.41      0.00
   -5   15   12     26.58      0.00
   -3   15   12     -2.95      0.00
   -1   15   12    -29.16      0.00
    1   15   12     -5.66      0.00
    3   15   12     16.02      0.00
    5   15   12     12.18      0.00
    7   15   12     22.66      0.00
    9   15   12     26.97      0.00
   11   15   12      8.96      0.00
   13   15   12     10.92      0.00
   15   15   12     17.59      0.00
  -14   16   12      8.82      0.00
  -12   16   12     22.56      0.00
  -10   16   12     29.38      0.00
   -8   16   12     24.09      0.00
   -6   16   12     20.20      0.00
   -4   16   12     22.16      0.00
   -2   16   12     19.51      0.00
    0   16   12     14.86      0.00
    2   16   12     14.55      0.00
    4   16   12     12.72      0.00
    6   16   12     14.32      0.00
    8   16   12     29.46      0.00
   10   16   12     33.41      0.00
   12   16   12     16.71      0.00
   14   16   12      4.12      0.00
   16   16   12     -5.15      0.00
  -15   17   12      3.04      0.00
  -13   17   12      2.05      0.00
  -11   17   12     -7.56      0.00
   -9   17   12     -1.44      0.00
   -7   17   12     -7.77      0.00
   -5   17   12    -24.76      0.00
   -3   17   12     -5.05      0.00
   -1   17   12     21.44      0.00
    1   17   12      8.32      0.00
    3   17   12     -8.72      0.00
    5   17   12     -6.61      0.00
    7   17   12    -11.65      0.00
    9   17   12     -8.14      0.00
   11   17   12     18.05      0.00
   13   17   12     23.08      0.00
   15   17   12      5.07      0.00
   17   17   12      1.15      0.00
  -16   18   12      9.91      0.00
  -14   18   12     -3.90      0.00
  -12   18   12    -16.33      0.00
  -10   18   12    -19.31      0.00
   -8   18   12    -10.09      0.00
   -6   18   12     -3.39      0.00
   -4   18   12     -1.85      0.00
   -2   18   12      1.62      0.00
    0   18   12     -0.70      0.00
    2   18   12     -9.45      0.00
    4   18   12     -7.40      0.00
    6   18   12     -0.66      0.00
    8   18   12    -11.52      0.00
   10   18   12    -17.01      0.00
   12   18   12     -6.09      0.00
   14   18   12     -1.52      0.00
   16   18   12      7.79      0.00
   18   18   12     13.68      0.00
  -17   19   12     -0.28      0.00
  -15   19   12      3.11      0.00
  -13   19   12      6.25      0.00
  -11   19   12     10.46      0.00
   -9   19   12     -6.47      0.00
   -7   19   12    -13.06      0.00
   -5   19   12      5.40      0.00
   -3   19   12      2.15      0.00
   -1   19   12    -12.30      0.00
    1   19   12     -2.96      0.00
    3   19   12      4.31      0.00
    5   19   12      0.59      0.00
    7   19   12      6.55      0.00
    9   19   12      7.65      0.00
   11   19   12    -11.24      0.00
   13   19   12    -18.70      0.00
   15   19   12     -0.41      0.00
   17   19   12     10.48      0.00
   19   19   12     12.82      0.00
  -18   20   12     -1.64      0.00
  -16   20   12     -2.31      0.00
  -14   20   12      2.52      0.00
  -12   20   12      5.71      0.00
  -10   20   12      2.81      0.00
   -8   20   12     -4.73      0.00
   -6   20   12     -5.35      0.00
   -4   20   12     -2.73      0.00
   -2   20   12     -3.76      0.00
    0   20   12      1.73      0.00
    2   20   12     14.25      0.00
    4   20   12     11.74      0.00
    6   20   12     -1.86      0.00
    8   20   12      3.55      0.00
   10   20   12      8.86      0.00
   12   20   12      3.96      0.00
   14   20   12     10.89      0.00
   16   20   12      5.06      0.00
   18   20   12     -6.20      0.00
   20   20   12      4.66      0.00
  -19   21   12     18.17      0.00
  -17   21   12      6.66      0.00
  -15   21   12      0.15      0.00
  -13   21   12     -4.37      0.00
  -11   21   12     -9.53      0.00
   -9   21   12      6.78      0.00
   -7   21   12     19.80      0.00
   -5   21   12      1.46      0.00
   -3   21   12     -8.72      0.00
   -1   21   12     -7.00      0.00
    1   21   12    -16.43      0.00
    3   21   12    -14.01      0.00
    5   21   12     -5.62      0.00
    7   21   12    -12.13      0.00
    9   21   12    -18.28      0.00
   11   21   12    -10.10      0.00
   13   21   12     -0.36      0.00
   15   21   12     -4.68      0.00
   17   21   12     -6.94      0.00
   19   21   12     -5.50      0.00
   21   21   12    -11.18      0.00
  -20   22   12     -8.00      0.00
  -18   22   12     -1.52      0.00
  -16   22   12     -0.50      0.00
  -14   22   12     -3.89      0.00
  -12   22   12     -6.12      0.00
  -10   22   12     -4.05      0.00
   -8   22   12     -2.25      0.00
   -6   22   12     -9.45      0.00
   -4   22   12    -16.00      0.00
   -2   22   12    -14.55      0.00
    0   22   12    -16.80      0.00
    2   22   12    -26.27      0.00
    4   22   12    -23.39      0.00
    6   22   12     -9.76      0.00
    8   22   12    -13.18      0.00
   10   22   12    -13.54      0.00
   12   22   12     -4.12      0.00
   14   22   12    -14.20      0.00
   16   22   12    -12.93      0.00
   18   22   12      1.94      0.00
   20   22   12     -5.06      0.00
   22   22   12     -9.89      0.00
  -21   23   12     -7.37      0.00
  -19   23   12    -10.28      0.00
  -17   23   12      0.11      0.00
  -15   23   12      6.32      0.00
  -13   23   12      8.37      0.00
  -11   23   12     12.72      0.00
   -9   23   12      2.63      0.00
   -7   23   12    -10.79      0.00
   -5   23   12      1.28      0.00
   -3   23   12      9.96      0.00
   -1   23   12      7.37      0.00
    1   23   12     13.05      0.00
    3   23   12      4.08      0.00
    5   23   12     -8.98      0.00
    7   23   12     -4.02      0.00
    9   23   12      3.27      0.00
   11   23   12      4.44      0.00
   13   23   12     -0.38      0.00
   15   23   12     -6.13      0.00
   17   23   12    -12.53      0.00
   19   23   12    -13.07      0.00
   21   23   12     -3.20      0.00
   23   23   12     -1.09      0.00
  -22   24   12      3.38      0.00
  -20   24   12      1.54      0.00
  -18   24   12     -2.50      0.00
  -16   24   12     -3.08      0.00
  -14   24   12     -1.23      0.00
  -12   24   12      0.01      0.00
  -10   24   12     -3.42      0.00
   -8   24   12     -5.72      0.00
   -6   24   12      2.10      0.00
   -4   24   12      8.29      0.00
   -2   24   12      4.97      0.00
    0   24   12      4.41      0.00
    2   24   12     11.99      0.00
    4   24   12     11.48      0.00
    6   24   12      4.10      0.00
    8   24   12     11.84      0.00
   10   24   12     10.79      0.00
   12   24   12     -4.02      0.00
   14   24   12      5.76      0.00
   16   24   12     12.42      0.00
   18   24   12     -0.70      0.00
   20   24   12     -0.18      0.00
   22   24   12      3.51      0.00
   24   24   12     -0.32      0.00
  -23   25   12     -4.51      0.00
  -21   25   12     -0.87      0.00
  -19   25   12      0.08      0.00
  -17   25   12     -4.56      0.00
  -15   25   12     -5.55      0.00
  -13   25   12     -3.46      0.00
  -11   25   12     -6.00      0.00
   -9   25   12     -4.87      0.00
   -7   25   12      3.09      0.00
   -5   25   12     -0.12      0.00
   -3   25   12      0.39      0.00
   -1   25   12      6.94      0.00
    1   25   12     -1.12      0.00
    3   25   12      0.37      0.00
    5   25   12     10.34      0.00
    7   25   12      8.24      0.00
    9   25   12      6.07      0.00
   11   25   12      2.86      0.00
   13   25   12     -2.55      0.00
   15   25   12      0.95      0.00
   17   25   12     10.16      0.00
   19   25   12      8.91      0.00
   21   25   12     -0.77      0.00
   23   25   12     -1.31      0.00
  -22   26   12     -1.06      0.00
  -20   26   12     -1.49      0.00
  -18   26   12      0.70      0.00
  -16   26   12      4.31      0.00
  -14   26   12      5.76      0.00
  -12   26   12      3.46      0.00
  -10   26   12      5.51      0.00
   -8   26   12      8.89      0.00
   -6   26   12      3.19      0.00
   -4   26   12     -1.04      0.00
   -2   26   12      5.60      0.00
    0   26   12      9.85      0.00
    2   26   12      3.48      0.00
    4   26   12      1.60      0.00
    6   26   12      3.04      0.00
    8   26   12    -10.48      0.00
   10   26   12    -12.76      0.00
   12   26   12      4.42      0.00
   14   26   12      0.26      0.00
   16   26   12     -9.44      0.00
   18   26   12      0.08      0.00
   20   26   12      5.30      0.00
   22   26   12      3.72      0.00
  -19   27   12     -2.17      0.00
  -17   27   12     -3.99      0.00
  -15   27   12     -6.84      0.00
  -13   27   12     -7.78      0.00
  -11   27   12     -4.07      0.00
   -9   27   12      2.43      0.00
   -7   27   12      3.22      0.00
   -5   27   12      3.13      0.00
   -3   27   12     -0.53      0.00
   -1   27   12     -4.59      0.00
    1   27   12      7.77      0.00
    3   27   12     15.85      0.00
    5   27   12      9.12      0.00
    7   27   12      4.21      0.00
    9   27   12     -3.20      0.00
   11   27   12     -5.87      0.00
   13   27   12      6.57      0.00
   15   27   12     10.45      0.00
   17   27   12     -0.55      0.00
   19   27   12     -1.24      0.00
   21   27   12      5.17      0.00
  -18   28   12     -2.12      0.00
  -16   28   12     -6.81      0.00
  -14   28   12     -6.27      0.00
  -12   28   12      3.52      0.00
  -10   28   12      8.26      0.00
   -8   28   12      6.02      0.00
   -6   28   12      9.72      0.00
   -4   28   12     13.67      0.00
   -2   28   12      5.94      0.00
    0   28   12     -1.53      0.00
    2   28   12      3.80      0.00
    4   28   12      6.33      0.00
    6   28   12      4.08      0.00
    8   28   12     14.52      0.00
   10   28   12     16.35      0.00
   12   28   12     -1.64      0.00
   14   28   12     -4.86      0.00
   16   28   12      3.86      0.00
   18   28   12      0.71      0.00
  -17   29   12      6.19      0.00
  -15   29   12     11.10      0.00
  -13   29   12     11.05      0.00
  -11   29   12      9.26      0.00
   -9   29   12      4.07      0.00
   -7   29   12     -2.21      0.00
   -5   29   12     -4.00      0.00
   -3   29   12     -1.38      0.00
   -1   29   12      1.95      0.00
    1   29   12     -3.07      0.00
    3   29   12    -10.20      0.00
    5   29   12     -7.21      0.00
    7   29   12     -0.85      0.00
    9   29   12      9.11      0.00
   11   29   12     17.34      0.00
   13   29   12      4.67      0.00
   15   29   12     -5.26      0.00
   17   29   12      5.15      0.00
  -16   30   12      6.07      0.00
  -14   30   12      6.09      0.00
  -12   30   12     -2.99      0.00
  -10   30   12     -6.24      0.00
   -8   30   12      0.02      0.00
   -6   30   12      0.17      0.00
   -4   30   12     -6.84      0.00
   -2   30   12     -5.22      0.00
    0   30   12      1.75      0.00
    2   30   12     -1.30      0.00
    4   30   12     -2.85      0.00
    6   30   12      1.99      0.00
    8   30   12     -3.74      0.00
   10   30   12     -8.26      0.00
   12   30   12      0.92      0.00
   14   30   12      3.46      0.00
   16   30   12     -3.48      0.00
  -13   31   12     -9.21      0.00
  -11   31   12     -9.16      0.00
   -9   31   12     -9.12      0.00
   -7   31   12     -1.95      0.00
   -5   31   12      2.02      0.00
   -3   31   12     -0.26      0.00
   -1   31   12     -4.13      0.00
    1   31   12     -8.74      0.00
    3   31   12     -5.39      0.00
    5   31   12     -0.48      0.00
    7   31   12     -1.30      0.00
    9   31   12     -6.98      0.00
   11   31   12    -16.40      0.00
   13   31   12     -8.19      0.00
  -10   32   12     -5.71      0.00
   -8   32   12    -12.25      0.00
   -6   32   12    -12.62      0.00
   -4   32   12     -1.90      0.00
   -2   32   12      3.47      0.00
    0   32   12     -3.38      0.00
    2   32   12     -5.74      0.00
    4   32   12     -4.64      0.00
    6   32   12     -6.65      0.00
    8   32   12     -0.86      0.00
   10   32   12      7.33      0.00
   12   32   12      6.41      0.00
   -9   33   12      4.93      0.00
   -7   33   12      1.01      0.00
   -5   33   12     -2.78      0.00
   -3   33   12     -0.69      0.00
   -1   33   12     -0.35      0.00
    1   33   12      5.85      0.00
    3   33   12      6.59      0.00
    5   33   12     -0.67      0.00
    7   33   12     -1.75      0.00
   -2   34   12    -12.30      0.00
    0   34   12     -5.99      0.00
    2   34   12     -0.84      0.00
    0    1   13    -14.14      0.00
   -1    2   13     -6.02      0.00
    1    2   13     -3.42      0.00
   -2    3   13    -22.08      0.00
    0    3   13     -5.78      0.00
    2    3   13    -10.92      0.00
   -3    4   13    -12.03      0.00
   -1    4   13      6.29      0.00
    1    4   13      4.54      0.00
    3    4   13    -30.34      0.00
   -4    5   13     10.35      0.00
   -2    5   13     -6.63      0.00
    0    5   13    -18.88      0.00
    2    5   13     -8.41      0.00
    4    5   13     -2.28      0.00
   -5    6   13     -5.12      0.00
   -3    6   13      1.60      0.00
   -1    6   13    -22.21      0.00
    1    6   13    -28.00      0.00
    3    6   13     13.38      0.00
    5    6   13     12.45      0.00
   -6    7   13     18.13      0.00
   -4    7   13     20.35      0.00
   -2    7   13     24.74      0.00
    0    7   13     15.45      0.00
    2    7   13     -7.59      0.00
    4    7   13    -14.73      0.00
    6    7   13    -11.89      0.00
   -7    8   13    -12.95      0.00
   -5    8   13     -3.04      0.00
   -3    8   13    -11.98      0.00
   -1    8   13     10.50      0.00
    1    8   13     28.15      0.00
    3    8   13     -6.39      0.00
    5    8   13    -19.36      0.00
    7    8   13      7.14      0.00
   -8    9   13    -13.80      0.00
   -6    9   13    -12.73      0.00
   -4    9   13     -4.49      0.00
   -2    9   13      1.30      0.00
    0    9   13     20.09      0.00
    2    9   13     40.62      0.00
    4    9   13     33.08      0.00
    6    9   13     18.83      0.00
    8    9   13     13.10      0.00
   -9   10   13     -2.77      0.00
   -7   10   13      2.56      0.00
   -5   10   13      5.78      0.00
   -3   10   13     25.72      0.00
   -1   10   13     12.98      0.00
    1   10   13    -14.42      0.00
    3   10   13      4.16      0.00
    5   10   13     24.52      0.00
    7   10   13      8.08      0.00
    9   10   13     -3.44      0.00
  -10   11   13      6.81      0.00
   -8   11   13     10.54      0.00
   -6   11   13      1.57      0.00
   -4   11   13     -4.17      0.00
   -2   11   13      2.70      0.00
    0   11   13     -3.22      0.00
    2   11   13    -12.71      0.00
    4   11   13      3.78      0.00
    6   11   13     16.07      0.00
    8   11   13      8.71      0.00
   10   11   13     11.99      0.00
  -11   12   13      8.16      0.00
   -9   12   13      9.76      0.00
   -7   12   13     11.04      0.00
   -5   12   13      6.93      0.00
   -3   12   13    -17.41      0.00
   -1   12   13    -16.48      0.00
    1   12   13     12.10      0.00
    3   12   13      9.37      0.00
    5   12   13    -10.62      0.00
    7   12   13     -4.05      0.00
    9   12   13      5.61      0.00
   11   12   13     10.23      0.00
  -12   13   13    -20.81      0.00
  -10   13   13    -15.02      0.00
   -8   13   13    -14.16      0.00
   -6   13   13     -0.83      0.00
   -4   13   13      1.15      0.00
   -2   13   13    -18.73      0.00
    0   13   13    -22.49      0.00
    2   13   13    -11.39      0.00
    4   13   13    -18.52      0.00
    6   13   13    -16.24      0.00
    8   13   13      8.92      0.00
   10   13   13     14.27      0.00
   12   13   13     13.24      0.00
  -13   14   13     23.30      0.00
  -11   14   13     13.08      0.00
   -9   14   13      6.94      0.00
   -7   14   13     -4.27      0.00
   -5   14   13     -7.37      0.00
   -3   14   13     14.53      0.00
   -1   14   13     23.19      0.00
    1   14   13     -0.18      0.00
    3   14   13    -11.22      0.00
    5   14   13     -2.29      0.00
    7   14   13     -6.22      0.00
    9   14   13    -11.11      0.00
   11   14   13    -10.73      0.00
   13   14   13    -19.33      0.00
  -14   15   13     17.45      0.00
  -12   15   13     11.98      0.00
  -10   15   13      3.55      0.00
   -8   15   13      2.66      0.00
   -6   15   13    -12.60      0.00
   -4   15   13    -16.47      0.00
   -2   15   13      6.47      0.00
    0   15   13     12.40      0.00
    2   15   13     -3.25      0.00
    4   15   13     -3.01      0.00
    6   15   13     -8.07      0.00
    8   15   13    -33.80      0.00
   10   15   13    -33.74      0.00
   12   15   13    -17.33      0.00
   14   15   13    -14.52      0.00
  -15   16   13     -4.52      0.00
  -13   16   13    -16.81      0.00
  -11   16   13    -18.49      0.00
   -9   16   13    -19.32      0.00
   -7   16   13     -7.94      0.00
   -5   16   13      1.27      0.00
   -3   16   13    -12.77      0.00
   -1   16   13    -24.17      0.00
    1   16   13    -10.52      0.00
    3   16   13      1.14      0.00
    5   16   13     -1.56      0.00
    7   16   13     -0.43      0.00
    9   16   13     -2.15      0.00
   11   16   13     -9.19      0.00
   13   16   13     -5.54      0.00
   15   16   13      1.81      0.00
  -16   17   13     -0.42      0.00
  -14   17   13     -4.02      0.00
  -12   17   13      4.35      0.00
  -10   17   13      8.29      0.00
   -8   17   13      0.85      0.00
   -6   17   13     10.97      0.00
   -4   17   13     16.11      0.00
   -2   17   13     -5.64      0.00
    0   17   13    -11.94      0.00
    2   17   13      3.48      0.00
    4   17   13      1.39      0.00
    6   17   13     -1.48      0.00
    8   17   13     15.76      0.00
   10   17   13     12.12      0.00
   12   17   13     -8.31      0.00
   14   17   13     -9.44      0.00
   16   17   13    -10.34      0.00
  -17   18   13     -8.93      0.00
  -15   18   13     -3.67      0.00
  -13   18   13      2.55      0.00
  -11   18   13      6.17      0.00
   -9   18   13     13.41      0.00
   -7   18   13      7.78      0.00
   -5   18   13     -4.93      0.00
   -3   18   13     -1.53      0.00
   -1   18   13      6.29      0.00
    1   18   13      2.90      0.00
    3   18   13      1.86      0.00
    5   18   13      4.09      0.00
    7   18   13      1.74      0.00
    9   18   13      3.63      0.00
   11   18   13     11.72      0.00
   13   18   13     16.32      0.00
   15   18   13      8.35      0.00
   17   18   13     -1.49      0.00
  -18   19   13      0.74      0.00
  -16   19   13     -3.80      0.00
  -14   19   13     -0.20      0.00
  -12   19   13     -2.98      0.00
  -10   19   13     -1.10      0.00
   -8   19   13     13.22      0.00
   -6   19   13      8.20      0.00
   -4   19   13     -0.68      0.00
   -2   19   13     13.59      0.00
    0   19   13     15.24      0.00
    2   19   13     -0.36      0.00
    4   19   13      3.91      0.00
    6   19   13     12.34      0.00
    8   19   13      0.21      0.00
   10   19   13     -0.67      0.00
   12   19   13     12.10      0.00
   14   19   13      5.96      0.00
   16   19   13      0.93      0.00
   18   19   13      0.26      0.00
  -19   20   13    -15.25      0.00
  -17   20   13     -7.28      0.00
  -15   20   13     -3.80      0.00
  -13   20   13      0.33      0.00
  -11   20   13      3.16      0.00
   -9   20   13     -5.51      0.00
   -7   20   13     -8.62      0.00
   -5   20   13      2.54      0.00
   -3   20   13      8.04      0.00
   -1   20   13      8.50      0.00
    1   20   13     10.46      0.00
    3   20   13      4.67      0.00
    5   20   13      3.84      0.00
    7   20   13     10.06      0.00
    9   20   13     10.13      0.00
   11   20   13      5.02      0.00
   13   20   13     -7.63      0.00
   15   20   13     -9.54      0.00
   17   20   13      3.06      0.00
   19   20   13      4.62      0.00
  -20   21   13     -4.80      0.00
  -18   21   13     -1.65      0.00
  -16   21   13      4.82      0.00
  -14   21   13      2.85      0.00
  -12   21   13      4.43      0.00
  -10   21   13      4.35      0.00
   -8   21   13     -8.41      0.00
   -6   21   13     -4.77      0.00
   -4   21   13      8.12      0.00
   -2   21   13      1.02      0.00
    0   21   13      1.80      0.00
    2   21   13     14.00      0.00
    4   21   13      6.71      0.00
    6   21   13     -3.00      0.00
    8   21   13      7.02      0.00
   10   21   13     10.89      0.00
   12   21   13      2.42      0.00
   14   21   13      7.47      0.00
   16   21   13      7.39      0.00
   18   21   13     -0.97      0.00
   20   21   13     10.56      0.00
  -21   22   13     16.44      0.00
  -19   22   13     16.11      0.00
  -17   22   13      7.66      0.00
  -15   22   13      2.59      0.00
  -13   22   13     -2.81      0.00
  -11   22   13     -7.31      0.00
   -9   22   13      0.69      0.00
   -7   22   13     10.40      0.00
   -5   22   13      3.69      0.00
   -3   22   13     -4.94      0.00
   -1   22   13     -9.55      0.00
    1   22   13    -12.40      0.00
    3   22   13     -2.62      0.00
    5   22   13      0.67      0.00
    7   22   13     -3.72      0.00
    9   22   13     -2.20      0.00
   11   22   13     -4.90      0.00
   13   22   13      3.47      0.00
   15   22   13     13.28      0.00
   17   22   13      4.46      0.00
   19   22   13      1.06      0.00
   21   22   13      1.24      0.00
  -22   23   13      2.67      0.00
  -20   23   13      6.90      0.00
  -18   23   13      1.26      0.00
  -16   23   13     -9.11      0.00
  -14   23   13     -9.91      0.00
  -12   23   13     -8.99      0.00
  -10   23   13     -8.65      0.00
   -8   23   13      1.54      0.00
   -6   23   13      0.68      0.00
   -4   23   13     -9.70      0.00
   -2   23   13     -2.98      0.00
    0   23   13     -1.69      0.00
    2   23   13     -9.84      0.00
    4   23   13     -1.47      0.00
    6   23   13      6.22      0.00
    8   23   13     -2.96      0.00
   10   23   13     -5.68      0.00
   12   23   13      1.97      0.00
   14   23   13     -1.92      0.00
   16   23   13     -0.12      0.00
   18   23   13     11.37      0.00
   20   23   13      2.33      0.00
   22   23   13     -7.94      0.00
  -21   24   13     -5.96      0.00
  -19   24   13     -1.44      0.00
  -17   24   13      4.81      0.00
  -15   24   13      6.77      0.00
  -13   24   13      8.12      0.00
  -11   24   13     11.13      0.00
   -9   24   13      8.23      0.00
   -7   24   13     -0.95      0.00
   -5   24   13      0.01      0.00
   -3   24   13      3.98      0.00
   -1   24   13      5.17      0.00
    1   24   13      7.76      0.00
    3   24   13     -0.96      0.00
    5   24   13     -5.96      0.00
    7   24   13     -6.51      0.00
    9   24   13    -13.43      0.00
   11   24   13     -4.20      0.00
   13   24   13      1.75      0.00
   15   24   13     -7.46      0.00
   17   24   13     -5.00      0.00
   19   24   13     -0.33      0.00
   21   24   13      0.22      0.00
  -20   25   13     -0.54      0.00
  -18   25   13      5.30      0.00
  -16   25   13     11.53      0.00
  -14   25   13      8.43      0.00
  -12   25   13      1.98      0.00
  -10   25   13     -0.81      0.00
   -8   25   13     -7.18      0.00
   -6   25   13     -7.95      0.00
   -4   25   13     -3.05      0.00
   -2   25   13    -10.67      0.00
    0   25   13    -10.90      0.00
    2   25   13      0.07      0.00
    4   25   13     -3.93      0.00
    6   25   13     -9.11      0.00
    8   25   13     -1.31      0.00
   10   25   13     -0.71      0.00
   12   25   13     -6.20      0.00
   14   25   13      1.92      0.00
   16   25   13      4.59      0.00
   18   25   13     -5.59      0.00
   20   25   13     -2.55      0.00
  -19   26   13     -1.06      0.00
  -17   26   13     -5.34      0.00
  -15   26   13     -7.30      0.00
  -13   26   13     -7.11      0.00
  -11   26   13     -7.74      0.00
   -9   26   13     -9.93      0.00
   -7   26   13     -5.66      0.00
   -5   26   13     -2.88      0.00
   -3   26   13     -3.43      0.00
   -1   26   13     -5.05      0.00
    1   26   13    -11.44      0.00
    3   26   13     -9.54      0.00
    5   26   13     -5.23      0.00
    7   26   13      1.77      0.00
    9   26   13     17.33      0.00
   11   26   13      9.27      0.00
   13   26   13    -11.04      0.00
   15   26   13    -10.44      0.00
   17   26   13     -6.70      0.00
   19   26   13     -8.78      0.00
  -18   27   13     -1.21      0.00
  -16   27   13     -0.14      0.00
  -14   27   13      2.61      0.00
  -12   27   13      3.43      0.00
  -10   27   13      1.04      0.00
   -8   27   13     -0.14      0.00
   -6   27   13     -1.96      0.00
   -4   27   13     -4.24      0.00
   -2   27   13      1.86      0.00
    0   27   13      0.33      0.00
    2   27   13    -13.19      0.00
    4   27   13    -13.27      0.00
    6   27   13     -6.76      0.00
    8   27   13     -9.14      0.00
   10   27   13     -4.77      0.00
   12   27   13      2.20      0.00
   14   27   13     -6.69      0.00
   16   27   13    -10.82      0.00
   18   27   13     -1.84      0.00
  -17   28   13      2.95      0.00
  -15   28   13      5.31      0.00
  -13   28   13      2.78      0.00
  -11   28   13     -2.63      0.00
   -9   28   13     -0.80      0.00
   -7   28   13      0.94      0.00
   -5   28   13     -0.67      0.00
   -3   28   13      0.40      0.00
   -1   28   13      4.60      0.00
    1   28   13     10.58      0.00
    3   28   13     10.89      0.00
    5   28   13      7.89      0.00
    7   28   13     -0.71      0.00
    9   28   13    -18.29      0.00
   11   28   13    -14.64      0.00
   13   28   13     11.25      0.00
   15   28   13     18.49      0.00
   17   28   13      8.87      0.00
  -14   29   13     -9.45      0.00
  -12   29   13     -2.75      0.00
  -10   29   13      1.37      0.00
   -8   29   13      3.13      0.00
   -6   29   13      6.66      0.00
   -4   29   13      9.82      0.00
   -2   29   13      6.60      0.00
    0   29   13      4.59      0.00
    2   29   13     11.93      0.00
    4   29   13     13.57      0.00
    6   29   13      7.36      0.00
    8   29   13      6.45      0.00
   10   29   13     -0.01      0.00
   12   29   13     -7.92      0.00
   14   29   13      0.44      0.00
   16   29   13      5.07      0.00
  -13   30   13     -0.27      0.00
  -11   30   13      7.20      0.00
   -9   30   13      5.62      0.00
   -7   30   13     -2.71      0.00
   -5   30   13     -4.49      0.00
   -3   30   13     -3.78      0.00
   -1   30   13     -6.20      0.00
    1   30   13     -6.76      0.00
    3   30   13     -6.25      0.00
    5   30   13     -8.13      0.00
    7   30   13     -4.26      0.00
    9   30   13      9.99      0.00
   11   30   13     14.50      0.00
   13   30   13     -2.39      0.00
  -10   31   13      3.98      0.00
   -8   31   13      6.95      0.00
   -6   31   13      3.08      0.00
   -4   31   13     -2.09      0.00
   -2   31   13     -1.39      0.00
    0   31   13      6.45      0.00
    2   31   13      9.08      0.00
    4   31   13      4.58      0.00
    6   31   13      3.11      0.00
    8   31   13     -0.14      0.00
   10   31   13      1.29      0.00
   -7   32   13      9.26      0.00
   -5   32   13     11.25      0.00
   -3   32   13      6.71      0.00
   -1   32   13      8.08      0.00
    1   32   13      8.01      0.00
    3   32   13      8.01      0.00
    5   32   13     13.00      0.00
    7   32   13     11.49      0.00
   -2   33   13      4.11      0.00
    0   33   13     -4.33      0.00
    2   33   13    -12.42      0.00
    1    1   14      5.23      0.00
    0    2   14      1.48      0.00
    2    2   14      0.63      0.00
   -1    3   14     10.39      0.00
    1    3   14      8.81      0.00
    3    3   14     28.46      0.00
   -2    4   14     10.77      0.00
    0    4   14      6.70      0.00
    2    4   14      8.18      0.00
    4    4   14      2.53      0.00
   -3    5   14    -10.02      0.00
   -1    5   14     12.61      0.00
    1    5   14     14.13      0.00
    3    5   14    -12.90      0.00
    5    5   14     -7.60      0.00
   -4    6   14    -17.62      0.00
   -2    6   14    -24.17      0.00
    0    6   14     -7.71      0.00
    2    6   14     -3.78      0.00
    4    6   14     -6.09      0.00
    6    6   14     13.51      0.00
   -5    7   14     -8.50      0.00
   -3    7   14     -7.29      0.00
   -1    7   14    -22.89      0.00
    1    7   14    -20.79      0.00
    3    7   14      8.91      0.00
    5    7   14     13.65      0.00
    7    7   14      0.27      0.00
   -6    8   14     23.03      0.00
   -4    8   14     20.05      0.00
   -2    8   14     18.11      0.00
    0    8   14    -10.20      0.00
    2    8   14    -21.60      0.00
    4    8   14     -8.49      0.00
    6    8   14    -17.65      0.00
    8    8   14    -29.03      0.00
   -7    9   14      4.00      0.00
   -5    9   14      1.11      0.00
   -3    9   14     -9.97      0.00
   -1    9   14     -3.93      0.00
    1    9   14     -1.76      0.00
    3    9   14    -18.07      0.00
    5    9   14    -20.26      0.00
    7    9   14     -9.06      0.00
    9    9   14      0.97      0.00
   -8   10   14    -13.21      0.00
   -6   10   14     -6.55      0.00
   -4   10   14     -6.49      0.00
   -2   10   14    -12.68      0.00
    0   10   14     10.21      0.00
    2   10   14     22.08      0.00
    4   10   14     -2.22      0.00
    6   10   14     -6.94      0.00
    8   10   14      6.47      0.00
   10   10   14     -1.41      0.00
   -9   11   14    -13.37      0.00
   -7   11   14    -12.83      0.00
   -5   11   14     -3.50      0.00
   -3   11   14      7.83      0.00
   -1   11   14      0.55      0.00
    1   11   14    -11.74      0.00
    3   11   14    -10.99      0.00
    5   11   14     -8.77      0.00
    7   11   14     -5.83      0.00
    9   11   14     -4.58      0.00
   11   11   14    -11.09      0.00
  -10   12   14     -2.63      0.00
   -8   12   14      2.99      0.00
   -6   12   14     -6.69      0.00
   -4   12   14     -2.67      0.00
   -2   12   14     17.12      0.00
    0   12   14      7.72      0.00
    2   12   14     -5.04      0.00
    4   12   14     17.35      0.00
    6   12   14     23.62      0.00
    8   12   14      1.18      0.00
   10   12   14     -2.11      0.00
   12   12   14     -4.63      0.00
  -11   13   14      8.75      0.00
   -9   13   14     14.02      0.00
   -7   13   14     17.69      0.00
   -5   13   14     11.29      0.00
   -3   13   14      5.89      0.00
   -1   13   14     14.63      0.00
    1   13   14     27.36      0.00
    3   13   14     31.48      0.00
    5   13   14     26.67      0.00
    7   13   14     10.59      0.00
    9   13   14     -2.29      0.00
   11   13   14      1.44      0.00
   13   13   14      4.55      0.00
  -12   14   14    -14.01      0.00
  -10   14   14     -8.81      0.00
   -8   14   14     -8.21      0.00
   -6   14   14      7.94      0.00
   -4   14   14      7.30      0.00
   -2   14   14    -17.34      0.00
    0   14   14    -16.04      0.00
    2   14   14      1.70      0.00
    4   14   14     -8.63      0.00
    6   14   14     -9.65      0.00
    8   14   14     17.42      0.00
   10   14   14     22.29      0.00
   12   14   14     15.77      0.00
   14   14   14     15.66      0.00
  -13   15   14      0.12      0.00
  -11   15   14      6.16      0.00
   -9   15   14      2.78      0.00
   -7   15   14     -4.69      0.00
   -5   15   14     -1.08      0.00
   -3   15   14      0.97      0.00
   -1   15   14     -5.78      0.00
    1   15   14    -11.38      0.00
    3   15   14    -14.85      0.00
    5   15   14    -14.36      0.00
    7   15   14      0.49      0.00
    9   15   14     14.46      0.00
   11   15   14      9.52      0.00
   13   15   14      1.45      0.00
   15   15   14     -2.50      0.00
  -14   16   14      2.26      0.00
  -12   16   14      4.94      0.00
  -10   16   14      7.18      0.00
   -8   16   14     10.14      0.00
   -6   16   14     -7.20      0.00
   -4   16   14    -11.74      0.00
   -2   16   14     11.46      0.00
    0   16   14     15.37      0.00
    2   16   14      0.11      0.00
    4   16   14      7.93      0.00
    6   16   14     12.60      0.00
    8   16   14     -7.72      0.00
   10   16   14     -8.82      0.00
   12   16   14      5.80      0.00
   14   16   14      9.28      0.00
   16   16   14     14.80      0.00
  -15   17   14      4.28      0.00
  -13   17   14     -0.62      0.00
  -11   17   14    -10.42      0.00
   -9   17   14     -8.93      0.00
   -7   17   14      1.18      0.00
   -5   17   14      1.27      0.00
   -3   17   14      3.71      0.00
   -1   17   14     10.75      0.00
    1   17   14      7.94      0.00
    3   17   14      5.76      0.00
    5   17   14     11.03      0.00
    7   17   14      5.67      0.00
    9   17   14     -3.91      0.00
   11   17   14     -1.15      0.00
   13   17   14      0.23      0.00
   15   17   14      2.13      0.00
   17   17   14      6.92      0.00
  -16   18   14     14.98      0.00
  -14   18   14      5.44      0.00
  -12   18   14      2.66      0.00
  -10   18   14     -3.60      0.00
   -8   18   14    -12.93      0.00
   -6   18   14      0.61      0.00
   -4   18   14      9.72      0.00
   -2   18   14     -7.76      0.00
    0   18   14    -12.54      0.00
    2   18   14     -3.49      0.00
    4   18   14    -15.06      0.00
    6   18   14    -24.34      0.00
    8   18   14     -9.96      0.00
   10   18   14     -5.62      0.00
   12   18   14    -17.38      0.00
   14   18   14    -19.11      0.00
   16   18   14    -15.43      0.00
   18   18   14    -10.76      0.00
  -17   19   14      2.01      0.00
  -15   19   14      1.66      0.00
  -13   19   14     -2.74      0.00
  -11   19   14      0.74      0.00
   -9   19   14     -0.03      0.00
   -7   19   14     -9.01      0.00
   -5   19   14    -10.39      0.00
   -3   19   14    -15.39      0.00
   -1   19   14    -23.69      0.00
    1   19   14    -15.73      0.00
    3   19   14     -7.82      0.00
    5   19   14    -17.86      0.00
    7   19   14    -22.70      0.00
    9   19   14    -16.60      0.00
   11   19   14    -12.95      0.00
   13   19   14     -0.03      0.00
   15   19   14      6.58      0.00
   17   19   14     -4.81      0.00
   19   19   14     -2.26      0.00
  -18   20   14      2.87      0.00
  -16   20   14     -1.91      0.00
  -14   20   14      1.50      0.00
  -12   20   14     -0.45      0.00
  -10   20   14      1.79      0.00
   -8   20   14     13.76      0.00
   -6   20   14      5.69      0.00
   -4   20   14     -8.12      0.00
   -2   20   14     -0.68      0.00
    0   20   14     -1.94      0.00
    2   20   14     -9.67      0.00
    4   20   14      2.68      0.00
    6   20   14     11.11      0.00
    8   20   14     -0.14      0.00
   10   20   14     -8.70      0.00
   12   20   14     -2.40      0.00
   14   20   14      3.05      0.00
   16   20   14      2.51      0.00
   18   20   14      2.67      0.00
   20   20   14     -5.55      0.00
  -19   21   14     -3.49      0.00
  -17   21   14     -8.34      0.00
  -15   21   14     -7.21      0.00
  -13   21   14      2.64      0.00
  -11   21   14      3.92      0.00
   -9   21   14      1.42      0.00
   -7   21   14      4.05      0.00
   -5   21   14      2.71      0.00
   -3   21   14      7.24      0.00
   -1   21   14     17.53      0.00
    1   21   14     11.78      0.00
    3   21   14      3.19      0.00
    5   21   14     14.38      0.00
    7   21   14     21.78      0.00
    9   21   14     14.38      0.00
   11   21   14      8.25      0.00
   13   21   14     -8.72      0.00
   15   21   14    -17.97      0.00
   17   21   14      1.55      0.00
   19   21   14      7.07      0.00
   21   21   14     -2.00      0.00
  -20   22   14    -11.59      0.00
  -18   22   14     -7.11      0.00
  -16   22   14     -0.52      0.00
  -14   22   14     -0.51      0.00
  -12   22   14      2.47      0.00
  -10   22   14      3.90      0.00
   -8   22   14     -7.68      0.00
   -6   22   14     -6.04      0.00
   -4   22   14      7.60      0.00
   -2   22   14      5.22      0.00
    0   22   14      9.27      0.00
    2   22   14     15.67      0.00
    4   22   14      2.68      0.00
    6   22   14     -4.48      0.00
    8   22   14      1.78      0.00
   10   22   14      9.09      0.00
   12   22   14      8.41      0.00
   14   22   14      0.83      0.00
   16   22   14     -4.84      0.00
   18   22   14     -9.50      0.00
   20   22   14     -3.85      0.00
   22   22   14      6.31      0.00
  -21   23   14     -0.70      0.00
  -19   23   14     -3.45      0.00
  -17   23   14      4.10      0.00
  -15   23   14      8.43      0.00
  -13   23   14     -0.71      0.00
  -11   23   14     -6.56      0.00
   -9   23   14     -4.85      0.00
   -7   23   14     -3.04      0.00
   -5   23   14      0.94      0.00
   -3   23   14     -1.77      0.00
   -1   23   14    -11.79      0.00
    1   23   14     -9.65      0.00
    3   23   14     -1.98      0.00
    5   23   14     -9.62      0.00
    7   23   14    -12.67      0.00
    9   23   14     -1.95      0.00
   11   23   14     -0.38      0.00
   13   23   14      7.39      0.00
   15   23   14     15.38      0.00
   17   23   14     -3.05      0.00
   19   23   14    -10.78      0.00
   21   23   14      1.05      0.00
  -20   24   14      2.22      0.00
  -18   24   14     -5.47      0.00
  -16   24   14    -10.23      0.00
  -14   24   14     -7.21      0.00
  -12   24   14     -4.28      0.00
  -10   24   14     -5.45      0.00
   -8   24   14      2.83      0.00
   -6   24   14      7.54      0.00
   -4   24   14      1.63      0.00
   -2   24   14      6.05      0.00
    0   24   14      2.15      0.00
    2   24   14     -5.65      0.00
    4   24   14      4.99      0.00
    6   24   14     11.26      0.00
    8   24   14     10.60      0.00
   10   24   14      7.72      0.00
   12   24   14      0.32      0.00
   14   24   14     -0.98      0.00
   16   24   14      3.28      0.00
   18   24   14      8.10      0.00
   20   24   14      4.68      0.00
  -19   25   14      2.59      0.00
  -17   25   14     -5.04      0.00
  -15   25   14     -9.09      0.00
  -13   25   14      1.16      0.00
  -11   25   14     11.57      0.00
   -9   25   14     13.04      0.00
   -7   25   14      9.04      0.00
   -5   25   14      3.64      0.00
   -3   25   14      5.39      0.00
   -1   25   14     13.59      0.00
    1   25   14     13.25      0.00
    3   25   14      6.81      0.00
    5   25   14     10.28      0.00
    7   25   14      7.86      0.00
    9   25   14     -6.69      0.00
   11   25   14     -4.42      0.00
   13   25   14     -0.42      0.00
   15   25   14     -6.70      0.00
   17   25   14      2.73      0.00
   19   25   14      9.36      0.00
  -18   26   14     10.10      0.00
  -16   26   14     10.98      0.00
  -14   26   14      7.09      0.00
  -12   26   14      3.07      0.00
  -10   26   14      6.18      0.00
   -8   26   14      5.19      0.00
   -6   26   14     -1.17      0.00
   -4   26   14     -2.27      0.00
   -2   26   14     -5.95      0.00
    0   26   14      1.41      0.00
    2   26   14     13.58      0.00
    4   26   14      6.65      0.00
    6   26   14     -1.59      0.00
    8   26   14     -7.37      0.00
   10   26   14    -11.10      0.00
   12   26   14      0.81      0.00
   14   26   14     13.92      0.00
   16   26   14     12.99      0.00
   18   26   14      5.93      0.00
  -15   27   14      3.22      0.00
  -13   27   14     -1.77      0.00
  -11   27   14     -5.42      0.00
   -9   27   14     -4.75      0.00
   -7   27   14     -0.17      0.00
   -5   27   14      3.59      0.00
   -3   27   14     -0.17      0.00
   -1   27   14     -7.74      0.00
    1   27   14     -7.79      0.00
    3   27   14     -1.80      0.00
    5   27   14     -2.20      0.00
    7   27   14      2.21      0.00
    9   27   14     16.02      0.00
   11   27   14     10.19      0.00
   13   27   14     -4.39      0.00
   15   27   14     -2.60      0.00
   17   27   14     -2.44      0.00
  -14   28   14     -2.57      0.00
  -12   28   14     -3.06      0.00
  -10   28   14     -7.04      0.00
   -8   28   14    -10.49      0.00
   -6   28   14     -6.92      0.00
   -4   28   14     -4.62      0.00
   -2   28   14     -4.94      0.00
    0   28   14    -12.36      0.00
    2   28   14    -20.69      0.00
    4   28   14    -14.03      0.00
    6   28   14     -4.11      0.00
    8   28   14      4.02      0.00
   10   28   14     11.86      0.00
   12   28   14      2.34      0.00
   14   28   14    -15.70      0.00
  -13   29   14      0.42      0.00
  -11   29   14     -5.16      0.00
   -9   29   14     -5.74      0.00
   -7   29   14     -5.30      0.00
   -5   29   14     -5.64      0.00
   -3   29   14     -2.03      0.00
   -1   29   14      3.61      0.00
    1   29   14      3.98      0.00
    3   29   14     -0.55      0.00
    5   29   14     -0.63      0.00
    7   29   14     -2.97      0.00
    9   29   14    -12.05      0.00
   11   29   14     -6.12      0.00
   13   29   14      9.10      0.00
  -10   30   14      2.45      0.00
   -8   30   14      4.21      0.00
   -6   30   14      4.67      0.00
   -4   30   14      4.26      0.00
   -2   30   14      6.46      0.00
    0   30   14      8.05      0.00
    2   30   14      6.59      0.00
    4   30   14      2.36      0.00
    6   30   14     -1.57      0.00
    8   30   14     -5.21      0.00
   10   30   14    -12.70      0.00
   -7   31   14     -3.27      0.00
   -5   31   14     -3.64      0.00
   -3   31   14     -3.40      0.00
   -1   31   14     -7.12      0.00
    1   31   14    -10.94      0.00
    3   31   14    -10.06      0.00
    5   31   14     -9.14      0.00
    7   31   14     -5.98      0.00
    0    1   15      7.32      0.00
   -1    2   15    -12.72      0.00
    1    2   15    -13.08      0.00
   -2    3   15    -20.94      0.00
    0    3   15    -13.23      0.00
    2    3   15    -20.35      0.00
   -3    4   15     17.25      0.00
   -1    4   15      3.09      0.00
    1    4   15      1.58      0.00
    3    4   15      9.06      0.00
   -4    5   15      8.15      0.00
   -2    5   15     14.31      0.00
    0    5   15      1.09      0.00
    2    5   15      9.87      0.00
    4    5   15     18.56      0.00
   -5    6   15     -3.72      0.00
   -3    6   15      2.43      0.00
   -1    6   15     15.29      0.00
    1    6   15     13.36      0.00
    3    6   15      5.82      0.00
    5    6   15      1.46      0.00
   -6    7   15     -4.44      0.00
   -4    7   15     -4.64      0.00
   -2    7   15     -5.45      0.00
    0    7   15     12.39      0.00
    2    7   15      6.50      0.00
    4    7   15     -9.91      0.00
    6    7   15     -0.38      0.00
   -7    8   15     -7.61      0.00
   -5    8   15      2.35      0.00
   -3    8   15      2.76      0.00
   -1    8   15     -2.31      0.00
    1    8   15      4.44      0.00
    3    8   15      7.40      0.00
    5    8   15      7.29      0.00
    7    8   15     16.83      0.00
   -8    9   15     12.59      0.00
   -6    9   15      1.77      0.00
   -4    9   15      3.99      0.00
   -2    9   15     10.92      0.00
    0    9   15     -5.17      0.00
    2    9   15     -7.02      0.00
    4    9   15      9.69      0.00
    6    9   15      6.67      0.00
    8    9   15     -2.35      0.00
   -9   10   15     -0.75      0.00
   -7   10   15      1.31      0.00
   -5   10   15    -13.16      0.00
   -3   10   15    -14.02      0.00
   -1   10   15     -6.76      0.00
    1   10   15     -8.81      0.00
    3   10   15     -0.47      0.00
    5   10   15     10.76      0.00
    7   10   15     -1.13      0.00
    9   10   15     -4.22      0.00
  -10   11   15     10.55      0.00
   -8   11   15      7.36      0.00
   -6   11   15     14.23      0.00
   -4   11   15      7.30      0.00
   -2   11   15     -6.64      0.00
    0   11   15      4.99      0.00
    2   11   15     14.09      0.00
    4   11   15     -0.94      0.00
    6   11   15     -8.25      0.00
    8   11   15     -5.92      0.00
   10   11   15    -10.11      0.00
  -11   12   15     10.42      0.00
   -9   12   15      1.63      0.00
   -7   12   15     -0.94      0.00
   -5   12   15     10.55      0.00
   -3   12   15      4.03      0.00
   -1   12   15    -11.07      0.00
    1   12   15    -12.97      0.00
    3   12   15    -23.82      0.00
    5   12   15    -36.25      0.00
    7   12   15    -14.85      0.00
    9   12   15      3.48      0.00
   11   12   15     -4.66      0.00
  -12   13   15     -2.96      0.00
  -10   13   15     -6.61      0.00
   -8   13   15    -10.00      0.00
   -6   13   15    -21.09      0.00
   -4   13   15    -17.70      0.00
   -2   13   15     -3.48      0.00
    0   13   15    -10.03      0.00
    2   13   15    -22.42      0.00
    4   13   15    -12.69      0.00
    6   13   15     -1.81      0.00
    8   13   15     -0.63      0.00
   10   13   15      3.81      0.00
   12   13   15      3.57      0.00
  -13   14   15     -1.48      0.00
  -11   14   15    -11.13      0.00
   -9   14   15     -3.20      0.00
   -7   14   15      1.64      0.00
   -5   14   15     -7.60      0.00
   -3   14   15      1.29      0.00
   -1   14   15     16.37      0.00
    1   14   15     12.31      0.00
    3   14   15     15.55      0.00
    5   14   15     25.01      0.00
    7   14   15      0.84      0.00
    9   14   15    -22.69      0.00
   11   14   15    -12.04      0.00
   13   14   15     -2.02      0.00
  -14   15   15      3.37      0.00
  -12   15   15     -3.42      0.00
  -10   15   15     -8.04      0.00
   -8   15   15     -2.60      0.00
   -6   15   15     12.94      0.00
   -4   15   15     14.02      0.00
   -2   15   15      1.34      0.00
    0   15   15      1.48      0.00
    2   15   15     10.91      0.00
    4   15   15      6.80      0.00
    6   15   15     -0.48      0.00
    8   15   15     -0.41      0.00
   10   15   15     -4.08      0.00
   12   15   15     -6.08      0.00
   14   15   15     -2.84      0.00
  -15   16   15      2.50      0.00
  -13   16   15      5.27      0.00
  -11   16   15     16.23      0.00
   -9   16   15      7.51      0.00
   -7   16   15     -0.77      0.00
   -5   16   15      7.72      0.00
   -3   16   15     -0.08      0.00
   -1   16   15    -12.90      0.00
    1   16   15     -2.74      0.00
    3   16   15     -1.10      0.00
    5   16   15    -14.85      0.00
    7   16   15     -1.64      0.00
    9   16   15     16.18      0.00
   11   16   15      4.04      0.00
   13   16   15     -8.68      0.00
   15   16   15    -14.78      0.00
  -16   17   15    -19.82      0.00
  -14   17   15    -11.48      0.00
  -12   17   15     -1.20      0.00
  -10   17   15     10.02      0.00
   -8   17   15      7.72      0.00
   -6   17   15     -8.20      0.00
   -4   17   15    -12.06      0.00
   -2   17   15     -1.75      0.00
    0   17   15      3.45      0.00
    2   17   15      2.74      0.00
    4   17   15      6.77      0.00
    6   17   15      9.02      0.00
    8   17   15      4.90      0.00
   10   17   15      5.13      0.00
   12   17   15     10.38      0.00
   14   17   15     10.12      0.00
   16   17   15      3.74      0.00
  -17   18   15     -0.06      0.00
  -15   18   15     -2.21      0.00
  -13   18   15     -2.99      0.00
  -11   18   15    -10.92      0.00
   -9   18   15     -1.60      0.00
   -7   18   15     10.20      0.00
   -5   18   15      2.96      0.00
   -3   18   15      9.02      0.00
   -1   18   15     20.17      0.00
    1   18   15      6.15      0.00
    3   18   15      2.16      0.00
    5   18   15     21.89      0.00
    7   18   15     22.18      0.00
    9   18   15      9.41      0.00
   11   18   15     12.04      0.00
   13   18   15     12.44      0.00
   15   18   15     10.57      0.00
   17   18   15     15.77      0.00
  -18   19   15      9.14      0.00
  -16   19   15     10.74      0.00
  -14   19   15      9.87      0.00
  -12   19   15      6.21      0.00
  -10   19   15     -4.76      0.00
   -8   19   15     -7.63      0.00
   -6   19   15      4.70      0.00
   -4   19   15     10.95      0.00
   -2   19   15      6.11      0.00
    0   19   15      2.85      0.00
    2   19   15     -0.68      0.00
    4   19   15     -4.14      0.00
    6   19   15      1.05      0.00
    8   19   15     10.48      0.00
   10   19   15     14.12      0.00
   12   19   15      4.52      0.00
   14   19   15     -5.92      0.00
   16   19   15      0.10      0.00
   18   19   15      6.95      0.00
  -19   20   15     -8.16      0.00
  -17   20   15     -2.29      0.00
  -15   20   15      0.13      0.00
  -13   20   15     -2.80      0.00
  -11   20   15      1.74      0.00
   -9   20   15     -5.12      0.00
   -7   20   15    -16.93      0.00
   -5   20   15     -8.11      0.00
   -3   20   15     -7.59      0.00
   -1   20   15    -14.41      0.00
    1   20   15      1.71      0.00
    3   20   15      6.96      0.00
    5   20   15    -14.55      0.00
    7   20   15    -21.93      0.00
    9   20   15    -10.66      0.00
   11   20   15     -2.08      0.00
   13   20   15      8.39      0.00
   15   20   15     11.17      0.00
   17   20   15     -4.64      0.00
   19   20   15     -9.30      0.00
  -20   21   15     -0.76      0.00
  -18   21   15     -0.36      0.00
  -16   21   15     -0.91      0.00
  -14   21   15     -4.28      0.00
  -12   21   15     -6.48      0.00
  -10   21   15      1.69      0.00
   -8   21   15      9.83      0.00
   -6   21   15      4.28      0.00
   -4   21   15     -2.83      0.00
   -2   21   15     -3.86      0.00
    0   21   15     -7.40      0.00
    2   21   15     -5.84      0.00
    4   21   15     -2.97      0.00
    6   21   15    -11.58      0.00
    8   21   15    -19.69      0.00
   10   21   15    -22.05      0.00
   12   21   15    -10.86      0.00
   14   21   15      8.75      0.00
   16   21   15      6.94      0.00
   18   21   15     -2.25      0.00
   20   21   15     -2.29      0.00
  -21   22   15      4.81      0.00
  -19   22   15     10.88      0.00
  -17   22   15      3.23      0.00
  -15   22   15     -3.31      0.00
  -13   22   15      0.96      0.00
  -11   22   15      1.17      0.00
   -9   22   15      5.19      0.00
   -7   22   15     13.79      0.00
   -5   22   15      3.33      0.00
   -3   22   15     -2.29      0.00
   -1   22   15      3.33      0.00
    1   22   15     -8.89      0.00
    3   22   15    -12.73      0.00
    5   22   15      5.65      0.00
    7   22   15     12.39      0.00
    9   22   15      2.22      0.00
   11   22   15     -8.53      0.00
   13   22   15    -18.71      0.00
   15   22   15    -16.79      0.00
   17   22   15      6.45      0.00
   19   22   15     16.35      0.00
   21   22   15      3.08      0.00
  -20   23   15      2.54      0.00
  -18   23   15      4.80      0.00
  -16   23   15      0.88      0.00
  -14   23   15      0.99      0.00
  -12   23   15      4.62      0.00
  -10   23   15      2.03      0.00
   -8   23   15     -6.69      0.00
   -6   23   15     -9.36      0.00
   -4   23   15     -6.90      0.00
   -2   23   15     -5.73      0.00
    0   23   15      1.80      0.00
    2   23   15      3.57      0.00
    4   23   15     -0.86      0.00
    6   23   15      5.01      0.00
    8   23   15      6.76      0.00
   10   23   15      5.99      0.00
   12   23   15      2.13      0.00
   14   23   15    -13.91      0.00
   16   23   15    -14.41      0.00
   18   23   15     -4.27      0.00
   20   23   15     -4.20      0.00
  -19   24   15     -4.50      0.00
  -17   24   15      4.88      0.00
  -15   24   15     11.75      0.00
  -13   24   15      3.26      0.00
  -11   24   15     -4.51      0.00
   -9   24   15     -6.58      0.00
   -7   24   15    -10.24      0.00
   -5   24   15     -2.53      0.00
   -3   24   15      0.56      0.00
   -1   24   15     -7.24      0.00
    1   24   15     -0.01      0.00
    3   24   15      3.37      0.00
    5   24   15     -8.91      0.00
    7   24   15    -11.38      0.00
    9   24   15     -2.48      0.00
   11   24   15      4.88      0.00
   13   24   15     11.60      0.00
   15   24   15     10.60      0.00
   17   24   15     -7.48      0.00
   19   24   15    -15.57      0.00
  -16   25   15      0.93      0.00
  -14   25   15      2.39      0.00
  -12   25   15     -3.26      0.00
  -10   25   15     -7.96      0.00
   -8   25   15     -2.93      0.00
   -6   25   15      6.46      0.00
   -4   25   15     10.04      0.00
   -2   25   15      8.84      0.00
    0   25   15     -2.65      0.00
    2   25   15     -9.05      0.00
    4   25   15     -2.69      0.00
    6   25   15     -2.23      0.00
    8   25   15      3.14      0.00
   10   25   15      7.84      0.00
   12   25   15      2.00      0.00
   14   25   15      6.18      0.00
   16   25   15      7.89      0.00
  -15   26   15    -11.98      0.00
  -13   26   15     -3.37      0.00
  -11   26   15      3.61      0.00
   -9   26   15     -0.10      0.00
   -7   26   15     -2.67      0.00
   -5   26   15     -4.83      0.00
   -3   26   15     -1.63      0.00
   -1   26   15      5.95      0.00
    1   26   15     -0.40      0.00
    3   26   15     -5.17      0.00
    5   26   15      1.78      0.00
    7   26   15      1.26      0.00
    9   26   15     -5.94      0.00
   11   26   15     -8.06      0.00
   13   26   15     -9.91      0.00
   15   26   15    -10.73      0.00
  -14   27   15     -4.12      0.00
  -12   27   15      0.97      0.00
  -10   27   15      7.73      0.00
   -8   27   15      6.92      0.00
   -6   27   15     -2.81      0.00
   -4   27   15     -6.61      0.00
   -2   27   15     -1.58      0.00
    0   27   15     11.91      0.00
    2   27   15     18.34      0.00
    4   27   15      8.46      0.00
    6   27   15      1.67      0.00
    8   27   15     -6.61      0.00
   10   27   15    -12.91      0.00
   12   27   15     -1.67      0.00
   14   27   15      5.02      0.00
  -11   28   15      3.48      0.00
   -9   28   15      9.92      0.00
   -7   28   15     13.26      0.00
   -5   28   15     10.14      0.00
   -3   28   15      3.83      0.00
   -1   28   15     -0.19      0.00
    1   28   15      4.96      0.00
    3   28   15      7.97      0.00
    5   28   15      3.21      0.00
    7   28   15      4.24      0.00
    9   28   15      9.27      0.00
   11   28   15      6.61      0.00
   -8   29   15     -2.96      0.00
   -6   29   15      2.48      0.00
   -4   29   15      4.19      0.00
   -2   29   15     -1.93      0.00
    0   29   15    -11.09      0.00
    2   29   15    -12.28      0.00
    4   29   15     -2.10      0.00
    6   29   15      3.91      0.00
    8   29   15      7.99      0.00
   -5   30   15     -1.71      0.00
   -3   30   15      1.87      0.00
   -1   30   15      2.48      0.00
    1   30   15      2.78      0.00
    3   30   15      4.89      0.00
    5   30   15      7.25      0.00
    0    0   16     -3.27      0.00
    1    1   16     -0.51      0.00
    0    2   16      8.02      0.00
    2    2   16     13.93      0.00
   -1    3   16     -2.42      0.00
    1    3   16      1.68      0.00
    3    3   16      8.91      0.00
   -2    4   16    -10.21      0.00
    0    4   16     -0.97      0.00
    2    4   16     -9.23      0.00
    4    4   16    -13.60      0.00
   -3    5   16     10.73      0.00
   -1    5   16      2.31      0.00
    1    5   16     -1.88      0.00
    3    5   16    -15.36      0.00
    5    5   16    -20.88      0.00
   -4    6   16      4.68      0.00
   -2    6   16     -5.21      0.00
    0    6   16    -15.72      0.00
    2    6   16     -4.96      0.00
    4    6   16      7.24      0.00
    6    6   16      7.19      0.00
   -5    7   16    -17.61      0.00
   -3    7   16    -10.79      0.00
   -1    7   16     -4.37      0.00
    1    7   16     -5.58      0.00
    3    7   16      7.67      0.00
    5    7   16     13.35      0.00
    7    7   16      2.45      0.00
   -6    8   16     -6.29      0.00
   -4    8   16     -6.02      0.00
   -2    8   16     -1.07      0.00
    0    8   16      5.37      0.00
    2    8   16     -3.45      0.00
    4    8   16    -13.43      0.00
    6    8   16    -15.46      0.00
    8    8   16    -13.24      0.00
   -7    9   16      4.17      0.00
   -5    9   16     22.16      0.00
   -3    9   16     13.41      0.00
   -1    9   16      3.25      0.00
    1    9   16      7.92      0.00
    3    9   16     -3.24      0.00
    5    9   16    -12.58      0.00
    7    9   16      0.06      0.00
    9    9   16      0.82      0.00
   -8   10   16      1.00      0.00
   -6   10   16      1.16      0.00
   -4   10   16      9.43      0.00
   -2   10   16     11.68      0.00
    0   10   16      6.77      0.00
    2   10   16      6.66      0.00
    4   10   16      6.59      0.00
    6   10   16      8.79      0.00
    8   10   16     13.50      0.00
   10   10   16      5.24      0.00
   -9   11   16    -12.31      0.00
   -7   11   16    -15.71      0.00
   -5   11   16    -28.77      0.00
   -3   11   16    -13.97      0.00
   -1   11   16      2.46      0.00
    1   11   16     -2.74      0.00
    3   11   16      6.35      0.00
    5   11   16     21.52      0.00
    7   11   16     11.50      0.00
    9   11   16      6.90      0.00
   11   11   16     16.99      0.00
  -10   12   16      1.01      0.00
   -8   12   16      7.82      0.00
   -6   12   16      7.02      0.00
   -4   12   16     -0.55      0.00
   -2   12   16     -1.07      0.00
    0   12   16      4.82      0.00
    2   12   16      9.96      0.00
    4   12   16     14.99      0.00
    6   12   16      8.36      0.00
    8   12   16     -8.89      0.00
   10   12   16     -9.39      0.00
   12   12   16     -1.33      0.00
  -11   13   16     14.97      0.00
   -9   13   16     11.96      0.00
   -7   13   16     14.30      0.00
   -5   13   16     24.15      0.00
   -3   13   16      9.56      0.00
   -1   13   16     -5.11      0.00
    1   13   16      4.94      0.00
    3   13   16      3.52      0.00
    5   13   16    -10.26      0.00
    7   13   16     -0.08      0.00
    9   13   16      9.01      0.00
   11   13   16      0.32      0.00
   13   13   16     -0.41      0.00
  -12   14   16      5.19      0.00
  -10   14   16     10.48      0.00
   -8   14   16      0.69      0.00
   -6   14   16     -3.81      0.00
   -4   14   16     -1.17      0.00
   -2   14   16     -3.02      0.00
    0   14   16     -3.68      0.00
    2   14   16     -3.15      0.00
    4   14   16     -7.97      0.00
    6   14   16     -1.82      0.00
    8   14   16     18.01      0.00
   10   14   16     19.68      0.00
   12   14   16      4.53      0.00
   14   14   16     -3.83      0.00
  -13   15   16      0.93      0.00
  -11   15   16     -9.13      0.00
   -9   15   16     -4.39      0.00
   -7   15   16     -4.97      0.00
   -5   15   16    -14.00      0.00
   -3   15   16     -3.57      0.00
   -1   15   16      5.59      0.00
    1   15   16     -8.87      0.00
    3   15   16    -13.39      0.00
    5   15   16     -2.08      0.00
    7   15   16    -10.17      0.00
    9   15   16    -18.84      0.00
   11   15   16     -7.57      0.00
   13   15   16     -1.60      0.00
   15   15   16     -1.35      0.00
  -14   16   16      8.46      0.00
  -12   16   16     -6.22      0.00
  -10   16   16    -18.12      0.00
   -8   16   16     -8.69      0.00
   -6   16   16     -1.52      0.00
   -4   16   16     -2.83      0.00
   -2   16   16     -0.89      0.00
    0   16   16     -7.12      0.00
    2   16   16    -16.66      0.00
    4   16   16    -11.56      0.00
    6   16   16     -9.42      0.00
    8   16   16    -21.41      0.00
   10   16   16    -20.81      0.00
   12   16   16     -5.60      0.00
   14   16   16      5.53      0.00
   16   16   16     11.53      0.00
  -15   17   16      1.44      0.00
  -13   17   16      3.02      0.00
  -11   17   16      8.96      0.00
   -9   17   16      0.76      0.00
   -7   17   16     -2.36      0.00
   -5   17   16      5.10      0.00
   -3   17   16     -3.63      0.00
   -1   17   16    -11.48      0.00
    1   17   16      1.70      0.00
    3   17   16      5.38      0.00
    5   17   16     -6.69      0.00
    7   17   16     -3.23      0.00
    9   17   16      4.01      0.00
   11   17   16     -4.83      0.00
   13   17   16     -9.59      0.00
   15   17   16     -4.67      0.00
   17   17   16     -1.06      0.00
  -16   18   16     -9.67      0.00
  -14   18   16    -12.16      0.00
  -12   18   16     -3.50      0.00
  -10   18   16     10.13      0.00
   -8   18   16      4.01      0.00
   -6   18   16     -3.40      0.00
   -4   18   16     -2.16      0.00
   -2   18   16     -5.24      0.00
    0   18   16      2.77      0.00
    2   18   16     17.58      0.00
    4   18   16     10.63      0.00
    6   18   16     -2.52      0.00
    8   18   16     -0.94      0.00
   10   18   16     -0.97      0.00
   12   18   16     -4.23      0.00
   14   18   16     -4.31      0.00
   16   18   16     -9.21      0.00
   18   18   16     -9.22      0.00
  -17   19   16      2.54      0.00
  -15   19   16     -2.13      0.00
  -13   19   16     -5.46      0.00
  -11   19   16     -8.32      0.00
   -9   19   16      3.17      0.00
   -7   19   16     11.10      0.00
   -5   19   16      3.64      0.00
   -3   19   16      7.32      0.00
   -1   19   16     11.69      0.00
    1   19   16     -1.80      0.00
    3   19   16     -4.62      0.00
    5   19   16      6.83      0.00
    7   19   16      5.75      0.00
    9   19   16     -2.08      0.00
   11   19   16     -1.10      0.00
   13   19   16      0.03      0.00
   15   19   16     -5.10      0.00
   17   19   16     -7.19      0.00
   19   19   16     -7.03      0.00
  -18   20   16      2.76      0.00
  -16   20   16      1.88      0.00
  -14   20   16      8.67      0.00
  -12   20   16      8.31      0.00
  -10   20   16     -3.25      0.00
   -8   20   16     -0.84      0.00
   -6   20   16      5.30      0.00
   -4   20   16      2.48      0.00
   -2   20   16      5.46      0.00
    0   20   16      0.40      0.00
    2   20   16    -13.69      0.00
    4   20   16     -5.01      0.00
    6   20   16     14.77      0.00
    8   20   16     18.38      0.00
   10   20   16     14.33      0.00
   12   20   16      3.42      0.00
   14   20   16     -9.93      0.00
   16   20   16     -3.75      0.00
   18   20   16      5.85      0.00
   20   20   16      2.77      0.00
  -19   21   16     -8.03      0.00
  -17   21   16     -3.40      0.00
  -15   21   16      4.59      0.00
  -13   21   16      7.50      0.00
  -11   21   16      5.54      0.00
   -9   21   16     -8.05      0.00
   -7   21   16    -18.43      0.00
   -5   21   16     -7.97      0.00
   -3   21   16     -2.72      0.00
   -1   21   16     -2.15      0.00
    1   21   16     11.73      0.00
    3   21   16     13.80      0.00
    5   21   16      4.21      0.00
    7   21   16      4.77      0.00
    9   21   16     11.05      0.00
   11   21   16     14.41      0.00
   13   21   16     12.49      0.00
   15   21   16      9.61      0.00
   17   21   16      4.10      0.00
   19   21   16     -1.13      0.00
  -18   22   16     -3.50      0.00
  -16   22   16      3.41      0.00
  -14   22   16      1.52      0.00
  -12   22   16     -2.46      0.00
  -10   22   16      3.30      0.00
   -8   22   16      3.06      0.00
   -6   22   16      0.78      0.00
   -4   22   16      7.28      0.00
   -2   22   16      6.08      0.00
    0   22   16      5.52      0.00
    2   22   16     14.52      0.00
    4   22   16      7.37      0.00
    6   22   16    -10.30      0.00
    8   22   16    -12.61      0.00
   10   22   16     -6.68      0.00
   12   22   16      6.28      0.00
   14   22   16     22.30      0.00
   16   22   16     13.38      0.00
   18   22   16     -3.92      0.00
  -17   23   16     -1.97      0.00
  -15   23   16     -9.09      0.00
  -13   23   16     -8.25      0.00
  -11   23   16     -1.78      0.00
   -9   23   16      8.92      0.00
   -7   23   16     18.07      0.00
   -5   23   16      9.62      0.00
   -3   23   16      3.87      0.00
   -1   23   16      4.86      0.00
    1   23   16     -6.31      0.00
    3   23   16     -7.71      0.00
    5   23   16     -0.52      0.00
    7   23   16     -1.61      0.00
    9   23   16     -4.51      0.00
   11   23   16     -8.81      0.00
   13   23   16     -8.17      0.00
   15   23   16     -2.22      0.00
   17   23   16      4.63      0.00
  -16   24   16     -7.25      0.00
  -14   24   16     -9.20      0.00
  -12   24   16     -1.01      0.00
  -10   24   16      0.80      0.00
   -8   24   16     -1.59      0.00
   -6   24   16     -6.25      0.00
   -4   24   16    -15.35      0.00
   -2   24   16    -13.84      0.00
    0   24   16     -6.77      0.00
    2   24   16     -9.57      0.00
    4   24   16     -6.91      0.00
    6   24   16      3.33      0.00
    8   24   16      2.48      0.00
   10   24   16     -1.69      0.00
   12   24   16     -6.42      0.00
   14   24   16    -16.96      0.00
   16   24   16    -10.12      0.00
  -15   25   16      7.91      0.00
  -13   25   16      5.46      0.00
  -11   25   16      0.33      0.00
   -9   25   16     -1.62      0.00
   -7   25   16     -6.34      0.00
   -5   25   16     -5.12      0.00
   -3   25   16     -5.48      0.00
   -1   25   16     -7.94      0.00
    1   25   16      3.39      0.00
    3   25   16      6.29      0.00
    5   25   16      0.17      0.00
    7   25   16      0.46      0.00
    9   25   16     -0.37      0.00
   11   25   16      2.54      0.00
   13   25   16      5.27      0.00
  -12   26   16     -0.67      0.00
  -10   26   16     -3.98      0.00
   -8   26   16      2.13      0.00
   -6   26   16     11.02      0.00
   -4   26   16     16.32      0.00
   -2   26   16     10.56      0.00
    0   26   16      0.08      0.00
    2   26   16      0.48      0.00
    4   26   16      4.46      0.00
    6   26   16      3.12      0.00
    8   26   16      6.84      0.00
   10   26   16      9.44      0.00
   12   26   16      5.65      0.00
   -9   27   16     -7.49      0.00
   -7   27   16     -7.50      0.00
   -5   27   16     -3.21      0.00
   -3   27   16      1.07      0.00
   -1   27   16      1.12      0.00
    1   27   16    -10.89      0.00
    3   27   16    -13.67      0.00
    5   27   16     -6.74      0.00
    7   27   16     -5.91      0.00
    9   27   16     -3.62      0.00
   -6   28   16    -10.08      0.00
   -4   28   16     -9.00      0.00
   -2   28   16     -1.64      0.00
    0   28   16      5.49      0.00
    2   28   16      3.90      0.00
    4   28   16     -3.50      0.00
    6   28   16     -6.36      0.00
   -3   29   16     -3.48      0.00
   -1   29   16     -1.79      0.00
    1   29   16      5.66      0.00
    3   29   16      5.05      0.00
    0    1   17     12.79      0.00
   -1    2   17      9.50      0.00
    1    2   17      7.81      0.00
   -2    3   17     -1.35      0.00
    0    3   17     -7.33      0.00
    2    3   17     -4.59      0.00
   -3    4   17     -7.47      0.00
   -1    4   17    -11.33      0.00
    1    4   17     -7.13      0.00
    3    4   17      6.14      0.00
   -4    5   17     -8.79      0.00
   -2    5   17      4.54      0.00
    0    5   17      8.16      0.00
    2    5   17      3.43      0.00
    4    5   17      6.38      0.00
   -5    6   17      9.99      0.00
   -3    6   17     13.71      0.00
   -1    6   17     17.89      0.00
    1    6   17     14.01      0.00
    3    6   17     -3.99      0.00
    5    6   17    -12.30      0.00
   -6    7   17      9.18      0.00
   -4    7   17      7.04      0.00
   -2    7   17     -6.41      0.00
    0    7   17     -4.78      0.00
    2    7   17      4.62      0.00
    4    7   17      3.12      0.00
    6    7   17      4.78      0.00
   -7    8   17      5.86      0.00
   -5    8   17     -9.20      0.00
   -3    8   17     -7.76      0.00
   -1    8   17     -6.22      0.00
    1    8   17     -5.48      0.00
    3    8   17      6.99      0.00
    5    8   17     13.08      0.00
    7    8   17      6.88      0.00
   -8    9   17     -0.18      0.00
   -6    9   17     -8.33      0.00
   -4    9   17    -13.03      0.00
   -2    9   17     -1.69      0.00
    0    9   17     -4.30      0.00
    2    9   17    -13.02      0.00
    4    9   17     -6.93      0.00
    6    9   17     -8.13      0.00
    8    9   17    -12.25      0.00
   -9   10   17      3.57      0.00
   -7   10   17      7.32      0.00
   -5   10   17     11.70      0.00
   -3   10   17     -1.88      0.00
   -1   10   17    -11.36      0.00
    1   10   17     -7.17      0.00
    3   10   17     -8.95      0.00
    5   10   17    -12.16      0.00
    7   10   17    -10.11      0.00
    9   10   17     -7.34      0.00
  -10   11   17      3.28      0.00
   -8   11   17     -3.67      0.00
   -6   11   17      8.49      0.00
   -4   11   17     16.42      0.00
   -2   11   17      3.56      0.00
    0   11   17      1.44      0.00
    2   11   17      5.13      0.00
    4   11   17     -7.30      0.00
    6   11   17     -8.06      0.00
    8   11   17      4.08      0.00
   10   11   17     -3.60      0.00
  -11   12   17    -11.74      0.00
   -9   12   17    -14.09      0.00
   -7   12   17    -15.40      0.00
   -5   12   17    -12.73      0.00
   -3   12   17      3.56      0.00
   -1   12   17     12.22      0.00
    1   12   17      2.86      0.00
    3   12   17     -3.14      0.00
    5   12   17     -0.76      0.00
    7   12   17      3.65      0.00
    9   12   17      7.30      0.00
   11   12   17      2.63      0.00
  -12   13   17      2.34      0.00
  -10   13   17     -4.31      0.00
   -8   13   17      2.10      0.00
   -6   13   17     -7.25      0.00
   -4   13   17    -12.50      0.00
   -2   13   17      0.55      0.00
    0   13   17      0.62      0.00
    2   13   17     -6.65      0.00
    4   13   17      3.85      0.00
    6   13   17      3.73      0.00
    8   13   17    -15.05      0.00
   10   13   17    -13.89      0.00
   12   13   17     -2.66      0.00
  -13   14   17     -2.70      0.00
  -11   14   17      2.93      0.00
   -9   14   17      4.01      0.00
   -7   14   17      6.49      0.00
   -5   14   17      4.46      0.00
   -3   14   17     -5.83      0.00
   -1   14   17     -8.70      0.00
    1   14   17      0.74      0.00
    3   14   17      7.06      0.00
    5   14   17      5.60      0.00
    7   14   17      0.64      0.00
    9   14   17     -4.10      0.00
   11   14   17      1.59      0.00
   13   14   17     11.97      0.00
  -14   15   17    -13.90      0.00
  -12   15   17     -0.91      0.00
  -10   15   17     10.06      0.00
   -8   15   17      3.10      0.00
   -6   15   17      7.72      0.00
   -4   15   17     10.50      0.00
   -2   15   17      0.77      0.00
    0   15   17      8.63      0.00
    2   15   17     23.79      0.00
    4   15   17     16.40      0.00
    6   15   17     13.45      0.00
    8   15   17     29.63      0.00
   10   15   17     28.12      0.00
   12   15   17     11.39      0.00
   14   15   17      3.69      0.00
  -15   16   17      0.62      0.00
  -13   16   17     -0.36      0.00
  -11   16   17     -0.50      0.00
   -9   16   17      2.84      0.00
   -7   16   17      1.48      0.00
   -5   16   17      3.11      0.00
   -3   16   17      9.43      0.00
   -1   16   17      9.55      0.00
    1   16   17      5.50      0.00
    3   16   17      4.59      0.00
    5   16   17      5.26      0.00
    7   16   17      7.48      0.00
    9   16   17     11.62      0.00
   11   16   17      8.93      0.00
   13   16   17     -0.40      0.00
   15   16   17     -5.55      0.00
  -16   17   17      5.00      0.00
  -14   17   17     13.02      0.00
  -12   17   17      3.47      0.00
  -10   17   17     -9.68      0.00
   -8   17   17     -5.09      0.00
   -6   17   17     -7.06      0.00
   -4   17   17     -7.37      0.00
   -2   17   17      3.23      0.00
    0   17   17     -6.47      0.00
    2   17   17    -23.83      0.00
    4   17   17    -14.46      0.00
    6   17   17     -3.90      0.00
    8   17   17    -12.23      0.00
   10   17   17    -11.01      0.00
   12   17   17      1.41      0.00
   14   17   17      5.65      0.00
   16   17   17      2.97      0.00
  -17   18   17     -4.55      0.00
  -15   18   17     -0.24      0.00
  -13   18   17      8.55      0.00
  -11   18   17      8.94      0.00
   -9   18   17      0.31      0.00
   -7   18   17     -2.26      0.00
   -5   18   17     -3.98      0.00
   -3   18   17     -8.17      0.00
   -1   18   17     -6.60      0.00
    1   18   17     -5.66      0.00
    3   18   17     -8.09      0.00
    5   18   17     -6.18      0.00
    7   18   17     -4.53      0.00
    9   18   17     -7.64      0.00
   11   18   17     -9.24      0.00
   13   18   17     -5.85      0.00
   15   18   17      0.90      0.00
   17   18   17      4.52      0.00
  -18   19   17     -2.07      0.00
  -16   19   17     -0.84      0.00
  -14   19   17     -9.78      0.00
  -12   19   17     -7.20      0.00
  -10   19   17      4.62      0.00
   -8   19   17      1.69      0.00
   -6   19   17      1.30      0.00
   -4   19   17      1.89      0.00
   -2   19   17     -8.24      0.00
    0   19   17      0.65      0.00
    2   19   17     17.23      0.00
    4   19   17      4.56      0.00
    6   19   17    -12.79      0.00
    8   19   17    -11.06      0.00
   10   19   17     -7.83      0.00
   12   19   17     -6.78      0.00
   14   19   17     -1.49      0.00
   16   19   17      2.20      0.00
   18   19   17      6.09      0.00
  -17   20   17     11.62      0.00
  -15   20   17      3.99      0.00
  -13   20   17     -8.48      0.00
  -11   20   17     -9.11      0.00
   -9   20   17      2.32      0.00
   -7   20   17      6.20      0.00
   -5   20   17      3.57      0.00
   -3   20   17      2.74      0.00
   -1   20   17     -1.77      0.00
    1   20   17     -3.77      0.00
    3   20   17     -1.34      0.00
    5   20   17     -6.00      0.00
    7   20   17    -10.08      0.00
    9   20   17     -6.56      0.00
   11   20   17     -0.91      0.00
   13   20   17      4.61      0.00
   15   20   17      1.76      0.00
   17   20   17     -4.48      0.00
  -16   21   17     -6.12      0.00
  -14   21   17     -1.24      0.00
  -12   21   17      3.41      0.00
  -10   21   17     -0.89      0.00
   -8   21   17      3.47      0.00
   -6   21   17      4.39      0.00
   -4   21   17     -2.26      0.00
   -2   21   17      1.85      0.00
    0   21   17     -5.80      0.00
    2   21   17    -20.05      0.00
    4   21   17     -6.97      0.00
    6   21   17     11.01      0.00
    8   21   17     11.42      0.00
   10   21   17      4.70      0.00
   12   21   17     -5.54      0.00
   14   21   17    -14.39      0.00
   16   21   17    -11.22      0.00
  -15   22   17     -7.28      0.00
  -13   22   17     -0.49      0.00
  -11   22   17     -0.99      0.00
   -9   22   17     -9.62      0.00
   -7   22   17    -11.78      0.00
   -5   22   17     -6.34      0.00
   -3   22   17     -4.23      0.00
   -1   22   17     -1.12      0.00
    1   22   17      1.40      0.00
    3   22   17     -0.46      0.00
    5   22   17      5.20      0.00
    7   22   17     10.19      0.00
    9   22   17      6.09      0.00
   11   22   17      0.62      0.00
   13   22   17     -7.69      0.00
   15   22   17     -7.75      0.00
  -14   23   17     11.68      0.00
  -12   23   17      1.41      0.00
  -10   23   17     -2.70      0.00
   -8   23   17     -6.56      0.00
   -6   23   17     -5.82      0.00
   -4   23   17      4.17      0.00
   -2   23   17      2.69      0.00
    0   23   17      5.63      0.00
    2   23   17     16.26      0.00
    4   23   17      6.93      0.00
    6   23   17     -6.37      0.00
    8   23   17     -7.39      0.00
   10   23   17     -2.95      0.00
   12   23   17      7.02      0.00
   14   23   17     15.43      0.00
  -13   24   17      3.85      0.00
  -11   24   17      3.36      0.00
   -9   24   17      6.56      0.00
   -7   24   17      9.69      0.00
   -5   24   17      9.54      0.00
   -3   24   17     11.91      0.00
   -1   24   17     11.76      0.00
    1   24   17      7.26      0.00
    3   24   17      7.48      0.00
    5   24   17      3.28      0.00
    7   24   17     -1.25      0.00
    9   24   17      2.11      0.00
   11   24   17      2.72      0.00
   13   24   17      5.16      0.00
  -10   25   17      4.99      0.00
   -8   25   17      2.73      0.00
   -6   25   17     -0.59      0.00
   -4   25   17     -6.48      0.00
   -2   25   17     -2.35      0.00
    0   25   17     -1.53      0.00
    2   25   17    -10.58      0.00
    4   25   17     -7.16      0.00
    6   25   17      0.87      0.00
    8   25   17      3.30      0.00
   10   25   17      3.96      0.00
   -9   26   17      2.66      0.00
   -7   26   17     -1.56      0.00
   -5   26   17     -5.81      0.00
   -3   26   17     -9.22      0.00
   -1   26   17     -8.08      0.00
    1   26   17     -0.86      0.00
    3   26   17     -0.90      0.00
    5   26   17     -1.75      0.00
    7   26   17     -0.03      0.00
   -4   27   17      6.12      0.00
   -2   27   17     -0.55      0.00
    0   27   17     -0.42      0.00
    2   27   17      8.87      0.00
    4   27   17     10.34      0.00
    1    1   18    -17.96      0.00
    0    2   18      2.47      0.00
    2    2   18     -2.89      0.00
   -1    3   18     13.83      0.00
    1    3   18     11.09      0.00
    3    3   18      7.31      0.00
   -2    4   18     -5.10      0.00
    0    4   18     -0.41      0.00
    2    4   18      4.96      0.00
    4    4   18      3.60      0.00
   -3    5   18    -14.46      0.00
   -1    5   18    -19.32      0.00
    1    5   18    -11.53      0.00
    3    5   18     -4.28      0.00
    5    5   18     -7.76      0.00
   -4    6   18      0.80      0.00
   -2    6   18      2.61      0.00
    0    6   18     -7.98      0.00
    2    6   18    -13.87      0.00
    4    6   18     -6.77      0.00
    6    6   18     -4.34      0.00
   -5    7   18      7.88      0.00
   -3    7   18     14.36      0.00
   -1    7   18     16.15      0.00
    1    7   18      5.54      0.00
    3    7   18     -1.89      0.00
    5    7   18      0.19      0.00
    7    7   18      0.47      0.00
   -6    8   18     -5.82      0.00
   -4    8   18      0.08      0.00
   -2    8   18     -4.47      0.00
    0    8   18      7.48      0.00
    2    8   18     16.78      0.00
    4    8   18      9.70      0.00
    6    8   18     10.00      0.00
    8    8   18     15.32      0.00
   -7    9   18     -4.70      0.00
   -5    9   18     -2.24      0.00
   -3    9   18      0.20      0.00
   -1    9   18      1.90      0.00
    1    9   18      8.61      0.00
    3    9   18      8.05      0.00
    5    9   18      1.82      0.00
    7    9   18      4.00      0.00
    9    9   18     -0.17      0.00
   -8   10   18     11.71      0.00
   -6   10   18      1.56      0.00
   -4   10   18     -2.79      0.00
   -2   10   18      8.96      0.00
    0   10   18      3.22      0.00
    2   10   18     -6.79      0.00
    4   10   18     -0.75      0.00
    6   10   18     -0.20      0.00
    8   10   18     -4.96      0.00
   10   10   18     -2.32      0.00
   -9   11   18     11.73      0.00
   -7   11   18     11.27      0.00
   -5   11   18     -2.49      0.00
   -3   11   18    -10.48      0.00
   -1   11   18     -9.16      0.00
    1   11   18     -6.89      0.00
    3   11   18      2.88      0.00
    5   11   18     12.38      0.00
    7   11   18      2.94      0.00
    9   11   18     -4.29      0.00
   11   11   18      4.20      0.00
  -10   12   18      0.13      0.00
   -8   12   18     -5.63      0.00
   -6   12   18      3.77      0.00
   -4   12   18      5.27      0.00
   -2   12   18    -10.23      0.00
    0   12   18     -9.56      0.00
    2   12   18      0.30      0.00
    4   12   18     -2.77      0.00
    6   12   18     -2.86      0.00
    8   12   18      2.06      0.00
   10   12   18      1.43      0.00
   12   12   18      2.87      0.00
  -11   13   18     -3.24      0.00
   -9   13   18     -8.65      0.00
   -7   13   18     -8.59      0.00
   -5   13   18      5.22      0.00
   -3   13   18      9.95      0.00
   -1   13   18      4.70      0.00
    1   13   18      1.44      0.00
    3   13   18     -7.33      0.00
    5   13   18    -16.08      0.00
    7   13   18     -3.23      0.00
    9   13   18     11.14      0.00
   11   13   18      2.80      0.00
   13   13   18     -4.68      0.00
  -12   14   18      4.12      0.00
  -10   14   18     -0.54      0.00
   -8   14   18      2.47      0.00
   -6   14   18     -5.54      0.00
   -4   14   18     -6.00      0.00
   -2   14   18      5.50      0.00
    0   14   18      2.72      0.00
    2   14   18     -7.03      0.00
    4   14   18     -5.72      0.00
    6   14   18     -6.81      0.00
    8   14   18    -12.68      0.00
   10   14   18    -12.54      0.00
   12   14   18    -12.57      0.00
   14   14   18    -10.88      0.00
  -13   15   18      2.93      0.00
  -11   15   18     -3.74      0.00
   -9   15   18     -0.71      0.00
   -7   15   18      2.69      0.00
   -5   15   18     -6.43      0.00
   -3   15   18     -7.51      0.00
   -1   15   18     -3.38      0.00
    1   15   18     -8.04      0.00
    3   15   18     -7.18      0.00
    5   15   18      0.58      0.00
    7   15   18     -8.63      0.00
    9   15   18    -22.48      0.00
   11   15   18    -13.91      0.00
   13   15   18     -0.29      0.00
   15   15   18      1.19      0.00
  -14   16   18     -4.98      0.00
  -12   16   18     -0.94      0.00
  -10   16   18      3.62      0.00
   -8   16   18      1.95      0.00
   -6   16   18      8.33      0.00
   -4   16   18      7.09      0.00
   -2   16   18     -1.66      0.00
    0   16   18      2.80      0.00
    2   16   18      8.76      0.00
    4   16   18      3.59      0.00
    6   16   18      2.25      0.00
    8   16   18      6.17      0.00
   10   16   18      3.67      0.00
   12   16   18     -0.56      0.00
   14   16   18     -4.24      0.00
   16   16   18     -7.28      0.00
  -15   17   18     -0.87      0.00
  -13   17   18     -9.19      0.00
  -11   17   18     -2.80      0.00
   -9   17   18      1.21      0.00
   -7   17   18      0.24      0.00
   -5   17   18      6.81      0.00
   -3   17   18      5.38      0.00
   -1   17   18      1.25      0.00
    1   17   18     10.80      0.00
    3   17   18     13.97      0.00
    5   17   18      3.93      0.00
    7   17   18      6.44      0.00
    9   17   18     17.27      0.00
   11   17   18     12.89      0.00
   13   17   18      1.39      0.00
   15   17   18     -1.60      0.00
   17   17   18      2.02      0.00
  -16   18   18     -3.48      0.00
  -14   18   18      3.08      0.00
  -12   18   18     -1.00      0.00
  -10   18   18     -6.69      0.00
   -8   18   18     -5.69      0.00
   -6   18   18     -9.07      0.00
   -4   18   18     -4.76      0.00
   -2   18   18      4.88      0.00
    0   18   18     -0.29      0.00
    2   18   18     -4.44      0.00
    4   18   18      4.71      0.00
    6   18   18     10.22      0.00
    8   18   18     10.22      0.00
   10   18   18     13.75      0.00
   12   18   18     17.37      0.00
   14   18   18     17.40      0.00
   16   18   18     13.41      0.00
   18   18   18      4.39      0.00
  -17   19   18     -6.57      0.00
  -15   19   18      0.21      0.00
  -13   19   18     15.04      0.00
  -11   19   18     11.08      0.00
   -9   19   18      0.41      0.00
   -7   19   18     -1.26      0.00
   -5   19   18     -4.12      0.00
   -3   19   18     -0.54      0.00
   -1   19   18      4.71      0.00
    1   19   18     -5.24      0.00
    3   19   18     -7.90      0.00
    5   19   18      6.11      0.00
    7   19   18      9.40      0.00
    9   19   18      1.08      0.00
   11   19   18     -2.07      0.00
   13   19   18     -0.13      0.00
   15   19   18      2.67      0.00
   17   19   18      2.15      0.00
  -14   20   18     -4.58      0.00
  -12   20   18     -2.36      0.00
  -10   20   18      2.12      0.00
   -8   20   18      0.97      0.00
   -6   20   18      3.53      0.00
   -4   20   18      2.72      0.00
   -2   20   18     -3.37      0.00
    0   20   18      4.17      0.00
    2   20   18      9.80      0.00
    4   20   18     -0.58      0.00
    6   20   18     -8.64      0.00
    8   20   18    -11.11      0.00
   10   20   18    -13.04      0.00
   12   20   18    -13.13      0.00
   14   20   18    -11.36      0.00
  -13   21   18     -5.51      0.00
  -11   21   18     -6.39      0.00
   -9   21   18      1.82      0.00
   -7   21   18      0.96      0.00
   -5   21   18     -0.18      0.00
   -3   21   18     -2.36      0.00
   -1   21   18     -5.60      0.00
    1   21   18      4.01      0.00
    3   21   18      5.93      0.00
    5   21   18     -9.32      0.00
    7   21   18    -14.23      0.00
    9   21   18     -6.21      0.00
   11   21   18      3.28      0.00
   13   21   18     10.71      0.00
  -12   22   18      7.86      0.00
  -10   22   18      6.83      0.00
   -8   22   18      6.74      0.00
   -6   22   18      3.29      0.00
   -4   22   18     -0.63      0.00
   -2   22   18      2.87      0.00
    0   22   18     -2.67      0.00
    2   22   18     -8.49      0.00
    4   22   18     -0.17      0.00
    6   22   18      5.72      0.00
    8   22   18      7.36      0.00
   10   22   18      7.57      0.00
   12   22   18      5.13      0.00
  -11   23   18      0.57      0.00
   -9   23   18     -0.78      0.00
   -7   23   18      0.83      0.00
   -5   23   18      0.92      0.00
   -3   23   18     -1.23      0.00
   -1   23   18     -0.93      0.00
    1   23   18     -8.83      0.00
    3   23   18    -10.62      0.00
    5   23   18      2.79      0.00
    7   23   18      8.04      0.00
    9   23   18      2.87      0.00
   11   23   18     -4.44      0.00
   -8   24   18     -5.99      0.00
   -6   24   18     -4.51      0.00
   -4   24   18     -2.45      0.00
   -2   24   18     -6.97      0.00
    0   24   18     -4.72      0.00
    2   24   18      1.14      0.00
    4   24   18     -3.95      0.00
    6   24   18     -7.38      0.00
    8   24   18     -8.76      0.00
   -5   25   18      0.92      0.00
   -3   25   18      3.10      0.00
   -1   25   18      2.02      0.00
    1   25   18      6.53      0.00
    3   25   18      9.22      0.00
    5   25   18      0.91      0.00
    0    1   19     -3.90      0.00
   -1    2   19      0.67      0.00
    1    2   19      1.83      0.00
   -2    3   19      5.67      0.00
    0    3   19      6.11      0.00
    2    3   19      3.13      0.00
   -3    4   19      5.63      0.00
   -1    4   19      7.00      0.00
    1    4   19      1.12      0.00
    3    4   19     -2.83      0.00
   -4    5   19      2.27      0.00
   -2    5   19      2.86      0.00
    0    5   19      6.85      0.00
    2    5   19      6.45      0.00
    4    5   19      6.70      0.00
   -5    6   19     -7.05      0.00
   -3    6   19    -10.05      0.00
   -1    6   19     -8.53      0.00
    1    6   19      2.60      0.00
    3    6   19      3.94      0.00
    5    6   19     -0.63      0.00
   -6    7   19      2.73      0.00
   -4    7   19     -2.98      0.00
   -2    7   19     -6.47      0.00
    0    7   19    -13.47      0.00
    2    7   19    -12.33      0.00
    4    7   19     -8.02      0.00
    6    7   19     -8.29      0.00
   -7    8   19     12.46      0.00
   -5    8   19      4.94      0.00
   -3    8   19      5.54      0.00
   -1    8   19      2.60      0.00
    1    8   19    -10.91      0.00
    3    8   19     -9.81      0.00
    5    8   19     -3.95      0.00
    7    8   19     -9.95      0.00
   -8    9   19    -10.71      0.00
   -6    9   19     -5.16      0.00
   -4    9   19     -1.42      0.00
   -2    9   19     -1.41      0.00
    0    9   19      4.05      0.00
    2    9   19      5.75      0.00
    4    9   19      3.83      0.00
    6    9   19      4.58      0.00
    8    9   19      7.85      0.00
   -9   10   19    -14.92      0.00
   -7   10   19    -17.22      0.00
   -5   10   19     -1.56      0.00
   -3   10   19      0.02      0.00
   -1   10   19     -2.29      0.00
    1   10   19      5.92      0.00
    3   10   19      1.60      0.00
    5   10   19     -5.98      0.00
    7   10   19      2.00      0.00
    9   10   19      5.42      0.00
  -10   11   19      0.86      0.00
   -8   11   19      4.55      0.00
   -6   11   19      2.74      0.00
   -4   11   19      2.27      0.00
   -2   11   19      4.41      0.00
    0   11   19      1.14      0.00
    2   11   19     -2.75      0.00
    4   11   19     -4.64      0.00
    6   11   19     -4.51      0.00
    8   11   19     -0.10      0.00
   10   11   19     -2.48      0.00
  -11   12   19      6.12      0.00
   -9   12   19     14.73      0.00
   -7   12   19     13.84      0.00
   -5   12   19     -2.81      0.00
   -3   12   19     -1.15      0.00
   -1   12   19      8.02      0.00
    1   12   19      5.26      0.00
    3   12   19      9.06      0.00
    5   12   19     14.85      0.00
    7   12   19      4.44      0.00
    9   12   19     -3.39      0.00
   11   12   19     -0.12      0.00
  -12   13   19     -1.16      0.00
  -10   13   19     -3.18      0.00
   -8   13   19     -2.65      0.00
   -6   13   19      0.49      0.00
   -4   13   19      1.31      0.00
   -2   13   19      1.20      0.00
    0   13   19      2.79      0.00
    2   13   19      4.34      0.00
    4   13   19      8.13      0.00
    6   13   19     10.75      0.00
    8   13   19      4.19      0.00
   10   13   19      3.76      0.00
   12   13   19     11.42      0.00
  -13   14   19     -6.62      0.00
  -11   14   19      1.35      0.00
   -9   14   19     -5.30      0.00
   -7   14   19     -7.28      0.00
   -5   14   19      3.43      0.00
   -3   14   19     -0.40      0.00
   -1   14   19     -7.08      0.00
    1   14   19     -1.83      0.00
    3   14   19     -2.48      0.00
    5   14   19     -6.65      0.00
    7   14   19      3.48      0.00
    9   14   19     13.17      0.00
   11   14   19      8.68      0.00
   13   14   19      2.99      0.00
  -14   15   19      0.27      0.00
  -12   15   19      2.37      0.00
  -10   15   19      5.01      0.00
   -8   15   19     -0.08      0.00
   -6   15   19     -6.68      0.00
   -4   15   19     -7.28      0.00
   -2   15   19     -7.64      0.00
    0   15   19     -6.43      0.00
    2   15   19     -1.09      0.00
    4   15   19     -1.97      0.00
    6   15   19     -7.30      0.00
    8   15   19     -2.89      0.00
   10   15   19     -0.57      0.00
   12   15   19     -7.58      0.00
   14   15   19     -3.46      0.00
  -15   16   19     -6.91      0.00
  -13   16   19      0.02      0.00
  -11   16   19     -5.14      0.00
   -9   16   19     -0.15      0.00
   -7   16   19      3.40      0.00
   -5   16   19     -2.78      0.00
   -3   16   19      1.28      0.00
   -1   16   19      3.34      0.00
    1   16   19     -4.34      0.00
    3   16   19     -2.45      0.00
    5   16   19      3.65      0.00
    7   16   19     -4.39      0.00
    9   16   19    -14.26      0.00
   11   16   19     -9.45      0.00
   13   16   19      1.40      0.00
   15   16   19      6.81      0.00
  -16   17   19      6.21      0.00
  -14   17   19      4.17      0.00
  -12   17   19      4.12      0.00
  -10   17   19      0.54      0.00
   -8   17   19      4.42      0.00
   -6   17   19     10.38      0.00
   -4   17   19      7.16      0.00
   -2   17   19      4.31      0.00
    0   17   19      1.84      0.00
    2   17   19     -6.96      0.00
    4   17   19     -9.37      0.00
    6   17   19     -4.38      0.00
    8   17   19     -7.53      0.00
   10   17   19    -11.34      0.00
   12   17   19     -6.67      0.00
   14   17   19     -7.23      0.00
   16   17   19    -12.92      0.00
  -13   18   19     -5.21      0.00
  -11   18   19     -1.27      0.00
   -9   18   19      0.16      0.00
   -7   18   19     -1.53      0.00
   -5   18   19      0.98      0.00
   -3   18   19     -4.84      0.00
   -1   18   19     -5.66      0.00
    1   18   19      3.70      0.00
    3   18   19      0.17      0.00
    5   18   19     -9.18      0.00
    7   18   19     -5.46      0.00
    9   18   19      0.93      0.00
   11   18   19     -3.03      0.00
   13   18   19    -12.90      0.00
   15   18   19    -17.42      0.00
  -12   19   19     -8.59      0.00
  -10   19   19     -3.99      0.00
   -8   19   19     -3.99      0.00
   -6   19   19     -8.58      0.00
   -4   19   19     -4.44      0.00
   -2   19   19     -0.31      0.00
    0   19   19     -0.30      0.00
    2   19   19      5.80      0.00
    4   19   19      9.16      0.00
    6   19   19      7.11      0.00
    8   19   19     10.73      0.00
   10   19   19     13.96      0.00
   12   19   19     10.69      0.00
  -11   20   19      6.75      0.00
   -9   20   19      1.93      0.00
   -7   20   19      3.68      0.00
   -5   20   19      3.83      0.00
   -3   20   19      8.40      0.00
   -1   20   19      7.63      0.00
    1   20   19     -4.25      0.00
    3   20   19     -1.66      0.00
    5   20   19      9.50      0.00
    7   20   19      8.90      0.00
    9   20   19      4.99      0.00
   11   20   19      4.72      0.00
  -10   21   19     -0.28      0.00
   -8   21   19      0.14      0.00
   -6   21   19      5.99      0.00
   -4   21   19      5.12      0.00
   -2   21   19      1.79      0.00
    0   21   19      3.16      0.00
    2   21   19      0.31      0.00
    4   21   19     -2.21      0.00
    6   21   19     -2.18      0.00
    8   21   19     -6.46      0.00
   10   21   19     -9.34      0.00
   -7   22   19     -5.20      0.00
   -5   22   19     -5.44      0.00
   -3   22   19     -6.85      0.00
   -1   22   19     -6.71      0.00
    1   22   19      3.80      0.00
    3   22   19      2.84      0.00
    5   22   19     -6.73      0.00
    7   22   19     -5.50      0.00
   -4   23   19     -1.25      0.00
   -2   23   19      2.61      0.00
    0   23   19      2.26      0.00
    2   23   19      3.30      0.00
    4   23   19      3.62      0.00
    0    0   20      9.04      0.00
    1    1   20      2.42      0.00
    0    2   20    -10.93      0.00
    2    2   20    -13.15      0.00
   -1    3   20      0.95      0.00
    1    3   20     -7.45      0.00
    3    3   20     -7.83      0.00
   -2    4   20      7.11      0.00
    0    4   20      3.23      0.00
    2    4   20      6.70      0.00
    4    4   20      6.12      0.00
   -3    5   20     -5.65      0.00
   -1    5   20     -3.96      0.00
    1    5   20     -0.04      0.00
    3    5   20      5.55      0.00
    5    5   20      6.39      0.00
   -4    6   20     -3.47      0.00
   -2    6   20      1.66      0.00
    0    6   20      7.24      0.00
    2    6   20      3.92      0.00
    4    6   20      1.23      0.00
    6    6   20     -1.72      0.00
   -5    7   20      3.42      0.00
   -3    7   20      3.15      0.00
   -1    7   20      4.99      0.00
    1    7   20      7.30      0.00
    3    7   20      0.09      0.00
    5    7   20     -2.03      0.00
    7    7   20      4.31      0.00
   -6    8   20      1.79      0.00
   -4    8   20      4.32      0.00
   -2    8   20     -0.31      0.00
    0    8   20     -3.72      0.00
    2    8   20     -1.50      0.00
    4    8   20     -0.76      0.00
    6    8   20      2.61      0.00
    8    8   20      1.47      0.00
   -7    9   20      9.21      0.00
   -5    9   20     -0.16      0.00
   -3    9   20      1.09      0.00
   -1    9   20      2.00      0.00
    1    9   20     -3.17      0.00
    3    9   20      1.54      0.00
    5    9   20      3.90      0.00
    7    9   20     -1.84      0.00
    9    9   20     -4.80      0.00
   -8   10   20      8.01      0.00
   -6   10   20      3.02      0.00
   -4   10   20     -2.64      0.00
   -2   10   20      1.15      0.00
    0   10   20      2.94      0.00
    2   10   20      1.48      0.00
    4   10   20      2.90      0.00
    6   10   20     -1.09      0.00
    8   10   20     -4.59      0.00
   10   10   20      3.37      0.00
   -9   11   20     -5.05      0.00
   -7   11   20     -8.41      0.00
   -5   11   20      0.26      0.00
   -3   11   20     -1.94      0.00
   -1   11   20     -6.33      0.00
    1   11   20     -2.43      0.00
    3   11   20     -5.08      0.00
    5   11   20     -8.10      0.00
    7   11   20     -6.09      0.00
    9   11   20     -6.63      0.00
   11   11   20     -4.20      0.00
  -10   12   20     -5.31      0.00
   -8   12   20     -8.29      0.00
   -6   12   20     -2.70      0.00
   -4   12   20      0.07      0.00
   -2   12   20     -6.93      0.00
    0   12   20     -7.44      0.00
    2   12   20     -3.33      0.00
    4   12   20     -4.81      0.00
    6   12   20     -2.62      0.00
    8   12   20      3.83      0.00
   10   12   20     -1.74      0.00
   12   12   20     -8.85      0.00
  -11   13   20     -1.61      0.00
   -9   13   20      2.75      0.00
   -7   13   20      4.24      0.00
   -5   13   20     -0.65      0.00
   -3   13   20      1.12      0.00
   -1   13   20      2.02      0.00
    1   13   20     -2.54      0.00
    3   13   20     -1.04      0.00
    5   13   20      0.96      0.00
    7   13   20     -0.40      0.00
    9   13   20      0.86      0.00
   11   13   20     -2.51      0.00
   13   13   20     -5.90      0.00
  -12   14   20      3.14      0.00
  -10   14   20     -2.68      0.00
   -8   14   20      3.91      0.00
   -6   14   20      4.88      0.00
   -4   14   20      6.39      0.00
   -2   14   20     12.80      0.00
    0   14   20      8.28      0.00
    2   14   20     -0.65      0.00
    4   14   20      1.12      0.00
    6   14   20      4.10      0.00
    8   14   20     -1.27      0.00
   10   14   20      1.03      0.00
   12   14   20     10.58      0.00
   14   14   20      7.78      0.00
  -13   15   20     -0.93      0.00
  -11   15   20      4.03      0.00
   -9   15   20      1.02      0.00
   -7   15   20     -0.38      0.00
   -5   15   20     -0.04      0.00
   -3   15   20     -1.76      0.00
   -1   15   20      3.17      0.00
    1   15   20      7.40      0.00
    3   15   20      1.55      0.00
    5   15   20     -0.82      0.00
    7   15   20      4.11      0.00
    9   15   20      7.08      0.00
   11   15   20     11.13      0.00
   13   15   20     11.53      0.00
  -12   16   20      0.04      0.00
  -10   16   20      4.41      0.00
   -8   16   20     -4.44      0.00
   -6   16   20     -9.61      0.00
   -4   16   20    -10.56      0.00
   -2   16   20    -12.91      0.00
    0   16   20     -6.05      0.00
    2   16   20      2.63      0.00
    4   16   20     -0.54      0.00
    6   16   20     -4.92      0.00
    8   16   20      2.01      0.00
   10   16   20      5.76      0.00
   12   16   20     -1.47      0.00
  -11   17   20     -4.08      0.00
   -9   17   20     -1.58      0.00
   -7   17   20     -0.63      0.00
   -5   17   20      1.95      0.00
   -3   17   20      7.12      0.00
   -1   17   20      1.78      0.00
    1   17   20     -1.01      0.00
    3   17   20      9.72      0.00
    5   17   20     13.28      0.00
    7   17   20      5.46      0.00
    9   17   20     -0.63      0.00
   11   17   20     -4.36      0.00
  -10   18   20     -0.77      0.00
   -8   18   20      3.91      0.00
   -6   18   20      9.24      0.00
   -4   18   20      8.39      0.00
   -2   18   20      7.65      0.00
    0   18   20      1.89      0.00
    2   18   20     -4.04      0.00
    4   18   20     -0.76      0.00
    6   18   20      1.31      0.00
    8   18   20     -5.20      0.00
   10   18   20     -8.13      0.00
   -7   19   20     -2.51      0.00
   -5   19   20     -4.73      0.00
   -3   19   20    -10.79      0.00
   -1   19   20     -5.67      0.00
    1   19   20     -0.10      0.00
    3   19   20     -9.98      0.00
    5   19   20    -15.69      0.00
    7   19   20    -10.98      0.00
   -6   20   20     -9.85      0.00
   -4   20   20     -9.68      0.00
   -2   20   20     -7.85      0.00
    0   20   20     -3.36      0.00
    2   20   20      1.43      0.00
    4   20   20     -0.52      0.00
    6   20   20      0.59      0.00
    0    1   21     -3.80      0.00
   -1    2   21     -2.54      0.00
    1    2   21      4.88      0.00
   -2    3   21    -13.00      0.00
    0    3   21     -2.69      0.00
    2    3   21     -0.72      0.00
   -3    4   21     -0.84      0.00
   -1    4   21      4.32      0.00
    1    4   21     -2.14      0.00
    3    4   21    -11.77      0.00
   -4    5   21      8.00      0.00
   -2    5   21      7.44      0.00
    0    5   21      2.03      0.00
    2    5   21     -0.19      0.00
    4    5   21     -1.59      0.00
   -5    6   21     -4.12      0.00
   -3    6   21     -2.09      0.00
   -1    6   21     -8.86      0.00
    1    6   21     -7.86      0.00
    3    6   21      1.02      0.00
    5    6   21      1.27      0.00
   -6    7   21      2.05      0.00
   -4    7   21     -2.11      0.00
   -2    7   21      0.40      0.00
    0    7   21      1.31      0.00
    2    7   21      2.71      0.00
    4    7   21      5.27      0.00
    6    7   21      3.88      0.00
   -7    8   21      5.47      0.00
   -5    8   21      5.62      0.00
   -3    8   21     -1.96      0.00
   -1    8   21     -1.66      0.00
    1    8   21      2.22      0.00
    3    8   21      0.92      0.00
    5    8   21      1.83      0.00
    7    8   21      3.45      0.00
   -8    9   21     -5.86      0.00
   -6    9   21     -5.26      0.00
   -4    9   21     -1.45      0.00
   -2    9   21     -6.01      0.00
    0    9   21     -5.73      0.00
    2    9   21     -6.03      0.00
    4    9   21     -8.88      0.00
    6    9   21     -4.10      0.00
    8    9   21     -3.25      0.00
   -9   10   21     -9.21      0.00
   -7   10   21     -9.17      0.00
   -5   10   21     -4.69      0.00
   -3   10   21      7.00      0.00
   -1   10   21     12.39      0.00
    1   10   21      6.66      0.00
    3   10   21      2.08      0.00
    5   10   21      2.02      0.00
    7   10   21      6.57      0.00
    9   10   21      9.02      0.00
  -10   11   21     -5.86      0.00
   -8   11   21      4.35      0.00
   -6   11   21      1.62      0.00
   -4   11   21     -1.28      0.00
   -2   11   21      5.14      0.00
    0   11   21      5.13      0.00
    2   11   21      4.32      0.00
    4   11   21      7.62      0.00
    6   11   21      3.73      0.00
    8   11   21      1.83      0.00
   10   11   21      7.59      0.00
  -11   12   21      6.96      0.00
   -9   12   21      7.38      0.00
   -7   12   21      6.09      0.00
   -5   12   21     -0.13      0.00
   -3   12   21     -7.67      0.00
   -1   12   21    -11.04      0.00
    1   12   21     -7.00      0.00
    3   12   21     -3.27      0.00
    5   12   21     -4.43      0.00
    7   12   21    -11.35      0.00
    9   12   21    -16.03      0.00
   11   12   21     -7.60      0.00
  -12   13   21     -0.21      0.00
  -10   13   21      5.87      0.00
   -8   13   21      1.98      0.00
   -6   13   21      3.45      0.00
   -4   13   21      3.04      0.00
   -2   13   21     -0.23      0.00
    0   13   21      5.97      0.00
    2   13   21     10.60      0.00
    4   13   21      6.21      0.00
    6   13   21      4.30      0.00
    8   13   21      2.81      0.00
   10   13   21     -3.56      0.00
   12   13   21     -5.72      0.00
  -11   14   21     -2.76      0.00
   -9   14   21     -3.82      0.00
   -7   14   21     -4.63      0.00
   -5   14   21      0.97      0.00
   -3   14   21      3.15      0.00
   -1   14   21      1.14      0.00
    1   14   21      0.49      0.00
    3   14   21      2.05      0.00
    5   14   21      2.28      0.00
    7   14   21      4.50      0.00
    9   14   21      7.57      0.00
   11   14   21     -1.11      0.00
   -8   15   21     -3.21      0.00
   -6   15   21     -0.27      0.00
   -4   15   21      3.56      0.00
   -2   15   21      2.61      0.00
    0   15   21     -8.09      0.00
    2   15   21    -10.91      0.00
    4   15   21     -2.81      0.00
    6   15   21      0.92      0.00
    8   15   21     -1.36      0.00
   -7   16   21      5.65      0.00
   -5   16   21      0.19      0.00
   -3   16   21     -1.47      0.00
   -1   16   21      3.97      0.00
    1   16   21      3.13      0.00
    3   16   21     -3.26      0.00
    5   16   21     -2.84      0.00
    7   16   21     -0.18      0.00
   -4   17   21     -7.12      0.00
   -2   17   21     -7.28      0.00
    0   17   21      0.30      0.00
    2   17   21     -2.70      0.00
    4   17   21    -12.52      0.00
    1    1   22      2.78      0.00
    0    2   22      0.38      0.00
    2    2   22     -3.75      0.00
   -1    3   22      5.68      0.00
    1    3   22      7.28      0.00
    3    3   22     14.48      0.00
   -2    4   22     -1.89      0.00
    0    4   22     -3.23      0.00
    2    4   22      0.51      0.00
    4    4   22     -0.10      0.00
   -3    5   22     -2.96      0.00
   -1    5   22      2.20      0.00
    1    5   22     -1.59      0.00
    3    5   22     -8.51      0.00
    5    5   22      1.35      0.00
   -4    6   22     -0.44      0.00
   -2    6   22     -0.94      0.00
    0    6   22      5.26      0.00
    2    6   22      2.57      0.00
    4    6   22     -1.69      0.00
    6    6   22     -2.97      0.00
   -5    7   22    -13.57      0.00
   -3    7   22     -7.65      0.00
   -1    7   22     -6.02      0.00
    1    7   22     -3.28      0.00
    3    7   22     -1.13      0.00
    5    7   22     -6.94      0.00
    7    7   22    -14.01      0.00
   -6    8   22     -3.21      0.00
   -4    8   22      1.44      0.00
   -2    8   22      8.24      0.00
    0    8   22      2.23      0.00
    2    8   22      0.02      0.00
    4    8   22      2.87      0.00
    6    8   22      1.29      0.00
    8    8   22      0.34      0.00
   -7    9   22     16.47      0.00
   -5    9   22     13.67      0.00
   -3    9   22      3.05      0.00
   -1    9   22     -3.27      0.00
    1    9   22     -0.33      0.00
    3    9   22      6.76      0.00
    5    9   22      9.52      0.00
    7    9   22      6.83      0.00
    9    9   22      6.47      0.00
   -8   10   22      1.14      0.00
   -6   10   22      1.91      0.00
   -4   10   22     -3.50      0.00
   -2   10   22    -14.21      0.00
    0   10   22    -11.39      0.00
    2   10   22     -5.65      0.00
    4   10   22     -6.26      0.00
    6   10   22     -4.11      0.00
    8   10   22     -3.73      0.00
   -7   11   22     -6.86      0.00
   -5   11   22      0.85      0.00
   -3   11   22     10.45      0.00
   -1   11   22     15.03      0.00
    1   11   22      8.08      0.00
    3   11   22     -3.62      0.00
    5   11   22     -4.43      0.00
    7   11   22      4.36      0.00
   -6   12   22     -2.59      0.00
   -4   12   22      0.72      0.00
   -2   12   22      7.31      0.00
    0   12   22      5.21      0.00
    2   12   22      0.12      0.00
    4   12   22      1.25      0.00
    6   12   22      1.40      0.00
   -5   13   22    -11.69      0.00
   -3   13   22    -16.56      0.00
   -1   13   22    -20.22      0.00
    1   13   22    -18.46      0.00
    3   13   22    -10.79      0.00
    5   13   22     -8.20      0.00
    0   14   22      7.38      0.00
    0    1   23      3.44      0.00
   -1    2   23     -7.30      0.00
    1    2   23     -5.20      0.00
   -2    3   23    -10.87      0.00
    0    3   23     -8.77      0.00
    2    3   23    -14.26      0.00
   -3    4   23      8.12      0.00
   -1    4   23      2.84      0.00
    1    4   23      4.01      0.00
    3    4   23      9.28      0.00
   -4    5   23      3.38      0.00
   -2    5   23      5.77      0.00
    0    5   23      2.04      0.00
    2    5   23      9.92      0.00
    4    5   23     10.65      0.00
   -5    6   23     -2.25      0.00
   -3    6   23      2.28      0.00
   -1    6   23      2.56      0.00
    1    6   23     -0.95      0.00
    3    6   23     -1.48      0.00
    5    6   23      4.86      0.00
   -4    7   23      5.54      0.00
   -2    7   23     -0.59      0.00
    0    7   23      3.14      0.00
    2    7   23     -1.79      0.00
    4    7   23     -7.30      0.00
   -1    8   23      0.62      0.00
    1    8   23      3.83      0.00
    0    2    0   -856.19      0.00
    2    2    0   -458.99      0.00
    0    4    0    250.29      0.00
  -24   32    0     -7.04      0.00
   24   32    0      6.57      0.00
  -12   38    0     -0.85      0.00
   12   38    0      0.91      0.00
    0    1    1    602.33      0.00
   -1    2    1    278.25      0.00
    1    2    1    341.71      0.00
   -2    3    1    -14.77      0.00
    0    3    1   -194.19      0.00
    2    3    1     12.99      0.00
  -21   34    1      3.27      0.00
   21   34    1      5.34      0.00
  -17   36    1     -0.81      0.00
   17   36    1     -5.89      0.00
   -8   39    1     -3.95      0.00
    8   39    1     -0.68      0.00
    1    1    2   -231.84      0.00
    0    2    2     -3.80      0.00
  -27   29    2      3.37      0.00
   27   29    2     -6.46      0.00
  -26   30    2     -0.78      0.00
   26   30    2     -0.32      0.00
  -25   31    2    -10.13      0.00
   25   31    2      0.65      0.00
  -19   35    2      5.73      0.00
   19   35    2      1.75      0.00
  -15   37    2      0.95      0.00
   15   37    2     -9.26      0.00
  -12   38    2      3.61      0.00
   12   38    2     -4.22      0.00
    7   39    2     -5.91      0.00
  -22   33    3     -1.49      0.00
   22   33    3      3.10      0.00
  -14   37    3     -1.15      0.00
   14   37    3     -1.73      0.00
  -11   38    3     -6.22      0.00
   11   38    3     -1.21      0.00
   -6   39    3     -8.16      0.00
    6   39    3      3.43      0.00
  -20   34    4      6.48      0.00
   20   34    4      2.99      0.00
  -16   36    4      0.56      0.00
   16   36    4     -9.59      0.00
  -13   37    4      0.48      0.00
   13   37    4      6.47      0.00
  -10   38    4      4.07      0.00
   10   38    4      2.65      0.00
   -5   39    4      8.97      0.00
    5   39    4      0.09      0.00
  -27   28    5      7.81      0.00
   27   28    5      1.53      0.00
  -26   29    5     -2.68      0.00
   26   29    5     -2.58      0.00
  -25   30    5     -2.22      0.00
   25   30    5     -4.07      0.00
  -19   34    5    -16.77      0.00
   19   34    5     -2.83      0.00
  -15   36    5      5.83      0.00
   15   36    5      4.61      0.00
  -12   37    5     -2.19      0.00
   12   37    5     -4.07      0.00
   -9   38    5      0.12      0.00
    9   38    5     -0.42      0.00
   -2   39    5      0.92      0.00
    0   39    5      6.20      0.00
    2   39    5      6.27      0.00
  -23   31    6      5.73      0.00
   23   31    6     -1.01      0.00
  -18   34    6      5.68      0.00
   18   34    6      3.57      0.00
  -14   36    6    -11.02      0.00
   14   36    6      0.39      0.00
  -11   37    6     -3.29      0.00
   11   37    6      3.18      0.00
    6   38    6      5.90      0.00
  -22   31    7    -10.51      0.00
   22   31    7      0.11      0.00
  -21   32    7      0.34      0.00
   21   32    7     -5.83      0.00
  -17   34    7     -3.82      0.00
   17   34    7      1.62      0.00
  -13   36    7      3.99      0.00
   13   36    7    -10.10      0.00
   -3   38    7     -3.82      0.00
   -1   38    7     -5.44      0.00
    1   38    7     -1.58      0.00
    3   38    7      8.92      0.00
  -21   31    8     -1.37      0.00
   21   31    8     -1.47      0.00
  -20   32    8     -0.62      0.00
   20   32    8      4.94      0.00
  -16   34    8     -0.93      0.00
   16   34    8     -4.53      0.00
  -10   36    8     -3.06      0.00
   -7   37    8      0.97      0.00
    7   37    8      2.58      0.00
  -20   31    9      2.16      0.00
   20   31    9      7.54      0.00
  -12   35    9      2.77      0.00
   12   35    9     -6.55      0.00
   -2   37    9      0.53      0.00
    0   37    9     -4.41      0.00
    2   37    9     -0.08      0.00
  -20   30   10     -8.67      0.00
   20   30   10      0.45      0.00
  -19   31   10      5.21      0.00
   19   31   10     -7.33      0.00
  -15   33   10     -5.90      0.00
   15   33   10     -3.43      0.00
  -12   34   10    -11.72      0.00
   12   34   10      4.25      0.00
   -9   35   10     -6.82      0.00
    9   35   10     -4.91      0.00
   -4   36   10     -1.56      0.00
   -2   36   10     -5.42      0.00
    0   36   10     -5.51      0.00
    2   36   10     -7.83      0.00
    4   36   10     -0.06      0.00
  -20   29   11      6.88      0.00
   20   29   11     -5.31      0.00
  -19   30   11      2.40      0.00
   19   30   11     -1.47      0.00
  -15   32   11      2.73      0.00
   15   32   11     -6.01      0.00
   -9   34   11      0.79      0.00
    9   34   11      6.81      0.00
   -6   35   11      3.90      0.00
   -4   35   11      8.80      0.00
    4   35   11      7.01      0.00
    6   35   11      2.42      0.00
  -21   27   12      0.02      0.00
  -20   28   12     -0.31      0.00
   20   28   12     -4.09      0.00
  -15   31   12     -9.01      0.00
   15   31   12      3.71      0.00
  -12   32   12     -5.00      0.00
    9   33   12      0.02      0.00
   -6   34   12      1.69      0.00
   -4   34   12     -6.36      0.00
    4   34   12     -2.98      0.00
    6   34   12     -3.45      0.00
  -23   24   13     -3.37      0.00
   23   24   13      2.75      0.00
  -22   25   13     -0.77      0.00
   22   25   13      3.38      0.00
  -21   26   13      2.61      0.00
   21   26   13     -7.90      0.00
  -16   29   13     -9.96      0.00
  -15   30   13     -3.36      0.00
   15   30   13    -10.69      0.00
  -12   31   13      3.47      0.00
   12   31   13      5.78      0.00
   -9   32   13     -0.01      0.00
    9   32   13      0.65      0.00
   -6   33   13     -1.66      0.00
   -4   33   13      3.19      0.00
    4   33   13     -6.45      0.00
    6   33   13      0.30      0.00
  -17   27   14      2.58      0.00
  -16   28   14     -2.58      0.00
   16   28   14    -15.58      0.00
  -12   30   14      2.47      0.00
   12   30   14     -9.98      0.00
   -9   31   14      2.42      0.00
    9   31   14      2.03      0.00
   -4   32   14     -3.34      0.00
   -2   32   14     -5.00      0.00
    0   32   14     -3.95      0.00
    2   32   14      1.89      0.00
    4   32   14      0.68      0.00
  -18   25   15     -6.16      0.00
   18   25   15      0.79      0.00
  -17   26   15     -9.59      0.00
   17   26   15     -0.52      0.00
  -13   28   15      2.40      0.00
   13   28   15      3.92      0.00
  -10   29   15     -1.22      0.00
   10   29   15     12.62      0.00
   -7   30   15     -5.07      0.00
    7   30   15      4.34      0.00
   -2   31   15      1.71      0.00
    0   31   15      6.41      0.00
    2   31   15      4.91      0.00
   15   25   16      1.75      0.00
  -14   26   16      7.57      0.00
   14   26   16      8.34      0.00
  -11   27   16     -1.47      0.00
   11   27   16     -3.29      0.00
   -8   28   16     -4.19      0.00
    8   28   16     -9.48      0.00
   -5   29   16      0.67      0.00
    5   29   16     -0.67      0.00
  -19   20   17     10.41      0.00
   19   20   17     -2.80      0.00
  -18   21   17     -0.24      0.00
   18   21   17     -4.24      0.00
  -17   22   17     -9.45      0.00
   17   22   17      0.73      0.00
  -12   25   17      0.09      0.00
   12   25   17     -0.98      0.00
    9   26   17     -3.25      0.00
   -6   27   17      7.98      0.00
    6   27   17      6.53      0.00
  -16   20   18     -2.48      0.00
   16   20   18     -7.10      0.00
  -15   21   18      7.23      0.00
   15   21   18      7.87      0.00
  -14   22   18      4.34      0.00
   14   22   18      3.62      0.00
  -10   24   18     -8.14      0.00
   10   24   18     -9.16      0.00
   -7   25   18     -1.49      0.00
    7   25   18     -3.65      0.00
   -2   26   18      3.92      0.00
    0   26   18      1.50      0.00
    2   26   18     -4.66      0.00
  -15   18   19      5.15      0.00
  -14   19   19     -6.18      0.00
   14   19   19      7.71      0.00
  -13   20   19      9.03      0.00
   13   20   19      8.08      0.00
   -9   22   19     -3.36      0.00
    9   22   19     -1.83      0.00
   -6   23   19     -2.65      0.00
    6   23   19      2.46      0.00
   -1   24   19      4.06      0.00
    1   24   19     -2.77      0.00
   15   15   20      2.61      0.00
  -14   16   20     -1.04      0.00
   14   16   20     -1.97      0.00
  -13   17   20     -2.07      0.00
   13   17   20     -2.80      0.00
   -9   19   20     -1.72      0.00
    9   19   20     -7.12      0.00
   -8   20   20     -3.02      0.00
    8   20   20      5.70      0.00
   -5   21   20      3.45      0.00
   -3   21   20      6.48      0.00
   -1   21   20      2.74      0.00
    1   21   20     -4.50      0.00
    3   21   20      1.17      0.00
    5   21   20      6.77      0.00
  -10   15   21     -6.82      0.00
   10   15   21     -2.54      0.00
   -9   16   21      3.51      0.00
    9   16   21     -1.90      0.00
   -6   17   21     -1.59      0.00
    6   17   21    -11.54      0.00
   -5   18   21      3.60      0.00
   -3   18   21      6.59      0.00
   -1   18   21      0.41      0.00
    1   18   21     -0.50      0.00
    3   18   21      6.97      0.00
    5   18   21      7.52      0.00
   10   10   22     -5.24      0.00
   -9   11   22     -3.06      0.00
    9   11   22      7.62      0.00
   -8   12   22     -1.97      0.00
    8   12   22      3.84      0.00
   -7   13   22     -3.85      0.00
    7   13   22    -11.43      0.00
   -4   14   22      2.18      0.00
   -2   14   22      3.12      0.00
    2   14   22      7.74      0.00
    4   14   22      3.38      0.00
   -1   15   22      8.99      0.00
    1   15   22     11.55      0.00
   -6    7   23     11.00      0.00
    6    7   23     -2.84      0.00
   -5    8   23     -3.66      0.00
   -3    8   23     -3.64      0.00
    3    8   23     -0.70      0.00
    5    8   23     -5.30      0.00
   -4    9   23     -2.24      0.00
   -2    9   23      7.35      0.00
    0    9   23      3.02      0.00
    2    9   23     -1.93      0.00
    4    9   23      0.89      0.00
    0    0    0      0.00      0.00
# SQUEEZE RESULTS (Version = 120716)
# Note: Data are Listed for all Voids in the P1 Unit Cell
# i.e. Centre of Gravity, Solvent Accessible Volume,
# Recovered number of Electrons in the Void and
# Details about the Squeezed Material
loop_
  _platon_squeeze_void_nr
  _platon_squeeze_void_average_x
  _platon_squeeze_void_average_y
  _platon_squeeze_void_average_z
  _platon_squeeze_void_volume
  _platon_squeeze_void_count_electrons
  _platon_squeeze_void_content
   1  0.000  0.250  0.625       730       313 ' '
   2  0.000  0.750  0.375       730       313 ' '
   3  0.500  0.250  0.875       730       313 ' '
   4  0.500  0.750  0.125       730       313 ' '
# Missing Reflections Below sin(th)/lambda = 0.25
loop_
  _platon_missing_refln_index_h
  _platon_missing_refln_index_k
  _platon_missing_refln_index_l
  _platon_missing_refln_theta
    0    2    0     1.284
    2    2    0     1.816
    0    4    0     2.569
    0    1    1     1.261
   -1    2    1     1.800
    1    2    1     1.800
   -2    3    1     2.557
    0    3    1     2.211
    2    3    1     2.557
    1    1    2     2.353
    0    2    2     2.522
_platon_squeeze_void_probe_radius                  1.20
_platon_squeeze_details
)
TITL hgi20206  I 41/a       R = 0.08
CELL   31.7147   31.7147   18.7690     90.00     90.00     90.00
SPGR I41/a
# Solvent Accessible Volume =      2935
# Electrons Found in S.A.V. =      1243
# Note: Atoms in Void as Cxxx and Qxxx all others
C101 0.560 0.837 0.098 !      10.84 eA-3
C102 0.483 0.592 0.138 !       9.12 eA-3
C103 0.500 0.253 0.078 !       7.51 eA-3
Q104 0.999 0.587 0.110 !       4.67 eA-3
C105 0.531 0.206 0.110 !       4.41 eA-3
C106 0.969 0.725 0.210 !       4.30 eA-3
C107 0.602 0.736 0.109 !       3.87 eA-3
C108 0.523 0.865 0.154 !       3.01 eA-3
C109 0.033 0.777 0.262 !       3.00 eA-3
Q110 0.662 0.251 0.090 !       2.37 eA-3
Q111 0.617 0.307 0.061 !       2.28 eA-3
C112 0.032 0.671 0.359 !       1.79 eA-3
C113 0.465 0.681 0.099 !       1.71 eA-3
Q114 0.319 0.585 0.110 !       1.68 eA-3
Q115 0.657 0.919 0.144 !       1.66 eA-3
C116 0.421 0.761 0.187 !       1.55 eA-3
Q117 0.781 0.032 0.065 !       1.45 eA-3
Q118 0.320 0.082 0.388 !       1.27 eA-3
Q119 0.718 0.287 0.062 !       1.19 eA-3
Q120 0.069 0.056 0.110 !       1.19 eA-3
Q121 0.781 0.383 0.252 !       1.13 eA-3
C122 0.017 0.747 0.270 !       1.12 eA-3
Q123 0.563 0.679 0.001 !       1.12 eA-3
Q124 0.320 0.586 0.171 !       1.11 eA-3
Q125 0.603 0.213 0.059 !       1.11 eA-3
Q126 0.055 0.305 0.263 !       1.10 eA-3
Q127 0.010 0.436 0.424 !       1.08 eA-3
Q128 0.781 0.710 0.061 !       1.07 eA-3
Q129 0.498 0.645 0.193 !       1.06 eA-3
C130 0.538 0.806 0.273 !       1.06 eA-3
Q131 0.539 0.319 0.137 !       1.05 eA-3
C132 0.475 0.750 0.187 !       1.04 eA-3
Q133 0.408 0.696 0.345 !       1.03 eA-3
Q134 0.437 0.274 0.484 !       1.02 eA-3
Q135 0.022 0.085 0.139 !       1.01 eA-3
Q136 0.499 0.412 0.102 !       1.00 eA-3
Q137 0.603 0.200 0.222 !       1.00 eA-3
C138 0.977 0.678 0.260 !       0.99 eA-3
Q139 0.937 0.359 0.456 !       0.99 eA-3
Q140 0.400 0.156 0.482 !       0.99 eA-3
Q141 0.912 0.509 0.265 !       0.98 eA-3
Q142 0.097 0.141 0.312 !       0.97 eA-3
Q143 0.585 0.859 0.066 !       0.97 eA-3
Q144 0.290 0.970 0.030 !       0.96 eA-3
Q145 0.178 0.097 0.105 !       0.95 eA-3
Q146 0.881 0.784 0.793 !       0.95 eA-3
Q147 0.381 0.284 0.293 !       0.95 eA-3
Q148 0.748 0.115 0.435 !       0.94 eA-3
Q149 0.719 0.859 0.281 !       0.93 eA-3
Q150 0.025 0.877 0.934 !       0.93 eA-3
Q151 0.679 0.584 0.169 !       0.92 eA-3
C152 0.585 0.216 0.007 !       0.92 eA-3
Q153 0.299 0.961 0.264 !       0.92 eA-3
Q154 0.203 0.312 0.189 !       0.92 eA-3
Q155 0.822 0.404 0.487 !       0.92 eA-3
C156 0.498 0.706 0.188 !       0.91 eA-3
Q157 0.089 0.508 0.247 !       0.90 eA-3
C158 0.485 0.822 0.054 !       0.90 eA-3
Q159 0.562 0.951 0.465 !       0.89 eA-3
Q160 0.837 0.364 0.415 !       0.87 eA-3
Q161 0.392 0.971 0.155 !       0.86 eA-3
Q162 0.929 0.146 0.154 !       0.86 eA-3
Q163 0.283 0.214 0.202 !       0.85 eA-3
Q164 0.452 0.459 0.485 !       0.85 eA-3
C165 0.024 0.142 0.593 !       0.85 eA-3
C166 0.524 0.642 0.093 !       0.85 eA-3
Q167 0.413 0.345 0.238 !       0.84 eA-3
Q168 0.899 0.304 0.111 !       0.84 eA-3
Q169 0.726 0.750 0.138 !       0.83 eA-3
C170 0.577 0.762 0.094 !       0.83 eA-3
Q171 0.116 0.735 0.232 !       0.83 eA-3
Q172 0.505 0.403 0.436 !       0.82 eA-3
Q173 0.495 0.597 0.564 !       0.82 eA-3
Q174 0.761 0.251 0.343 !       0.81 eA-3
Q175 0.077 0.702 0.014 !       0.81 eA-3
Q176 0.347 0.467 0.467 !       0.81 eA-3
Q177 0.866 0.389 0.487 !       0.81 eA-3
Q178 0.491 0.943 0.365 !       0.80 eA-3
Q179 0.585 0.304 0.093 !       0.80 eA-3
Q180 0.692 0.581 0.280 !       0.80 eA-3
Q181 0.413 0.258 0.167 !       0.80 eA-3
Q182 0.234 0.331 0.361 !       0.79 eA-3
Q183 0.029 0.691 0.295 !       0.79 eA-3
Q184 0.265 0.317 0.238 !       0.79 eA-3
Q185 0.640 0.461 0.247 !       0.79 eA-3
Q186 0.916 0.665 0.753 !       0.79 eA-3
Q187 0.416 0.165 0.253 !       0.79 eA-3
C188 0.953 0.759 0.265 !       0.79 eA-3
Q189 0.415 0.625 0.154 !       0.79 eA-3
Q190 0.897 0.790 0.069 !       0.79 eA-3
Q191 0.500 0.474 0.223 !       0.79 eA-3
Q192 0.078 0.678 0.982 !       0.78 eA-3
Q193 0.807 0.484 0.081 !       0.78 eA-3
Q194 0.626 0.164 0.908 !       0.78 eA-3
Q195 0.850 0.702 0.359 !       0.78 eA-3
Q196 0.986 0.166 0.467 !       0.78 eA-3
C197 0.022 0.726 0.263 !       0.77 eA-3
Q198 0.308 0.778 0.453 !       0.77 eA-3
Q199 0.427 0.963 0.472 !       0.77 eA-3
)
;
_shelx_fab_checksum              43707
loop_
_space_group_symop_operation_xyz
'x, y, z'
'-x+1/2, -y, z+1/2'
'-y+3/4, x+1/4, z+1/4'
'y+3/4, -x+3/4, z+3/4'
'x+1/2, y+1/2, z+1/2'
'-x+1, -y+1/2, z+1'
'-y+5/4, x+3/4, z+3/4'
'y+5/4, -x+5/4, z+5/4'
'-x, -y, -z'
'x-1/2, y, -z-1/2'
'y-3/4, -x-1/4, -z-1/4'
'-y-3/4, x-3/4, -z-3/4'
'-x+1/2, -y+1/2, -z+1/2'
'x, y+1/2, -z'
'y-1/4, -x+1/4, -z+1/4'
'-y-1/4, x-1/4, -z-1/4'
loop_
_atom_site_label
_atom_site_type_symbol
_atom_site_fract_x
_atom_site_fract_y
_atom_site_fract_z
_atom_site_U_iso_or_equiv
_atom_site_adp_type
_atom_site_occupancy
_atom_site_site_symmetry_order
_atom_site_calc_flag
_atom_site_refinement_flags_posn
_atom_site_refinement_flags_adp
Hg Hg 0.66164(2) 0.74857(2) 0.86316(2) 0.02370(7) Uani 1 1 d . .
I I 0.62038(2) 0.80595(2) 0.93763(2) 0.03971(11) Uani 1 1 d . .
O1 O 0.78504(11) 0.87781(11) 1.10915(18) 0.0270(8) Uani 1 1 d . .
O2 O 0.80703(12) 0.87777(12) 0.9954(2) 0.0325(9) Uani 1 1 d . .
N1 N 0.67999(12) 0.76849(12) 0.7453(2) 0.0184(8) Uani 1 1 d . .
N2 N 0.64895(13) 0.68821(12) 0.8062(2) 0.0222(9) Uani 1 1 d . .
N3 N 0.70070(13) 0.70039(13) 0.9358(2) 0.0204(9) Uani 1 1 d . .
N4 N 0.74363(13) 0.82261(12) 0.9570(2) 0.0210(9) Uani 1 1 d . .
C1 C 0.70137(15) 0.80437(14) 0.7235(3) 0.0184(10) Uani 1 1 d . .
C2 C 0.69310(15) 0.81062(15) 0.6478(3) 0.0209(10) Uani 1 1 d . .
H2A H 0.7039 0.8327 0.6187 0.025 Uiso 1 1 calc R U
C3 C 0.66759(15) 0.77963(15) 0.6270(3) 0.0192(10) Uani 1 1 d . .
H3A H 0.6570 0.7755 0.5801 0.023 Uiso 1 1 calc R U
C4 C 0.65873(14) 0.75333(14) 0.6882(3) 0.0173(10) Uani 1 1 d . .
C5 C 0.63180(15) 0.71699(14) 0.6872(3) 0.0189(10) Uani 1 1 d . .
C6 C 0.62748(16) 0.68771(15) 0.7424(3) 0.0223(11) Uani 1 1 d . .
C7 C 0.59954(17) 0.65104(17) 0.7419(3) 0.0296(12) Uani 1 1 d . .
H7A H 0.5809 0.6431 0.7046 0.036 Uiso 1 1 calc R U
C8 C 0.60503(18) 0.63050(18) 0.8044(3) 0.0330(13) Uani 1 1 d . .
H8A H 0.5908 0.6056 0.8192 0.040 Uiso 1 1 calc R U
C9 C 0.63647(17) 0.65327(16) 0.8444(3) 0.0278(12) Uani 1 1 d . .
C10 C 0.65330(17) 0.64072(16) 0.9103(3) 0.0270(12) Uani 1 1 d . .
C11 C 0.68648(16) 0.66111(15) 0.9467(3) 0.0237(11) Uani 1 1 d . .
C12 C 0.71177(18) 0.64173(17) 1.0024(3) 0.0295(12) Uani 1 1 d . .
H12A H 0.7089 0.6136 1.0193 0.035 Uiso 1 1 calc R U
C13 C 0.73980(18) 0.67004(17) 1.0259(3) 0.0290(12) Uani 1 1 d . .
H13A H 0.7605 0.6659 1.0618 0.035 Uiso 1 1 calc R U
C14 C 0.73214(16) 0.70855(16) 0.9853(3) 0.0218(11) Uani 1 1 d . .
C15 C 0.75234(15) 0.74689(16) 0.9937(3) 0.0219(11) Uani 1 1 d . .
C16 C 0.74692(15) 0.77943(15) 0.9414(3) 0.0197(10) Uani 1 1 d . .
C17 C 0.74184(15) 0.77622(15) 0.8682(3) 0.0207(10) Uani 1 1 d . .
H17A H 0.7630 0.7581 0.8432 0.025 Uiso 1 1 calc R U
C18 C 0.73608(15) 0.81699(15) 0.8391(3) 0.0197(10) Uani 1 1 d . .
C19 C 0.73747(15) 0.84453(15) 0.8968(3) 0.0215(11) Uani 1 1 d . .
H19A H 0.7345 0.8743 0.8939 0.026 Uiso 1 1 calc R U
C20 C 0.72569(15) 0.82939(15) 0.7677(3) 0.0206(10) Uani 1 1 d . .
C21 C 0.60665(15) 0.71013(15) 0.6215(3) 0.0203(10) Uani 1 1 d . .
C22 C 0.57949(15) 0.74132(16) 0.5964(3) 0.0228(11) Uani 1 1 d . .
H22A H 0.5769 0.7671 0.6219 0.027 Uiso 1 1 calc R U
C23 C 0.55624(16) 0.73529(18) 0.5350(3) 0.0283(12) Uani 1 1 d . .
H23A H 0.5383 0.7571 0.5180 0.034 Uiso 1 1 calc R U
C24 C 0.55905(17) 0.69720(19) 0.4978(3) 0.0323(13) Uani 1 1 d . .
H24A H 0.5426 0.6927 0.4562 0.039 Uiso 1 1 calc R U
C25 C 0.58589(17) 0.66624(17) 0.5221(3) 0.0285(12) Uani 1 1 d . .
H25A H 0.5879 0.6403 0.4971 0.034 Uiso 1 1 calc R U
C26 C 0.60977(16) 0.67254(16) 0.5821(3) 0.0243(11) Uani 1 1 d . .
H26A H 0.6287 0.6512 0.5973 0.029 Uiso 1 1 calc R U
C27 C 0.63404(17) 0.60301(17) 0.9459(3) 0.0291(12) Uani 1 1 d . .
C28 C 0.6399(2) 0.56260(19) 0.9223(4) 0.0500(18) Uani 1 1 d . .
H28A H 0.6565 0.5578 0.8810 0.060 Uiso 1 1 calc R U
C29 C 0.6220(2) 0.5284(2) 0.9577(5) 0.054(2) Uani 1 1 d . .
H29A H 0.6266 0.5005 0.9409 0.065 Uiso 1 1 calc R U
C30 C 0.5978(2) 0.5353(2) 1.0170(4) 0.0481(18) Uani 1 1 d . .
H30A H 0.5852 0.5123 1.0413 0.058 Uiso 1 1 calc R U
C31 C 0.5920(3) 0.5750(3) 1.0406(4) 0.062(2) Uani 1 1 d . .
H31A H 0.5750 0.5800 1.0815 0.074 Uiso 1 1 calc R U
C32 C 0.6103(2) 0.6084(2) 1.0059(3) 0.0469(17) Uani 1 1 d . .
H32A H 0.6064 0.6361 1.0242 0.056 Uiso 1 1 calc R U
C33 C 0.78054(16) 0.75470(16) 1.0557(3) 0.0233(11) Uani 1 1 d . .
C34 C 0.76923(18) 0.74231(18) 1.1251(3) 0.0296(12) Uani 1 1 d . .
H34A H 0.7433 0.7281 1.1332 0.036 Uiso 1 1 calc R U
C35 C 0.7959(2) 0.75082(19) 1.1813(3) 0.0372(14) Uani 1 1 d . .
H35A H 0.7879 0.7423 1.2280 0.045 Uiso 1 1 calc R U
C36 C 0.83379(19) 0.77134(19) 1.1716(3) 0.0361(14) Uani 1 1 d . .
H36A H 0.8519 0.7767 1.2109 0.043 Uiso 1 1 calc R U
C37 C 0.84500(17) 0.78390(18) 1.1038(3) 0.0317(13) Uani 1 1 d . .
H37A H 0.8710 0.7982 1.0966 0.038 Uiso 1 1 calc R U
C38 C 0.81889(16) 0.77598(16) 1.0462(3) 0.0244(11) Uani 1 1 d . .
H38A H 0.8270 0.7850 0.9999 0.029 Uiso 1 1 calc R U
C39 C 0.74089(16) 0.87157(15) 0.7447(3) 0.0212(10) Uani 1 1 d . .
C40 C 0.78111(17) 0.88505(16) 0.7653(3) 0.0278(12) Uani 1 1 d . .
H40A H 0.7987 0.8669 0.7924 0.033 Uiso 1 1 calc R U
C41 C 0.79527(19) 0.92476(18) 0.7461(3) 0.0366(14) Uani 1 1 d . .
H41A H 0.8224 0.9340 0.7610 0.044 Uiso 1 1 calc R U
C42 C 0.7701(2) 0.95126(18) 0.7051(4) 0.0436(16) Uani 1 1 d . .
H42A H 0.7801 0.9783 0.6915 0.052 Uiso 1 1 calc R U
C43 C 0.7307(2) 0.93806(18) 0.6843(3) 0.0379(14) Uani 1 1 d . .
H43A H 0.7136 0.9560 0.6560 0.046 Uiso 1 1 calc R U
C44 C 0.71575(17) 0.89880(16) 0.7045(3) 0.0268(11) Uani 1 1 d . .
H44A H 0.6882 0.8903 0.6909 0.032 Uiso 1 1 calc R U
C45 C 0.74217(16) 0.84225(16) 1.0273(3) 0.0251(11) Uani 1 1 d . .
H45A H 0.7395 0.8202 1.0644 0.030 Uiso 1 1 calc R U
H45B H 0.7173 0.8610 1.0305 0.030 Uiso 1 1 calc R U
C46 C 0.78226(16) 0.86771(15) 1.0398(3) 0.0238(11) Uani 1 1 d . .
C47 C 0.82186(17) 0.90276(18) 1.1276(3) 0.0316(13) Uani 1 1 d . .
H47A H 0.8236 0.9280 1.0967 0.038 Uiso 1 1 calc R U
H47B H 0.8479 0.8859 1.1211 0.038 Uiso 1 1 calc R U
C48 C 0.81720(17) 0.91566(17) 1.2042(3) 0.0288(12) Uani 1 1 d . .
C49 C 0.83388(17) 0.89093(18) 1.2580(3) 0.0314(13) Uani 1 1 d . .
H49A H 0.8474 0.8651 1.2465 0.038 Uiso 1 1 calc R U
C50 C 0.83097(17) 0.90353(19) 1.3284(3) 0.0305(13) Uani 1 1 d . .
H50A H 0.8427 0.8863 1.3649 0.037 Uiso 1 1 calc R U
C51 C 0.81123(19) 0.9408(2) 1.3461(3) 0.0376(14) Uani 1 1 d . .
H51A H 0.8096 0.9495 1.3945 0.045 Uiso 1 1 calc R U
C52 C 0.79414(19) 0.96519(18) 1.2942(3) 0.0361(14) Uani 1 1 d . .
H52A H 0.7800 0.9906 1.3064 0.043 Uiso 1 1 calc R U
C53 C 0.79728(18) 0.95278(17) 1.2218(3) 0.0318(13) Uani 1 1 d . .
H53A H 0.7856 0.9701 1.1855 0.038 Uiso 1 1 calc R U
loop_
_atom_site_aniso_label
_atom_site_aniso_U_11
_atom_site_aniso_U_22
_atom_site_aniso_U_33
_atom_site_aniso_U_23
_atom_site_aniso_U_13
_atom_site_aniso_U_12
Hg 0.02911(12) 0.02136(11) 0.02065(11) 0.00016(8) -0.00175(8) -0.00176(8)
I 0.0470(2) 0.0367(2) 0.0355(2) -0.00249(17) 0.00654(18) 0.01106(18)
O1 0.030(2) 0.032(2) 0.0188(18) -0.0044(15) 0.0001(15) -0.0075(16)
O2 0.039(2) 0.033(2) 0.025(2) -0.0021(17) 0.0043(17) -0.0121(18)
N1 0.022(2) 0.015(2) 0.018(2) 0.0048(16) 0.0000(17) 0.0001(16)
N2 0.028(2) 0.017(2) 0.022(2) 0.0041(17) -0.0062(18) -0.0057(17)
N3 0.025(2) 0.024(2) 0.012(2) 0.0040(16) -0.0059(16) -0.0065(17)
N4 0.024(2) 0.018(2) 0.020(2) -0.0026(17) 0.0001(17) -0.0012(17)
C1 0.022(2) 0.012(2) 0.021(3) 0.0010(19) -0.002(2) 0.0016(19)
C2 0.022(2) 0.020(2) 0.021(3) 0.003(2) -0.001(2) 0.005(2)
C3 0.021(2) 0.020(2) 0.016(3) 0.0032(19) -0.0024(19) 0.0015(19)
C4 0.019(2) 0.015(2) 0.019(2) -0.0003(19) -0.0019(19) 0.0010(18)
C5 0.022(2) 0.018(2) 0.016(2) -0.0029(19) -0.0044(19) 0.0035(19)
C6 0.025(3) 0.019(2) 0.024(3) -0.003(2) -0.005(2) -0.001(2)
C7 0.031(3) 0.030(3) 0.027(3) 0.000(2) -0.008(2) -0.007(2)
C8 0.037(3) 0.033(3) 0.030(3) 0.006(2) -0.008(2) -0.015(2)
C9 0.036(3) 0.017(3) 0.030(3) 0.003(2) -0.009(2) -0.006(2)
C10 0.035(3) 0.021(3) 0.025(3) 0.008(2) -0.004(2) -0.011(2)
C11 0.031(3) 0.018(2) 0.022(3) 0.005(2) -0.003(2) -0.001(2)
C12 0.041(3) 0.021(3) 0.027(3) 0.011(2) -0.004(2) -0.008(2)
C13 0.034(3) 0.032(3) 0.020(3) 0.008(2) -0.008(2) -0.004(2)
C14 0.025(3) 0.024(3) 0.016(2) 0.005(2) -0.005(2) 0.002(2)
C15 0.022(3) 0.028(3) 0.016(2) 0.006(2) -0.003(2) -0.002(2)
C16 0.021(2) 0.019(2) 0.019(3) -0.0012(19) -0.002(2) -0.0049(19)
C17 0.018(2) 0.024(3) 0.020(3) 0.000(2) -0.0010(19) -0.0005(19)
C18 0.019(2) 0.019(2) 0.021(3) 0.0000(19) -0.003(2) -0.0035(19)
C19 0.024(3) 0.016(2) 0.024(3) 0.002(2) -0.002(2) -0.0028(19)
C20 0.023(3) 0.016(2) 0.023(3) -0.0011(19) 0.001(2) 0.0006(19)
C21 0.021(2) 0.020(2) 0.020(3) 0.0030(19) -0.0006(19) -0.0042(19)
C22 0.023(3) 0.024(3) 0.022(3) -0.001(2) -0.001(2) -0.002(2)
C23 0.021(3) 0.037(3) 0.026(3) 0.009(2) -0.004(2) -0.001(2)
C24 0.028(3) 0.052(4) 0.017(3) -0.002(2) -0.005(2) -0.014(3)
C25 0.027(3) 0.031(3) 0.027(3) -0.008(2) 0.001(2) -0.009(2)
C26 0.025(3) 0.020(3) 0.027(3) 0.001(2) 0.002(2) -0.002(2)
C27 0.034(3) 0.026(3) 0.028(3) 0.009(2) -0.011(2) -0.009(2)
C28 0.051(4) 0.028(3) 0.072(5) 0.019(3) 0.015(4) 0.004(3)
C29 0.047(4) 0.027(3) 0.090(6) 0.024(4) 0.001(4) 0.002(3)
C30 0.047(4) 0.044(4) 0.053(4) 0.031(3) -0.015(3) -0.020(3)
C31 0.071(5) 0.068(5) 0.047(4) 0.011(4) 0.009(4) -0.028(4)
C32 0.071(5) 0.034(3) 0.036(4) 0.001(3) 0.006(3) -0.018(3)
C33 0.026(3) 0.024(3) 0.020(3) 0.003(2) -0.006(2) 0.003(2)
C34 0.033(3) 0.037(3) 0.019(3) 0.009(2) -0.005(2) -0.010(2)
C35 0.047(4) 0.042(3) 0.022(3) 0.010(3) -0.006(3) -0.010(3)
C36 0.037(3) 0.040(3) 0.032(3) 0.000(3) -0.014(3) 0.002(3)
C37 0.026(3) 0.033(3) 0.036(3) -0.003(2) -0.004(2) -0.004(2)
C38 0.023(3) 0.028(3) 0.022(3) 0.003(2) -0.001(2) -0.001(2)
C39 0.027(3) 0.017(2) 0.020(3) 0.0008(19) 0.002(2) -0.001(2)
C40 0.029(3) 0.021(3) 0.033(3) 0.004(2) 0.001(2) 0.002(2)
C41 0.033(3) 0.033(3) 0.044(4) 0.004(3) 0.002(3) -0.011(3)
C42 0.054(4) 0.020(3) 0.057(4) 0.013(3) 0.009(3) -0.008(3)
C43 0.049(4) 0.025(3) 0.040(4) 0.007(3) -0.004(3) -0.001(3)
C44 0.030(3) 0.022(3) 0.028(3) 0.000(2) -0.002(2) 0.001(2)
C45 0.024(3) 0.027(3) 0.024(3) -0.006(2) 0.000(2) -0.003(2)
C46 0.031(3) 0.019(2) 0.022(3) -0.001(2) -0.002(2) 0.003(2)
C47 0.028(3) 0.033(3) 0.034(3) -0.005(2) 0.000(2) -0.012(2)
C48 0.026(3) 0.033(3) 0.028(3) -0.001(2) 0.000(2) -0.008(2)
C49 0.027(3) 0.031(3) 0.036(3) 0.003(2) -0.001(2) -0.001(2)
C50 0.032(3) 0.042(3) 0.018(3) 0.007(2) -0.005(2) -0.011(2)
C51 0.043(4) 0.044(4) 0.026(3) -0.003(3) -0.001(3) -0.008(3)
C52 0.041(3) 0.028(3) 0.039(4) -0.007(3) -0.005(3) 0.000(3)
C53 0.037(3) 0.027(3) 0.032(3) 0.001(2) -0.008(2) 0.001(2)
loop_
_atom_type_symbol
_atom_type_description
_atom_type_scat_dispersion_real
_atom_type_scat_dispersion_imag
_atom_type_scat_source
C C 0.0033 0.0016 'International Tables Vol C Tables 4.2.6.8 and 6.1.1.4'
H H 0.0000 0.0000 'International Tables Vol C Tables 4.2.6.8 and 6.1.1.4'
N N 0.0061 0.0033 'International Tables Vol C Tables 4.2.6.8 and 6.1.1.4'
O O 0.0106 0.0060 'International Tables Vol C Tables 4.2.6.8 and 6.1.1.4'
I I -0.4742 1.8119 'International Tables Vol C Tables 4.2.6.8 and 6.1.1.4'
Hg Hg -2.3894 9.2266 'International Tables Vol C Tables 4.2.6.8 and 6.1.1.4'
loop_
_geom_angle_atom_site_label_1
_geom_angle_atom_site_label_2
_geom_angle_atom_site_label_3
_geom_angle
N2 Hg N1 79.97(14)
N2 Hg N3 79.54(14)
N1 Hg N3 125.04(14)
N2 Hg I 139.11(11)
N1 Hg I 115.56(9)
N3 Hg I 113.24(10)
N2 Hg C17 117.85(15)
N1 Hg C17 73.41(14)
N3 Hg C17 72.47(14)
I Hg C17 103.00(11)
C46 O1 C47 114.4(4)
C4 N1 C1 107.6(4)
C4 N1 Hg 121.4(3)
C1 N1 Hg 127.8(3)
C9 N2 C6 107.5(4)
C9 N2 Hg 119.5(3)
C6 N2 Hg 121.1(3)
C11 N3 C14 108.3(4)
C11 N3 Hg 120.4(3)
C14 N3 Hg 129.4(3)
C19 N4 C16 109.9(4)
C19 N4 C45 122.4(4)
C16 N4 C45 127.4(4)
N1 C1 C20 124.5(4)
N1 C1 C2 108.1(4)
C20 C1 C2 127.4(4)
C3 C2 C1 107.1(4)
C3 C2 H2A 126.4
C1 C2 H2A 126.4
C2 C3 C4 108.1(4)
C2 C3 H3A 126.0
C4 C3 H3A 126.0
N1 C4 C3 109.1(4)
N1 C4 C5 126.3(4)
C3 C4 C5 124.6(4)
C6 C5 C4 125.6(4)
C6 C5 C21 117.7(4)
C4 C5 C21 116.6(4)
N2 C6 C5 126.0(4)
N2 C6 C7 108.3(4)
C5 C6 C7 125.7(5)
C8 C7 C6 107.5(5)
C8 C7 H7A 126.3
C6 C7 H7A 126.3
C7 C8 C9 107.4(5)
C7 C8 H8A 126.3
C9 C8 H8A 126.3
N2 C9 C10 125.2(5)
N2 C9 C8 109.3(4)
C10 C9 C8 125.4(5)
C9 C10 C11 125.4(5)
C9 C10 C27 117.6(5)
C11 C10 C27 117.0(4)
N3 C11 C12 108.4(4)
N3 C11 C10 127.1(4)
C12 C11 C10 124.4(4)
C13 C12 C11 108.7(5)
C13 C12 H12A 125.7
C11 C12 H12A 125.7
C12 C13 C14 106.2(5)
C12 C13 H13A 126.9
C14 C13 H13A 126.9
C15 C14 N3 125.0(4)
C15 C14 C13 126.8(5)
N3 C14 C13 108.2(4)
C14 C15 C16 119.9(4)
C14 C15 C33 120.9(4)
C16 C15 C33 119.2(4)
C17 C16 N4 105.7(4)
C17 C16 C15 129.7(5)
N4 C16 C15 124.5(4)
C16 C17 C18 109.3(4)
C16 C17 Hg 99.7(3)
C18 C17 Hg 99.3(3)
C16 C17 H17A 115.5
C18 C17 H17A 115.5
Hg C17 H17A 115.5
C19 C18 C17 105.6(4)
C19 C18 C20 124.2(4)
C17 C18 C20 129.8(4)
N4 C19 C18 109.5(4)
N4 C19 H19A 125.2
C18 C19 H19A 125.2
C1 C20 C18 122.1(4)
C1 C20 C39 121.5(4)
C18 C20 C39 116.4(4)
C22 C21 C26 117.9(5)
C22 C21 C5 120.6(4)
C26 C21 C5 121.6(4)
C23 C22 C21 120.9(5)
C23 C22 H22A 119.6
C21 C22 H22A 119.6
C24 C23 C22 120.1(5)
C24 C23 H23A 119.9
C22 C23 H23A 119.9
C23 C24 C25 119.4(5)
C23 C24 H24A 120.3
C25 C24 H24A 120.3
C26 C25 C24 120.6(5)
C26 C25 H25A 119.7
C24 C25 H25A 119.7
C25 C26 C21 121.1(5)
C25 C26 H26A 119.5
C21 C26 H26A 119.5
C32 C27 C28 117.3(5)
C32 C27 C10 119.4(5)
C28 C27 C10 123.2(6)
C27 C28 C29 121.3(7)
C27 C28 H28A 119.3
C29 C28 H28A 119.3
C28 C29 C30 119.4(7)
C28 C29 H29A 120.3
C30 C29 H29A 120.3
C31 C30 C29 119.7(6)
C31 C30 H30A 120.2
C29 C30 H30A 120.2
C30 C31 C32 120.4(7)
C30 C31 H31A 119.8
C32 C31 H31A 119.8
C27 C32 C31 121.9(7)
C27 C32 H32A 119.0
C31 C32 H32A 119.0
C34 C33 C38 118.3(5)
C34 C33 C15 121.6(5)
C38 C33 C15 120.0(5)
C35 C34 C33 119.8(5)
C35 C34 H34A 120.1
C33 C34 H34A 120.1
C34 C35 C36 121.7(5)
C34 C35 H35A 119.2
C36 C35 H35A 119.2
C35 C36 C37 118.9(5)
C35 C36 H36A 120.6
C37 C36 H36A 120.6
C38 C37 C36 120.9(5)
C38 C37 H37A 119.5
C36 C37 H37A 119.5
C37 C38 C33 120.4(5)
C37 C38 H38A 119.8
C33 C38 H38A 119.8
C44 C39 C40 118.7(5)
C44 C39 C20 121.9(5)
C40 C39 C20 119.3(4)
C41 C40 C39 120.1(5)
C41 C40 H40A 119.9
C39 C40 H40A 119.9
C42 C41 C40 120.5(5)
C42 C41 H41A 119.8
C40 C41 H41A 119.8
C41 C42 C43 119.6(5)
C41 C42 H42A 120.2
C43 C42 H42A 120.2
C44 C43 C42 120.5(5)
C44 C43 H43A 119.7
C42 C43 H43A 119.7
C43 C44 C39 120.5(5)
C43 C44 H44A 119.7
C39 C44 H44A 119.7
N4 C45 C46 109.8(4)
N4 C45 H45A 109.7
C46 C45 H45A 109.7
N4 C45 H45B 109.7
C46 C45 H45B 109.7
H45A C45 H45B 108.2
O2 C46 O1 124.8(5)
O2 C46 C45 125.9(5)
O1 C46 C45 109.3(4)
O1 C47 C48 107.3(4)
O1 C47 H47A 110.3
C48 C47 H47A 110.3
O1 C47 H47B 110.3
C48 C47 H47B 110.3
H47A C47 H47B 108.5
C49 C48 C53 119.0(5)
C49 C48 C47 120.4(5)
C53 C48 C47 120.5(5)
C48 C49 C50 120.5(5)
C48 C49 H49A 119.7
C50 C49 H49A 119.7
C49 C50 C51 120.5(5)
C49 C50 H50A 119.8
C51 C50 H50A 119.8
C52 C51 C50 119.8(6)
C52 C51 H51A 120.1
C50 C51 H51A 120.1
C51 C52 C53 120.1(6)
C51 C52 H52A 119.9
C53 C52 H52A 119.9
C48 C53 C52 120.0(5)
C48 C53 H53A 120.0
C52 C53 H53A 120.0
loop_
_geom_bond_atom_site_label_1
_geom_bond_atom_site_label_2
_geom_bond_distance
Hg N2 2.230(4)
Hg N1 2.373(4)
Hg N3 2.394(4)
Hg I 2.6415(4)
Hg C17 2.692(5)
O1 C46 1.344(6)
O1 C47 1.452(6)
O2 C46 1.188(6)
N1 C4 1.354(6)
N1 C1 1.386(6)
N2 C9 1.378(6)
N2 C6 1.378(6)
N3 C11 1.341(6)
N3 C14 1.387(6)
N4 C19 1.341(6)
N4 C16 1.404(6)
N4 C45 1.459(6)
C1 C20 1.383(7)
C1 C2 1.459(7)
C2 C3 1.331(7)
C2 H2A 0.9500
C3 C4 1.448(7)
C3 H3A 0.9500
C4 C5 1.435(7)
C5 C6 1.397(7)
C5 C21 1.485(7)
C6 C7 1.462(7)
C7 C8 1.352(8)
C7 H7A 0.9500
C8 C9 1.442(7)
C8 H8A 0.9500
C9 C10 1.405(7)
C10 C11 1.411(7)
C10 C27 1.499(7)
C11 C12 1.454(7)
C12 C13 1.338(8)
C12 H12A 0.9500
C13 C14 1.460(7)
C13 H13A 0.9500
C14 C15 1.383(7)
C15 C16 1.435(7)
C15 C33 1.489(7)
C16 C17 1.386(7)
C17 C18 1.416(7)
C17 H17A 1.0000
C18 C19 1.391(7)
C18 C20 1.435(7)
C19 H19A 0.9500
C20 C39 1.486(7)
C21 C22 1.394(7)
C21 C26 1.407(7)
C22 C23 1.382(7)
C22 H22A 0.9500
C23 C24 1.398(8)
C23 H23A 0.9500
C24 C25 1.377(8)
C24 H24A 0.9500
C25 C26 1.372(7)
C25 H25A 0.9500
C26 H26A 0.9500
C27 C32 1.365(9)
C27 C28 1.369(9)
C28 C29 1.394(9)
C28 H28A 0.9500
C29 C30 1.369(10)
C29 H29A 0.9500
C30 C31 1.349(11)
C30 H30A 0.9500
C31 C32 1.373(9)
C31 H31A 0.9500
C32 H32A 0.9500
C33 C34 1.407(7)
C33 C38 1.403(7)
C34 C35 1.378(8)
C34 H34A 0.9500
C35 C36 1.380(8)
C35 H35A 0.9500
C36 C37 1.380(8)
C36 H36A 0.9500
C37 C38 1.385(7)
C37 H37A 0.9500
C38 H38A 0.9500
C39 C44 1.396(7)
C39 C40 1.400(7)
C40 C41 1.384(8)
C40 H40A 0.9500
C41 C42 1.391(9)
C41 H41A 0.9500
C42 C43 1.374(9)
C42 H42A 0.9500
C43 C44 1.385(8)
C43 H43A 0.9500
C44 H44A 0.9500
C45 C46 1.524(7)
C45 H45A 0.9900
C45 H45B 0.9900
C47 C48 1.502(8)
C47 H47A 0.9900
C47 H47B 0.9900
C48 C49 1.383(8)
C48 C53 1.376(8)
C49 C50 1.385(8)
C49 H49A 0.9500
C50 C51 1.379(9)
C50 H50A 0.9500
C51 C52 1.356(8)
C51 H51A 0.9500
C52 C53 1.418(8)
C52 H52A 0.9500
C53 H53A 0.9500
