#------------------------------------------------------------------------------
#$Date: 2018-12-13 02:07:34 +0200 (Thu, 13 Dec 2018) $
#$Revision: 212564 $
#$URL: file:///home/coder/svn-repositories/cod/cif/7/04/83/7048355.cif $
#------------------------------------------------------------------------------
#
# This file is available in the Crystallography Open Database (COD),
# http://www.crystallography.net/
#
# All data on this site have been placed in the public domain by the
# contributors.
#
data_7048355
loop_
_publ_author_name
'Rueffer, Tobias'
'Al-Shewiki, Rasha'
'Korb, Marcus'
'Hildebrandt, Alexander'
'Zahn, Stefan'
'Naumov, Sergej'
'Buschbeck, Roy'
'Lang, Heinrich'
_publ_section_title
;
 Diaqua-\b-Octaferrocenyltetraphenylporphyrin: A Multiredox-active and
 Air-stable 16\p Non-Aromat
;
_journal_name_full               'Dalton Transactions'
_journal_paper_doi               10.1039/C8DT04135K
_journal_year                    2018
_chemical_formula_moiety         'C124 H92 Fe8 N4, 5(C H2 Cl2), 2(H2 O)'
_chemical_formula_sum            'C129 H106 Cl10 Fe8 N4 O2'
_chemical_formula_weight         2545.47
_chemical_name_systematic
;
 ?
;
_space_group_crystal_system      monoclinic
_space_group_IT_number           4
_space_group_name_Hall           'P 2yb'
_space_group_name_H-M_alt        'P 1 21 1'
_symmetry_space_group_name_Hall  'P 2yb'
_symmetry_space_group_name_H-M   'P 1 21 1'
_atom_sites_solution_hydrogens   mixed
_audit_creation_method           SHELXL-2013
_audit_update_record
;
2018-12-07 deposited with the CCDC.
2018-12-11 downloaded from the CCDC.
;
_cell_angle_alpha                90
_cell_angle_beta                 92.824(2)
_cell_angle_gamma                90
_cell_formula_units_Z            2
_cell_length_a                   15.1184(3)
_cell_length_b                   23.6167(6)
_cell_length_c                   15.6626(5)
_cell_measurement_reflns_used    4716
_cell_measurement_temperature    110
_cell_measurement_theta_max      64.8120
_cell_measurement_theta_min      3.9700
_cell_volume                     5585.5(3)
_computing_cell_refinement
;
CrysAlisPro, Agilent Technologies,
Version 1.171.37.35 (release 13-08-2014 CrysAlis171 .NET)
(compiled Aug 13 2014,18:06:01)
;
_computing_data_collection
;
CrysAlisPro, Agilent Technologies,
Version 1.171.37.35 (release 13-08-2014 CrysAlis171 .NET)
(compiled Aug 13 2014,18:06:01)
;
_computing_data_reduction
;
CrysAlisPro, Agilent Technologies,
Version 1.171.37.35 (release 13-08-2014 CrysAlis171 .NET)
(compiled Aug 13 2014,18:06:01)
;
_computing_molecular_graphics    'SHELXTL 5.1, XP, Bruker-AXS 1998)'
_computing_publication_material  'SHELXL-2013 (Sheldrick, 2013)'
_computing_structure_refinement  'SHELXL-2013 (Sheldrick, 2013)'
_computing_structure_solution    'SHELXS-2013 (Sheldrick, 2013)'
_diffrn_ambient_temperature      110
_diffrn_measured_fraction_theta_full 0.987
_diffrn_measured_fraction_theta_max 0.987
_diffrn_measurement_device_type  'oxford gemini s'
_diffrn_measurement_method       '\w scans'
_diffrn_radiation_type           CuK\a
_diffrn_radiation_wavelength     1.54184
_diffrn_reflns_av_R_equivalents  0.0601
_diffrn_reflns_av_unetI/netI     0.0962
_diffrn_reflns_Laue_measured_fraction_full 0.987
_diffrn_reflns_Laue_measured_fraction_max 0.987
_diffrn_reflns_limit_h_max       10
_diffrn_reflns_limit_h_min       -17
_diffrn_reflns_limit_k_max       25
_diffrn_reflns_limit_k_min       -27
_diffrn_reflns_limit_l_max       18
_diffrn_reflns_limit_l_min       -18
_diffrn_reflns_number            17700
_diffrn_reflns_point_group_measured_fraction_full 0.988
_diffrn_reflns_point_group_measured_fraction_max 0.988
_diffrn_reflns_theta_full        64.000
_diffrn_reflns_theta_max         63.994
_diffrn_reflns_theta_min         3.743
_exptl_absorpt_coefficient_mu    10.719
_exptl_absorpt_correction_T_max  1.00000
_exptl_absorpt_correction_T_min  0.26818
_exptl_absorpt_correction_type   multi-scan
_exptl_absorpt_process_details
;
CrysAlisPro, Agilent Technologies,
Version 1.171.37.35 (release 13-08-2014 CrysAlis171 .NET)
(compiled Aug 13 2014,18:06:01)
Empirical absorption correction using spherical harmonics,
 implemented in SCALE3 ABSPACK scaling algorithm.
;
_exptl_crystal_colour            purple
_exptl_crystal_density_diffrn    1.514
_exptl_crystal_description       plate
_exptl_crystal_F_000             2604
_exptl_crystal_size_max          0.16
_exptl_crystal_size_mid          0.14
_exptl_crystal_size_min          0.02
_refine_diff_density_max         1.346
_refine_diff_density_min         -0.918
_refine_diff_density_rms         0.128
_refine_ls_abs_structure_details
;
 Refined as an inversion twin.
;
_refine_ls_abs_structure_Flack   0.454(8)
_refine_ls_extinction_method     none
_refine_ls_goodness_of_fit_ref   0.999
_refine_ls_hydrogen_treatment    mixed
_refine_ls_matrix_type           full
_refine_ls_number_parameters     1301
_refine_ls_number_reflns         12508
_refine_ls_number_restraints     2232
_refine_ls_restrained_S_all      0.934
_refine_ls_R_factor_all          0.1029
_refine_ls_R_factor_gt           0.0862
_refine_ls_shift/su_max          0.047
_refine_ls_shift/su_mean         0.003
_refine_ls_structure_factor_coef Fsqd
_refine_ls_weighting_details
'w=1/[\s^2^(Fo^2^)+(0.1700P)^2^] where P=(Fo^2^+2Fc^2^)/3'
_refine_ls_weighting_scheme      calc
_refine_ls_wR_factor_gt          0.2215
_refine_ls_wR_factor_ref         0.2405
_reflns_Friedel_coverage         0.948
_reflns_Friedel_fraction_full    0.988
_reflns_Friedel_fraction_max     0.988
_reflns_number_gt                10254
_reflns_number_total             12508
_reflns_threshold_expression     'I > 2\s(I)'
_cod_data_source_file            c8dt04135k2.cif
_cod_data_source_block           TPPFc8
_cod_database_code               7048355
_shelx_space_group_comment
;
The symmetry employed for this shelxl refinement is uniquely defined
by the following loop, which should always be used as a source of
symmetry information in preference to the above space-group names.
They are only intended as comments.
;
_shelxl_version_number           2013-4
_shelx_res_file
;
TITL rasha-fc8 in P2(1)
CELL  1.54184  15.1184  23.6167  15.6626   90.000   92.824   90.000
ZERR     2.00   0.0003   0.0006   0.0005    0.000    0.002    0.000
LATT  -1
SYMM  - X, 1/2 + Y, - Z
SFAC  C    N    FE   CL   O    H
UNIT  258 8 16 20 4 212
MERG   2
OMIT     0.00 128.00
OMIT    -2   0   1
OMIT     0   0   2
OMIT     0   1   1
OMIT     1   0   2
OMIT     1   2   1
OMIT     1   1   1
OMIT     1  -1   1
OMIT    -4   7   3
OMIT    -4   2   1
OMIT    -2   0   6
OMIT     7  -5  10
OMIT     3   0   1
OMIT    15  10   4
OMIT     1   4   4
OMIT     4   3   2
OMIT   -14  -3   9
OMIT     2   8   2
OMIT    -1   5   3
OMIT     0 -25   7
OMIT    -2   0   2
OMIT    -1 -24   5
OMIT     3   6   1
OMIT     2  -2   4
OMIT     4   0   6
OMIT    -2  -1   1
OMIT    -1   0   4
OMIT    -2   5   2
OMIT    -2   1   1
OMIT     4   0   2
OMIT     1   5   4
TWIN
SADI Fe3 C70 Fe3 C71 Fe3 C72 Fe3 C73 Fe3 C74
SADI Fe3 C65 Fe3 C66 Fe3 C67 Fe3 C68 Fe3 C69
DFIX     2.030   0.020 FE3 C67
DFIX     2.030   0.020 FE3 C72
DFIX     1.480   0.020 C7 C65'
DFIX     1.480   0.020 C7 C65
SADI Fe3' C70' Fe3' C71' Fe3' C72' Fe3' C73' Fe3' C74'
SADI Fe3' C65' Fe3' C66' Fe3' C67' Fe3' C68' Fe3' C69'
DFIX     2.030   0.020 FE3' C67'
DFIX     2.030   0.020 FE3' C72'
RIGU
DFIX     1.750   0.020 C2CC CL4
DFIX     1.750   0.020 C2CC CL3
DANG     2.700   0.040 CL3 CL4
DFIX     1.750   0.020 C2C' CL4'
DFIX     1.750   0.020 C2C' CL3'
DANG     2.700   0.040 CL3' CL4'
DFIX     1.700   0.020 C1CC CL2
DFIX     1.700   0.020 C1CC CL1
DANG     2.750   0.040 CL2 CL1
DFIX     1.750   0.020 C3CC CL6
DFIX     1.750   0.020 C3CC CL5
DANG     2.750   0.040 CL6 CL5
DFIX     1.750   0.020 C3C' CL6'
DFIX     1.750   0.020 C3C' CL5'
DANG     2.750   0.040 CL6' CL5'
DFIX     1.750   0.020 C4CC CL8
DFIX     1.750   0.020 C4CC CL7
DANG     2.800   0.040 CL8 CL7
DFIX     1.700   0.020 C5CC CL9
DFIX  1.700 0.020 C5CC CL10
DANG  2.750 0.040 CL9 CL10
DFIX     1.700   0.020 C5C' CL9'
DFIX     1.700   0.020 C5C' CL1a
DANG     2.750   0.040 CL9' CL1a
DFIX     1.700   0.020 C6CC CL12
DFIX     1.720   0.020 C6CC CL11
DANG     2.750   0.040 CL11 CL12
DFIX     1.700   0.020 C6C' CL1c
DFIX     1.720   0.020 C6C' CL1b
DANG     2.750   0.040 CL1b CL1c
EADP C3CC CL6 CL5 C3C' CL6' CL5'
EADP  CL9 CL10 C5CC CL9' CL1A C5C'
EADP CL11 C6CC CL12 CL1B C6C' CL1C
DFIX     0.980   0.020 O1 H5
DFIX  0.980 0.020 O1 H6
DANG  1.600 0.040 H5 H6
EADP  H6 H5 H7 H8
DFIX     0.980   0.020 H7 O2
DFIX  0.980 0.020 O2 H8
DANG  1.550 0.040 H8 H7
EADP C2CC CL3 CL4 C2C' CL3' CL4'
DANG     2.000   0.040 H8 N1
DANG     2.000   0.040 H7 N3
DANG     2.000   0.040 N2 H5
DANG     2.000   0.040 H6 N4
FMAP   2
PLAN  800
ACTA   128.00
BOND   $H
CONF
L.S.  20
WGHT    0.170000
BASF   0.45431
FVAR       2.05837   0.57155   0.47209   0.46955   0.47702   0.76888
C4    1    0.786592    0.496223    0.765065    11.00000    0.02085    0.03582 =
         0.04406    0.00793   -0.00045    0.00021
C6    1    0.927398    0.539812    0.819101    11.00000    0.01652    0.03424 =
         0.04270    0.00564   -0.00006    0.00595
C7    1    0.941544    0.581696    0.887507    11.00000    0.02029    0.03585 =
         0.04480    0.00283    0.00212    0.00843
C8    1    1.010636    0.614648    0.861665    11.00000    0.02858    0.03997 =
         0.04903   -0.00259    0.00397    0.00117
C9    1    1.029107    0.595023    0.775949    11.00000    0.01416    0.03351 =
         0.05048    0.00558    0.00029    0.00533
C11   1    1.069492    0.591338    0.625689    11.00000    0.01898    0.02780 =
         0.04585    0.00816    0.00168   -0.00356
C12   1    1.138027    0.556120    0.585378    11.00000    0.01829    0.02443 =
         0.04594    0.00857    0.00095   -0.00241
C13   1    1.108549    0.548911    0.505599    11.00000    0.02146    0.02776 =
         0.04574    0.00704    0.00670   -0.00618
C14   1    1.016491    0.571354    0.499940    11.00000    0.02617    0.03147 =
         0.03991    0.00745    0.00173    0.00014
C16   1    0.859146    0.587353    0.467646    11.00000    0.02289    0.02295 =
         0.05330    0.00348   -0.00292   -0.00496
C17   1    0.820578    0.641697    0.434194    11.00000    0.01878    0.02523 =
         0.05024    0.00241   -0.00408   -0.00271
C18   1    0.736715    0.643457    0.473342    11.00000    0.02374    0.02994 =
         0.04775    0.00698   -0.00102   -0.00107
C19   1    0.735996    0.595244    0.531619    11.00000    0.02038    0.03153 =
         0.04982    0.00513   -0.00455   -0.00162
AFIX  66
C21   1    0.907026    0.435423    0.837803    11.00000    0.02180    0.03090 =
         0.05564    0.00929    0.00587    0.00287
C22   1    0.901629    0.389023    0.783196    11.00000    0.02194    0.03504 =
         0.06381    0.00526    0.01315    0.00373
AFIX  43
H22   6    0.869488    0.391594    0.731166    11.00000   -1.20000
AFIX  65
C23   1    0.944270    0.338780    0.806355    11.00000    0.03313    0.03286 =
         0.07157    0.00584    0.01036    0.00403
AFIX  43
H23   6    0.940659    0.307735    0.769819    11.00000   -1.20000
AFIX  65
C24   1    0.992309    0.334936    0.884120    11.00000    0.04402    0.04200 =
         0.07553    0.00892    0.00535    0.00986
AFIX  43
H24   6    1.020839    0.301320    0.899615    11.00000   -1.20000
AFIX  65
C25   1    0.997707    0.381335    0.938728    11.00000    0.03958    0.04189 =
         0.06745    0.01341   -0.00308    0.00843
AFIX  43
H25   6    1.029848    0.378763    0.990758    11.00000   -1.20000
AFIX  65
C26   1    0.955066    0.431579    0.915570    11.00000    0.04032    0.04079 =
         0.06238    0.00996   -0.00286    0.00790
AFIX  43
H26   6    0.958677    0.462623    0.952106    11.00000   -1.20000
AFIX   0
C10   1    1.073934    0.619753    0.711951    11.00000    0.01749    0.02798 =
         0.05052    0.00472   -0.00108    0.00097
AFIX  66
C27   1    1.111672    0.676959    0.708232    11.00000    0.02215    0.02882 =
         0.04411    0.00423   -0.00437   -0.00543
C28   1    1.061450    0.722559    0.734198    11.00000    0.03786    0.03097 =
         0.05411    0.00143   -0.00155   -0.00247
AFIX  43
H28   6    1.007451    0.716289    0.758578    11.00000   -1.20000
AFIX  65
C29   1    1.091934    0.777528    0.723727    11.00000    0.06063    0.02945 =
         0.09974    0.00096    0.01261   -0.00506
AFIX  43
H29   6    1.058332    0.808038    0.741101    11.00000   -1.20000
AFIX  65
C30   1    1.172640    0.786899    0.687289    11.00000    0.06358    0.04075 =
         0.12356    0.00627    0.02342   -0.01369
AFIX  43
H30   6    1.193036    0.823678    0.680283    11.00000   -1.20000
AFIX  65
C31   1    1.222863    0.741300    0.661321    11.00000    0.04068    0.04578 =
         0.08941    0.00269    0.00994   -0.01733
AFIX  43
H31   6    1.276861    0.747570    0.636941    11.00000   -1.20000
AFIX  65
C32   1    1.192381    0.686330    0.671792    11.00000    0.03370    0.04172 =
         0.05872    0.00298    0.00912   -0.00593
AFIX  43
H32   6    1.225983    0.655821    0.654418    11.00000   -1.20000
AFIX   0
C15   1    0.943802    0.560407    0.446711    11.00000    0.02176    0.02876 =
         0.04822    0.00607    0.00262   -0.00428
AFIX  66
C33   1    0.938373    0.514560    0.380613    11.00000    0.02922    0.03239 =
         0.05154    0.00056   -0.00365   -0.00279
C34   1    0.974114    0.461825    0.401436    11.00000    0.03446    0.03239 =
         0.05317    0.00200   -0.00330   -0.00124
AFIX  43
H34   6    0.998694    0.455196    0.456123    11.00000   -1.20000
AFIX  65
C35   1    0.973117    0.418996    0.340523    11.00000    0.08716    0.03866 =
         0.06038   -0.00218   -0.00420    0.00331
AFIX  43
H35   6    0.997030    0.383713    0.354455    11.00000   -1.20000
AFIX  65
C36   1    0.936380    0.428903    0.258786    11.00000    0.11654    0.03496 =
         0.06623   -0.00625   -0.02502    0.00676
AFIX  43
H36   6    0.935714    0.400248    0.218031    11.00000   -1.20000
AFIX  65
C37   1    0.900639    0.481638    0.237962    11.00000    0.12850    0.03901 =
         0.06504   -0.00602   -0.02641    0.01332
AFIX  43
H37   6    0.876059    0.488266    0.183275    11.00000   -1.20000
AFIX  65
C38   1    0.901635    0.524467    0.298874    11.00000    0.05625    0.02781 =
         0.05955    0.00191   -0.01637   -0.00138
AFIX  43
H38   6    0.877722    0.559750    0.284942    11.00000   -1.20000
AFIX   0
C20   1    0.684945    0.584504    0.599309    11.00000    0.02070    0.02960 =
         0.05038    0.00516   -0.00456   -0.00924
AFIX  66
C39   1    0.612721    0.621452    0.631182    11.00000    0.03038    0.03906 =
         0.04386    0.00749    0.00384    0.00147
C40   1    0.529434    0.599144    0.644456    11.00000    0.03076    0.03845 =
         0.04734    0.00849    0.00435   -0.00010
AFIX  43
H40   6    0.518333    0.560923    0.634462    11.00000   -1.20000
AFIX  65
C41   1    0.462738    0.633963    0.672667    11.00000    0.03831    0.04229 =
         0.05617    0.00594    0.00727    0.00708
AFIX  43
H41   6    0.407013    0.619038    0.681548    11.00000   -1.20000
AFIX  65
C42   1    0.479329    0.691091    0.687605    11.00000    0.04160    0.03990 =
         0.05961    0.00510    0.00834    0.01104
AFIX  43
H42   6    0.434704    0.714387    0.706480    11.00000   -1.20000
AFIX  65
C43   1    0.562616    0.713399    0.674331    11.00000    0.05175    0.04436 =
         0.04295   -0.00336    0.01169    0.00488
AFIX  43
H43   6    0.573716    0.751621    0.684326    11.00000   -1.20000
AFIX  65
C44   1    0.629312    0.678580    0.646120    11.00000    0.04090    0.04190 =
         0.05064   -0.00014    0.00689   -0.00150
AFIX  43
H44   6    0.685037    0.693506    0.637239    11.00000   -1.20000
AFIX   0
N1    2    0.775207    0.547970    0.717286    11.00000    0.02026    0.03077 =
         0.04304    0.00836    0.00480   -0.00011
AFIX  56
C45   1    0.602407    0.458974    0.605382    11.00000    0.02744    0.03670 =
         0.04917    0.00184    0.00033   -0.00010
C46   1    0.537132    0.416730    0.616494    11.00000    0.02420    0.02855 =
         0.04862   -0.00211    0.00267    0.00711
AFIX  43
H46   6    0.531313    0.394698    0.665110    11.00000   -1.20000
AFIX  55
C47   1    0.482303    0.414034    0.540342    11.00000    0.02756    0.04179 =
         0.05005    0.00178    0.00205   -0.00251
AFIX  43
H47   6    0.434269    0.389926    0.530327    11.00000   -1.20000
AFIX  55
C48   1    0.513691    0.454611    0.482165    11.00000    0.03173    0.04407 =
         0.05313    0.00445   -0.00179   -0.00139
AFIX  43
H48   6    0.489825    0.461744    0.427360    11.00000   -1.20000
AFIX  55
C49   1    0.587920    0.482385    0.522363    11.00000    0.02717    0.04173 =
         0.05048    0.00482    0.00159    0.00115
AFIX  43
H49   6    0.621203    0.510902    0.498506    11.00000   -1.20000
AFIX   0
FE1   3    0.611709    0.398208    0.515862    11.00000    0.02345    0.03860 =
         0.04652    0.00009    0.00431    0.00242
AFIX  56
C50   1    0.734613    0.361206    0.533604    11.00000    0.03629    0.05604 =
         0.07365   -0.01169    0.00102    0.01777
AFIX  43
H50   6    0.775175    0.367768    0.579105    11.00000   -1.20000
AFIX  55
C51   1    0.667768    0.318915    0.530123    11.00000    0.04577    0.05233 =
         0.05539   -0.00847    0.00555    0.01545
AFIX  43
H51   6    0.656865    0.292916    0.572944    11.00000   -1.20000
AFIX  55
C52   1    0.620494    0.323291    0.449780    11.00000    0.03645    0.05893 =
         0.05077   -0.01117    0.01398    0.00725
AFIX  43
H52   6    0.573193    0.300661    0.430743    11.00000   -1.20000
AFIX  55
C53   1    0.658121    0.368287    0.403606    11.00000    0.03927    0.07059 =
         0.05724   -0.00554    0.01403    0.00605
AFIX  43
H53   6    0.639791    0.380300    0.349020    11.00000   -1.20000
AFIX  55
C54   1    0.728651    0.391720    0.455413    11.00000    0.03183    0.06940 =
         0.07732   -0.00548    0.00961    0.00848
AFIX  43
H54   6    0.764622    0.421774    0.440713    11.00000   -1.20000
AFIX   0
N2    2    0.980970    0.546114    0.755184    11.00000    0.02120    0.03856 =
         0.04203    0.00382    0.00162    0.00200
AFIX  56
C55   1    0.699801    0.403389    0.788540    11.00000    0.02535    0.03176 =
         0.04580    0.00765   -0.00034    0.00026
C56   1    0.726108    0.397188    0.876329    11.00000    0.02065    0.04410 =
         0.05151    0.01116    0.00230    0.00068
AFIX  43
H56   6    0.753822    0.424608    0.910848    11.00000   -1.20000
AFIX  55
C57   1    0.702670    0.341768    0.902160    11.00000    0.02477    0.04615 =
         0.05682    0.01309    0.00464    0.00163
AFIX  43
H57   6    0.712339    0.326520    0.956565    11.00000   -1.20000
AFIX  55
C58   1    0.661877    0.313718    0.830335    11.00000    0.02892    0.03618 =
         0.06597    0.01001    0.00628    0.00275
AFIX  43
H58   6    0.640138    0.276873    0.829441    11.00000   -1.20000
AFIX  55
C59   1    0.660103    0.351801    0.760114    11.00000    0.02692    0.03567 =
         0.05840    0.00564    0.00091   -0.00185
AFIX  43
H59   6    0.636999    0.344278    0.705156    11.00000   -1.20000
AFIX   0
FE2   3    0.594581    0.387725    0.861195    11.00000    0.02045    0.03442 =
         0.04651    0.00661    0.00182   -0.00033
AFIX  56
C60   1    0.509519    0.454576    0.851022    11.00000    0.03309    0.04170 =
         0.05699    0.00035    0.00418    0.00220
AFIX  43
H60   6    0.515026    0.485242    0.814415    11.00000   -1.20000
AFIX  55
C61   1    0.546809    0.450337    0.935779    11.00000    0.03159    0.05297 =
         0.05889   -0.00532    0.00053    0.00368
AFIX  43
H61   6    0.581026    0.477740    0.964428    11.00000   -1.20000
AFIX  55
C62   1    0.522680    0.396911    0.969113    11.00000    0.03014    0.05649 =
         0.05312    0.00258    0.00613    0.00521
AFIX  43
H62   6    0.538320    0.383181    1.023426    11.00000   -1.20000
AFIX  55
C63   1    0.470478    0.368131    0.904958    11.00000    0.03013    0.04776 =
         0.06076    0.00977    0.00317    0.00261
AFIX  43
H63   6    0.445927    0.332243    0.909876    11.00000   -1.20000
AFIX  55
C64   1    0.462344    0.403770    0.831973    11.00000    0.02322    0.04771 =
         0.05399    0.00435    0.00347    0.00189
AFIX  43
H64   6    0.431530    0.395320    0.780700    11.00000   -1.20000
AFIX   0
N3    2    1.001837    0.601706    0.574803    11.00000    0.02075    0.03379 =
         0.04320    0.00695   -0.00085   -0.00138
PART    1
AFIX  56
C70   1    0.754149    0.680090    0.875952    51.00000    0.06708    0.11084 =
         0.07989    0.02394   -0.00338    0.03925
AFIX  43
H70   6    0.788076    0.681582    0.828061    51.00000   -1.20000
AFIX  55
C71   1    0.764206    0.715397    0.949172    51.00000    0.07052    0.10803 =
         0.09001    0.02078   -0.00474    0.04224
AFIX  43
H71   6    0.805876    0.744073    0.957653    51.00000   -1.20000
AFIX  55
C72   1    0.699468    0.699234    1.007168    51.00000    0.06967    0.11523 =
         0.08647    0.01697   -0.00313    0.04224
AFIX  43
H72   6    0.691295    0.715464    1.060302    51.00000   -1.20000
AFIX  55
C73   1    0.649400    0.653937    0.969793    51.00000    0.05940    0.12045 =
         0.09326    0.01646   -0.00285    0.04333
AFIX  43
H73   6    0.602679    0.635292    0.994150    51.00000   -1.20000
AFIX  55
C74   1    0.683195    0.642105    0.888697    51.00000    0.06306    0.12103 =
         0.08430    0.02021   -0.00843    0.03704
AFIX  43
H74   6    0.662493    0.614351    0.850617    51.00000   -1.20000
AFIX  56
C65   1    0.889981    0.582311    0.966548    51.00000    0.03385    0.07582 =
         0.04705    0.00997    0.00454    0.01663
C66   1    0.905407    0.617046    1.039775    51.00000    0.03893    0.07968 =
         0.05362    0.00484    0.00295    0.02511
AFIX  43
H66   6    0.950741    0.643408    1.047895    51.00000   -1.20000
AFIX  55
C67   1    0.839463    0.604464    1.098426    51.00000    0.03464    0.09565 =
         0.05074    0.01117    0.00143    0.02264
AFIX  43
H67   6    0.834024    0.621138    1.151703    51.00000   -1.20000
AFIX  55
C68   1    0.783280    0.561953    1.061448    51.00000    0.03186    0.09667 =
         0.05412    0.01386    0.00202    0.02240
AFIX  43
H68   6    0.734586    0.545897    1.086254    51.00000   -1.20000
AFIX  55
C69   1    0.814502    0.548262    0.979942    51.00000    0.03370    0.08941 =
         0.04782    0.01473   -0.00112    0.01538
AFIX  43
H69   6    0.789845    0.521665    0.941997    51.00000   -1.20000
AFIX   0
FE3   3    0.782296    0.632184    0.985281    51.00000    0.04037    0.10193 =
         0.04769    0.01192    0.00390    0.03447
PART    2
AFIX  56
C65'  1    0.887107    0.582603    0.962483   -51.00000    0.02679    0.03112 =
         0.04304    0.00197    0.00563    0.00658
C66'  1    0.885687    0.626377    1.024552   -51.00000    0.02655    0.03428 =
         0.04685   -0.00226    0.00952    0.00957
AFIX  43
H66'  6    0.916697    0.660348    1.023196   -51.00000   -1.20000
AFIX  55
C67'  1    0.828608    0.609173    1.089058   -51.00000    0.02383    0.04918 =
         0.03992    0.00174    0.00641    0.00296
AFIX  43
H67'  6    0.815671    0.629900    1.137365   -51.00000   -1.20000
AFIX  55
C68'  1    0.794750    0.554766    1.066854   -51.00000    0.02387    0.04831 =
         0.05023    0.00430    0.00320    0.00552
AFIX  43
H68'  6    0.755745    0.533604    1.098065   -51.00000   -1.20000
AFIX  55
C69'  1    0.830904    0.538345    0.988626   -51.00000    0.02606    0.03774 =
         0.04026    0.00400   -0.00240    0.00339
AFIX  43
H69'  6    0.819735    0.504540    0.959608   -51.00000   -1.20000
AFIX   0
FE3'  3    0.760760    0.611343    0.973179   -51.00000    0.02361    0.03833 =
         0.04652    0.00038    0.00691    0.00754
AFIX  56
C70'  1    0.713511    0.645165    0.858997   -51.00000    0.03024    0.06468 =
         0.05535    0.00550    0.00696    0.02494
AFIX  43
H70'  6    0.743542    0.647835    0.808741   -51.00000   -1.20000
AFIX  55
C71'  1    0.713068    0.686500    0.924815   -51.00000    0.04667    0.06087 =
         0.06105    0.00440    0.00740    0.02197
AFIX  43
H71'  6    0.742758    0.720995    0.925233   -51.00000   -1.20000
AFIX  55
C72'  1    0.659334    0.665918    0.989881   -51.00000    0.03966    0.06987 =
         0.06558    0.00106    0.00814    0.02298
AFIX  43
H72'  6    0.647652    0.684566    1.040395   -51.00000   -1.20000
AFIX  55
C73'  1    0.626567    0.611862    0.964277   -51.00000    0.03033    0.07038 =
         0.06003    0.00389    0.00275    0.01824
AFIX  43
H73'  6    0.589658    0.588892    0.995078   -51.00000   -1.20000
AFIX  55
C74'  1    0.660050    0.599036    0.883386   -51.00000    0.03705    0.06983 =
         0.05711    0.00562   -0.00049    0.01298
AFIX  43
H74'  6    0.648921    0.566191    0.851908   -51.00000   -1.20000
AFIX   0
PART    0
N4    2    0.810495    0.560793    0.521346    11.00000    0.01570    0.03156 =
         0.05875    0.00852   -0.00306    0.00108
AFIX  56
C75   1    1.064259    0.660833    0.904501    11.00000    0.02721    0.04127 =
         0.04401   -0.00061    0.00405    0.00113
C76   1    1.156507    0.665356    0.892653    11.00000    0.02389    0.04973 =
         0.03421   -0.00608    0.00154   -0.00125
AFIX  43
H76   6    1.191118    0.638980    0.865480    11.00000   -1.20000
AFIX  55
C77   1    1.186631    0.717223    0.929579    11.00000    0.03418    0.05320 =
         0.05252   -0.01096    0.00096   -0.00279
AFIX  43
H77   6    1.244434    0.730781    0.930835    11.00000   -1.20000
AFIX  55
C78   1    1.113000    0.744756    0.964249    11.00000    0.04281    0.04959 =
         0.06460   -0.01328    0.00826   -0.00120
AFIX  43
H78   6    1.114114    0.779511    0.992199    11.00000   -1.20000
AFIX  55
C79   1    1.037370    0.709904    0.948750    11.00000    0.03275    0.04318 =
         0.05663   -0.00216    0.00545    0.00145
AFIX  43
H79   6    0.980255    0.717827    0.964767    11.00000   -1.20000
AFIX   0
FE4   3    1.133642    0.666723    1.019852    11.00000    0.04326    0.05508 =
         0.04549   -0.01025    0.00274    0.00582
AFIX  56
C80   1    1.126659    0.592692    1.084315    11.00000    0.07981    0.07602 =
         0.04673    0.00203    0.00162    0.01208
AFIX  43
H80   6    1.096331    0.560413    1.065500    11.00000   -1.20000
AFIX  55
C81   1    1.215917    0.606241    1.068629    11.00000    0.07404    0.07824 =
         0.05274    0.00567   -0.00169    0.01717
AFIX  43
H81   6    1.254310    0.584394    1.037738    11.00000   -1.20000
AFIX  55
C82   1    1.236261    0.659006    1.108392    11.00000    0.08304    0.08250 =
         0.06351    0.00081   -0.01410    0.01150
AFIX  43
H82   6    1.290317    0.677782    1.108114    11.00000   -1.20000
AFIX  55
C83   1    1.159576    0.678066    1.148652    11.00000    0.09876    0.09420 =
         0.05615   -0.01088   -0.00368    0.01179
AFIX  43
H83   6    1.154592    0.711518    1.179372    11.00000   -1.20000
AFIX  55
C84   1    1.091838    0.637082    1.133772    11.00000    0.09234    0.08423 =
         0.05226    0.00354    0.00758    0.01419
AFIX  43
H84   6    1.034702    0.638980    1.153035    11.00000   -1.20000
AFIX   0
O1    5    0.920390    0.469677    0.609831    11.00000    0.03666    0.03367 =
         0.05663    0.00294   -0.00468    0.00223
AFIX  56
C85   1    1.220043    0.537302    0.635973    11.00000    0.01996    0.02328 =
         0.05107   -0.00064   -0.00216   -0.00506
C86   1    1.229755    0.537305    0.726612    11.00000    0.02264    0.03013 =
         0.05227    0.00659   -0.00164    0.00257
AFIX  43
H86   6    1.188021    0.549975    0.763893    11.00000   -1.20000
AFIX  55
C87   1    1.314380    0.514566    0.750333    11.00000    0.03218    0.03562 =
         0.04966    0.00181   -0.00024    0.00495
AFIX  43
H87   6    1.337799    0.509729    0.805877    11.00000   -1.20000
AFIX  55
C88   1    1.356967    0.500509    0.674355    11.00000    0.02381    0.02930 =
         0.05036   -0.00167    0.00070   -0.00297
AFIX  43
H88   6    1.413175    0.484849    0.671402    11.00000   -1.20000
AFIX  55
C89   1    1.298663    0.514561    0.603676    11.00000    0.02530    0.03504 =
         0.04930    0.00439    0.00108   -0.00344
AFIX  43
H89   6    1.309983    0.509720    0.546307    11.00000   -1.20000
AFIX   0
FE5   3    1.240082    0.457287    0.681303    11.00000    0.01919    0.02907 =
         0.04788    0.00293    0.00022   -0.00116
AFIX  56
C90   1    1.128654    0.410776    0.647634    11.00000    0.03018    0.03433 =
         0.07252    0.00826   -0.00535   -0.01083
AFIX  43
H90   6    1.078205    0.423948    0.617565    11.00000   -1.20000
AFIX  55
C91   1    1.143905    0.411645    0.737811    11.00000    0.02668    0.03120 =
         0.06770    0.00938   -0.00023   -0.00425
AFIX  43
H91   6    1.105198    0.425485    0.777172    11.00000   -1.20000
AFIX  55
C92   1    1.228634    0.387670    0.757338    11.00000    0.03552    0.03299 =
         0.05604    0.00371   -0.00024   -0.00451
AFIX  43
H92   6    1.255161    0.383052    0.811732    11.00000   -1.20000
AFIX  55
C93   1    1.265748    0.371984    0.679229    11.00000    0.03406    0.03232 =
         0.06524    0.00223   -0.00109   -0.00350
AFIX  43
H93   6    1.320850    0.355289    0.673486    11.00000   -1.20000
AFIX  55
C94   1    1.203957    0.386265    0.611428    11.00000    0.04020    0.03558 =
         0.06440    0.00342   -0.00864   -0.00712
AFIX  43
H94   6    1.211485    0.380565    0.553484    11.00000   -1.20000
AFIX   0
O2    5    0.862848    0.652921    0.677097    11.00000    0.02269    0.04104 =
         0.06706    0.00996    0.00049    0.00104
AFIX  56
C95   1    1.148500    0.524982    0.426049    11.00000    0.01861    0.04017 =
         0.05046   -0.00158   -0.00186   -0.00759
C96   1    1.128354    0.547411    0.343246    11.00000    0.02794    0.04781 =
         0.05216    0.00335   -0.00166   -0.00139
AFIX  43
H96   6    1.090747    0.577701    0.330272    11.00000   -1.20000
AFIX  55
C97   1    1.175713    0.515470    0.283729    11.00000    0.04242    0.04718 =
         0.04913    0.00124   -0.00341    0.00103
AFIX  43
H97   6    1.174568    0.521168    0.224933    11.00000   -1.20000
AFIX  55
C98   1    1.225128    0.473301    0.329749    11.00000    0.04228    0.04618 =
         0.05286    0.00326    0.00622    0.00040
AFIX  43
H98   6    1.262028    0.446533    0.306384    11.00000   -1.20000
AFIX  55
C99   1    1.208309    0.479180    0.417707    11.00000    0.03053    0.04114 =
         0.05102    0.00578    0.00381   -0.00288
AFIX  43
H99   6    1.232260    0.456938    0.462063    11.00000   -1.20000
AFIX   0
FE6   3    1.260100    0.553416    0.369719    11.00000    0.02547    0.04258 =
         0.04855    0.00625    0.00507    0.00019
AFIX  56
C100  1    1.286530    0.638065    0.357473    11.00000    0.03877    0.05169 =
         0.07588    0.01068    0.00459   -0.00594
AFIX  43
H100  6    1.245130    0.666429    0.345333    11.00000   -1.20000
AFIX  55
C101  1    1.332197    0.606290    0.296513    11.00000    0.04107    0.05752 =
         0.06057    0.01765    0.00093   -0.00403
AFIX  43
H101  6    1.325955    0.610190    0.237438    11.00000   -1.20000
AFIX  55
C102  1    1.389066    0.567516    0.341589    11.00000    0.03827    0.06084 =
         0.06194    0.01538   -0.00251   -0.00149
AFIX  43
H102  6    1.426609    0.541562    0.317219    11.00000   -1.20000
AFIX  55
C103  1    1.378548    0.575327    0.430408    11.00000    0.03007    0.05326 =
         0.05530    0.01108    0.00038   -0.00547
AFIX  43
H103  6    1.407992    0.555388    0.474422    11.00000   -1.20000
AFIX  55
C104  1    1.315176    0.618929    0.440226    11.00000    0.02953    0.05653 =
         0.07323    0.00504    0.00318   -0.01381
AFIX  43
H104  6    1.295831    0.632559    0.491797    11.00000   -1.20000
AFIX   0
C5    1    0.864975    0.490203    0.809174    11.00000    0.01966    0.03213 =
         0.04329    0.00452    0.00124    0.00224
AFIX  56
C105  1    0.858856    0.678916    0.371625    11.00000    0.02218    0.02767 =
         0.04912    0.00475   -0.00080   -0.00371
C106  1    0.831878    0.735101    0.351212    11.00000    0.02653    0.03298 =
         0.06004    0.01076    0.00585   -0.00320
AFIX  43
H106  6    0.786958    0.755124    0.376254    11.00000   -1.20000
AFIX  55
C107  1    0.885529    0.755346    0.285849    11.00000    0.02747    0.03444 =
         0.04680    0.00353   -0.00416   -0.00507
AFIX  43
H107  6    0.881916    0.790955    0.260567    11.00000   -1.20000
AFIX  55
C108  1    0.945665    0.711673    0.265865    11.00000    0.03234    0.03913 =
         0.06108    0.00502    0.00386   -0.00498
AFIX  43
H108  6    0.988352    0.713658    0.225198    11.00000   -1.20000
AFIX  55
C109  1    0.929181    0.664437    0.318878    11.00000    0.02874    0.03076 =
         0.06195   -0.00044    0.00138   -0.00287
AFIX  43
H109  6    0.959176    0.630054    0.319026    11.00000   -1.20000
AFIX   0
FE7   3    0.962215    0.734912    0.390302    11.00000    0.02568    0.02832 =
         0.05726    0.00557   -0.00336   -0.00374
AFIX  56
C110  1    0.999744    0.736172    0.518820    11.00000    0.06328    0.03821 =
         0.07079    0.00781   -0.01626   -0.00568
AFIX  43
H110  6    0.972855    0.716251    0.561716    11.00000   -1.20000
AFIX  55
C111  1    0.976720    0.791434    0.489729    11.00000    0.06190    0.03687 =
         0.06388    0.00519   -0.01313   -0.00521
AFIX  43
H111  6    0.932105    0.814059    0.510228    11.00000   -1.20000
AFIX  55
C112  1    1.033778    0.806083    0.423845    11.00000    0.04280    0.04058 =
         0.08143    0.00875   -0.01906   -0.00874
AFIX  43
H112  6    1.033093    0.839987    0.393618    11.00000   -1.20000
AFIX  55
C113  1    1.092066    0.759875    0.412217    11.00000    0.03141    0.04682 =
         0.07998    0.01096   -0.01232   -0.01090
AFIX  43
H113  6    1.136257    0.758204    0.373037    11.00000   -1.20000
AFIX  55
C114  1    1.071031    0.716668    0.470915    11.00000    0.04784    0.04292 =
         0.07870    0.00952   -0.01921   -0.00900
AFIX  43
H114  6    1.099028    0.681731    0.476928    11.00000   -1.20000
AFIX   0
C2    1    0.673682    0.479852    0.667272    11.00000    0.02349    0.03684 =
         0.04278    0.00481    0.00557   -0.00030
AFIX  56
C115  1    0.657528    0.679528    0.455646    11.00000    0.02360    0.03406 =
         0.04281    0.00581    0.00102    0.00187
C116  1    0.571224    0.655705    0.449044    11.00000    0.02350    0.03580 =
         0.04415    0.00736    0.00238    0.00259
AFIX  43
H116  6    0.557751    0.617286    0.447399    11.00000   -1.20000
AFIX  55
C117  1    0.509103    0.700843    0.445395    11.00000    0.02736    0.03819 =
         0.05291    0.00692    0.00108    0.00127
AFIX  43
H117  6    0.447802    0.697176    0.440940    11.00000   -1.20000
AFIX  55
C118  1    0.557014    0.752563    0.449741    11.00000    0.03049    0.03653 =
         0.05212    0.00734   -0.00177    0.00372
AFIX  43
H118  6    0.532601    0.788716    0.448633    11.00000   -1.20000
AFIX  55
C119  1    0.648746    0.739390    0.456077    11.00000    0.03273    0.03602 =
         0.04517    0.00345   -0.00285    0.00074
AFIX  43
H119  6    0.694959    0.765401    0.459847    11.00000   -1.20000
AFIX   0
FE8   3    0.590107    0.706735    0.344959    11.00000    0.02316    0.03106 =
         0.04627    0.00437   -0.00239    0.00037
AFIX  56
C120  1    0.566382    0.655291    0.241152    11.00000    0.05942    0.05418 =
         0.05500    0.00263    0.00028   -0.01384
AFIX  43
H120  6    0.553509    0.616800    0.242334    11.00000   -1.20000
AFIX  55
C121  1    0.503683    0.700072    0.240709    11.00000    0.04974    0.05476 =
         0.04770    0.00883   -0.00679   -0.01459
AFIX  43
H121  6    0.442538    0.696059    0.241551    11.00000   -1.20000
AFIX  55
C122  1    0.550738    0.752056    0.238755    11.00000    0.04125    0.04387 =
         0.04439    0.01047   -0.00185   -0.00296
AFIX  43
H122  6    0.525820    0.788067    0.238093    11.00000   -1.20000
AFIX  55
C123  1    0.642517    0.739403    0.237990    11.00000    0.04509    0.04814 =
         0.04584    0.00654    0.00035   -0.00823
AFIX  43
H123  6    0.688262    0.765672    0.236739    11.00000   -1.20000
AFIX  55
C124  1    0.652185    0.679599    0.239471    11.00000    0.05102    0.05194 =
         0.04842    0.00075    0.00052   -0.00434
AFIX  43
H124  6    0.705375    0.659823    0.239360    11.00000   -1.20000
AFIX   0
PART    1
C3CC  1    1.218246    0.441750    1.064927    20.50000    0.07888    0.09155 =
         0.08514   -0.02715    0.00527   -0.00974
AFIX  23
H3C1  6    1.166755    0.451467    1.096485    20.50000   -1.20000
H3C2  6    1.223021    0.400825    1.062617    20.50000   -1.20000
AFIX   0
CL6   4    1.313275    0.470639    1.114420    20.50000    0.07888    0.09155 =
         0.08514   -0.02715    0.00527   -0.00974
CL5   4    1.207993    0.470252    0.959965    20.50000    0.07888    0.09155 =
         0.08514   -0.02715    0.00527   -0.00974
PART    2
C3C'  1    1.295346    0.454429    0.988272   -20.50000    0.07888    0.09155 =
         0.08514   -0.02715    0.00527   -0.00974
AFIX  23
H3C3  6    1.319146    0.478242    1.034346   -20.50000   -1.20000
H3C4  6    1.339453    0.450822    0.945675   -20.50000   -1.20000
AFIX   0
CL6'  4    1.266922    0.387803    1.027271   -20.50000    0.07888    0.09155 =
         0.08514   -0.02715    0.00527   -0.00974
CL5'  4    1.198218    0.483316    0.943111   -20.50000    0.07888    0.09155 =
         0.08514   -0.02715    0.00527   -0.00974
PART    0
C1CC  1    0.453476    0.692106    0.907206    11.00000    0.11884    0.26082 =
         0.17429   -0.07366   -0.00889    0.00922
AFIX  23
H1C1  6    0.515586    0.686267    0.897027    11.00000   -1.20000
H1C2  6    0.428614    0.715788    0.861463    11.00000   -1.20000
AFIX   0
CL1   4    0.445641    0.726246    0.999899    11.00000    0.07999    0.21966 =
         0.14675   -0.04703    0.00348    0.01413
CL2   4    0.400938    0.628285    0.903541    11.00000    0.13240    0.27219 =
         0.20740   -0.09851    0.01533   -0.00125
PART    1
C2CC  1    0.701737    0.397085    1.160096    61.00000    0.24280    0.15075 =
         0.11377    0.00197   -0.04733    0.00608
AFIX  23
H2C1  6    0.726153    0.407986    1.216132    61.00000   -1.20000
H2C2  6    0.660272    0.426184    1.140451    61.00000   -1.20000
AFIX   0
CL3   4    0.788310    0.391831    1.088145    61.00000    0.24280    0.15075 =
         0.11377    0.00197   -0.04733    0.00608
CL4   4    0.646537    0.333013    1.167521    61.00000    0.24280    0.15075 =
         0.11377    0.00197   -0.04733    0.00608
PART    2
C2C'  1    0.687401    0.342489    1.242361   -61.00000    0.24280    0.15075 =
         0.11377    0.00197   -0.04733    0.00608
AFIX  23
H2C3  6    0.627994    0.357970    1.236312   -61.00000   -1.20000
H2C4  6    0.708004    0.343922    1.301960   -61.00000   -1.20000
AFIX   0
CL3'  4    0.759950    0.377476    1.176642   -61.00000    0.24280    0.15075 =
         0.11377    0.00197   -0.04733    0.00608
CL4'  4    0.692222    0.273755    1.201295   -61.00000    0.24280    0.15075 =
         0.11377    0.00197   -0.04733    0.00608
PART    0
C4CC  1    0.822591    0.769367    0.718987    11.00000    0.09886    0.22813 =
         0.18561    0.00733    0.02894   -0.06211
AFIX  23
H4C1  6    0.875767    0.750488    0.701593    11.00000   -1.20000
H4C2  6    0.779863    0.740838    0.733928    11.00000   -1.20000
AFIX   0
CL7   4    0.848252    0.816035    0.809957    11.00000    0.38980    0.32553 =
         0.31576   -0.06117   -0.07184    0.00608
CL8   4    0.779034    0.812089    0.637091    11.00000    0.28274    0.24298 =
         0.22749    0.01251   -0.00858   -0.11782
C1    1    0.711705    0.536839    0.659692    11.00000    0.01938    0.03699 =
         0.04527    0.00498    0.00318    0.00417
PART    3
CL9   4    0.588221    0.865495    0.694160    30.50000    0.10679    0.09048 =
         0.14266   -0.02591    0.00659   -0.00519
CL10  4    0.581338    0.816384    0.858932    30.50000    0.10679    0.09048 =
         0.14266   -0.02591    0.00659   -0.00519
C5CC  1    0.523211    0.845516    0.774925    30.50000    0.10679    0.09048 =
         0.14266   -0.02591    0.00659   -0.00519
AFIX  23
H5C1  6    0.491539    0.878390    0.794536    30.50000   -1.20000
H5C2  6    0.479687    0.818357    0.752912    30.50000   -1.20000
AFIX   0
PART    4
CL9'  4    0.575183    0.873220    0.714352   -30.50000    0.10679    0.09048 =
         0.14266   -0.02591    0.00659   -0.00519
CL1A  4    0.456912    0.817911    0.814302   -30.50000    0.10679    0.09048 =
         0.14266   -0.02591    0.00659   -0.00519
C5C'  1    0.542424    0.864754    0.815949   -30.50000    0.10679    0.09048 =
         0.14266   -0.02591    0.00659   -0.00519
AFIX  23
H5C3  6    0.591302    0.850628    0.852350   -30.50000   -1.20000
H5C4  6    0.523716    0.900825    0.838554   -30.50000   -1.20000
AFIX   0
PART    0
C3    1    0.716248    0.455681    0.739495    11.00000    0.02731    0.03175 =
         0.04479    0.00536    0.00247   -0.00235
PART    5
CL11  4    0.669784    0.526426    0.312413    41.00000    0.15004    0.30376 =
         0.21732   -0.06632    0.02100    0.02134
C6CC  1    0.588318    0.477431    0.289519    41.00000    0.15004    0.30376 =
         0.21732   -0.06632    0.02100    0.02134
AFIX  23
H6C1  6    0.607356    0.440432    0.310076    41.00000   -1.20000
H6C2  6    0.534975    0.487725    0.317800    41.00000   -1.20000
AFIX   0
CL12  4    0.567465    0.475297    0.183438    41.00000    0.15004    0.30376 =
         0.21732   -0.06632    0.02100    0.02134
PART    6
CL1B  4    0.652167    0.502453    0.227827   -41.00000    0.15004    0.30376 =
         0.21732   -0.06632    0.02100    0.02134
C6C'  1    0.595541    0.526607    0.136644   -41.00000    0.15004    0.30376 =
         0.21732   -0.06632    0.02100    0.02134
AFIX  23
H6C3  6    0.607921    0.566296    0.126670   -41.00000   -1.20000
H6C4  6    0.610818    0.504849    0.086951   -41.00000   -1.20000
AFIX   0
CL1C  4    0.487138    0.516627    0.159146   -41.00000    0.15004    0.30376 =
         0.21732   -0.06632    0.02100    0.02134
PART    0
H5    6    0.945645    0.486249    0.663827    11.00000    0.05823
H7    6    0.907437    0.644637    0.635207    11.00000    0.05823
H6    6    0.874459    0.496718    0.588456    11.00000    0.05823
H8    6    0.828827    0.618587    0.680837    11.00000    0.05823
HKLF    4

REM  rasha-fc8 in P2(1)
REM R1 =  0.0862 for   10254 Fo > 4sig(Fo)  and  0.1029 for all   12508 data
REM   1301 parameters refined using   2232 restraints

END

WGHT      0.1700      0.0000

REM Highest difference peak  1.346,  deepest hole -0.918,  1-sigma level  0.128
Q1    1   1.2430  0.3332  0.9780  11.00000  0.05    1.35
Q2    1   1.2355  0.4585  0.6168  11.00000  0.05    1.17
Q3    1   1.2471  0.4582  0.7446  11.00000  0.05    1.12
Q4    1   0.8192  0.7561  0.7077  11.00000  0.05    1.07
Q5    1   0.6213  0.3969  0.5800  11.00000  0.05    1.05
Q6    1   0.6034  0.3896  0.9262  11.00000  0.05    1.03
Q7    1   0.9558  0.7350  0.3267  11.00000  0.05    1.02
Q8    1   0.9712  0.7353  0.4532  11.00000  0.05    0.99
Q9    1   0.4344  0.6247  1.0418  11.00000  0.05    0.99
Q10   1   0.5842  0.7077  0.2782  11.00000  0.05    0.96
Q11   1   1.1424  0.6671  1.0822  11.00000  0.05    0.93
Q12   1   0.6026  0.3983  0.4493  11.00000  0.05    0.87
Q13   1   0.5986  0.7071  0.4107  11.00000  0.05    0.87
Q14   1   1.1328  0.6683  0.9546  11.00000  0.05    0.85
Q15   1   1.2660  0.5526  0.4298  11.00000  0.05    0.85
Q16   1   0.4309  0.6619  0.9850  11.00000  0.05    0.85
Q17   1   1.2541  0.5549  0.3041  11.00000  0.05    0.83
Q18   1   0.5882  0.3883  0.7940  11.00000  0.05    0.82
Q19   1   0.4209  0.5734  1.0358  11.00000  0.05    0.81
Q20   1   0.8699  0.8198  0.7954  11.00000  0.05    0.78
Q21   1   0.6307  0.3987  1.1817  11.00000  0.05    0.67
Q22   1   0.5461  0.9599  0.8083  11.00000  0.05    0.63
Q23   1   0.8831  0.8725  0.8327  11.00000  0.05    0.62
Q24   1   0.7655  0.6116  1.0369  11.00000  0.05    0.60
Q25   1   0.7567  0.8221  0.6372  11.00000  0.05    0.53
Q26   1   0.6391  0.6795  0.3266  11.00000  0.05    0.53
Q27   1   0.4113  0.5025  0.1232  11.00000  0.05    0.53
Q28   1   1.2457  0.4616  0.5360  11.00000  0.05    0.48
Q29   1   0.9210  0.7596  0.3986  11.00000  0.05    0.48
Q30   1   0.5519  0.7376  0.3649  11.00000  0.05    0.47
Q31   1   1.2223  0.3882  0.6851  11.00000  0.05    0.47
Q32   1   1.0012  0.3838  1.0033  11.00000  0.05    0.47
Q33   1   0.6048  0.4072  0.6558  11.00000  0.05    0.45
Q34   1   1.0393  0.4309  1.0235  11.00000  0.05    0.44
Q35   1   1.2179  0.5820  0.3768  11.00000  0.05    0.44
Q36   1   0.5014  0.5410  0.1033  11.00000  0.05    0.43
Q37   1   1.1053  0.6389  1.0301  11.00000  0.05    0.42
Q38   1   0.9553  0.3690  1.0001  11.00000  0.05    0.42
Q39   1   0.4594  0.6390  0.8304  11.00000  0.05    0.42
Q40   1   0.7430  0.3893  0.5132  11.00000  0.05    0.42
Q41   1   1.2123  0.4175  1.1010  11.00000  0.05    0.41
Q42   1   1.2571  0.3762  0.6253  11.00000  0.05    0.41
Q43   1   1.0203  0.7519  0.5024  11.00000  0.05    0.41
Q44   1   0.6093  0.8170  0.8841  11.00000  0.05    0.40
Q45   1   0.9729  0.3525  0.9517  11.00000  0.05    0.40
Q46   1   1.2566  0.4088  1.0734  11.00000  0.05    0.40
Q47   1   0.4604  0.6506  0.7265  11.00000  0.05    0.40
Q48   1   0.8811  0.7623  0.4523  11.00000  0.05    0.39
Q49   1   0.6072  0.4968  0.2594  11.00000  0.05    0.39
Q50   1   0.6305  0.7323  0.3499  11.00000  0.05    0.38
Q51   1   0.5963  0.8558  0.6300  11.00000  0.05    0.38
Q52   1   0.4817  0.8145  0.2964  11.00000  0.05    0.38
Q53   1   0.6145  0.4635  0.6475  11.00000  0.05    0.38
Q54   1   1.3452  0.4610  0.8936  11.00000  0.05    0.37
Q55   1   1.1569  0.5209  0.7251  11.00000  0.05    0.37
Q56   1   1.2031  0.4108  0.5813  11.00000  0.05    0.36
Q57   1   0.4972  0.9214  0.7904  11.00000  0.05    0.36
Q58   1   0.9398  0.5226  0.4306  11.00000  0.05    0.36
Q59   1   0.5628  0.7756  0.3320  11.00000  0.05    0.36
Q60   1   0.4754  0.7633  0.6678  11.00000  0.05    0.36
Q61   1   1.3605  0.4702  0.8863  11.00000  0.05    0.36
Q62   1   1.2581  0.3736  0.7540  11.00000  0.05    0.36
Q63   1   0.7636  0.3829  0.7339  11.00000  0.05    0.36
Q64   1   1.2802  0.6338  0.3046  11.00000  0.05    0.35
Q65   1   0.6283  0.3301  0.5287  11.00000  0.05    0.35
Q66   1   0.6400  0.6025  0.2288  11.00000  0.05    0.35
Q67   1   0.6018  0.7024  1.0013  11.00000  0.05    0.35
Q68   1   0.5054  0.8109  0.8315  11.00000  0.05    0.35
Q69   1   0.5043  0.5304  0.6608  11.00000  0.05    0.35
Q70   1   0.6138  0.8617  0.8368  11.00000  0.05    0.35
Q71   1   0.9215  0.3331  0.9516  11.00000  0.05    0.35
Q72   1   0.9294  0.8043  0.3828  11.00000  0.05    0.35
Q73   1   1.1138  0.7336  1.0416  11.00000  0.05    0.35
Q74   1   0.9574  0.3383  0.8649  11.00000  0.05    0.35
Q75   1   1.2652  0.4527  1.1076  11.00000  0.05    0.35
Q76   1   0.5335  0.4285  0.7633  11.00000  0.05    0.35
Q77   1   0.7859  0.4730  0.2775  11.00000  0.05    0.35
Q78   1   1.1430  0.4093  0.3968  11.00000  0.05    0.34
Q79   1   1.0831  0.5519  0.4810  11.00000  0.05    0.34
Q80   1   1.1348  0.3911  0.9673  11.00000  0.05    0.34
Q81   1   0.6022  0.8757  0.8261  11.00000  0.05    0.34
Q82   1   1.2214  0.5338  0.6814  11.00000  0.05    0.34
Q83   1   0.4342  0.5463  0.1166  11.00000  0.05    0.34
Q84   1   1.1796  0.3830  0.7169  11.00000  0.05    0.34
Q85   1   0.4764  0.7062  0.6392  11.00000  0.05    0.34
Q86   1   1.1626  0.6695  0.2981  11.00000  0.05    0.34
Q87   1   0.4601  0.4303  1.0521  11.00000  0.05    0.34
Q88   1   0.5102  0.6980  0.3148  11.00000  0.05    0.34
Q89   1   0.8602  0.6709  0.3963  11.00000  0.05    0.33
Q90   1   1.3020  0.4697  0.3112  11.00000  0.05    0.33
Q91   1   0.6843  0.7892  1.0671  11.00000  0.05    0.33
Q92   1   0.7570  0.6200  0.7094  11.00000  0.05    0.33
Q93   1   0.6622  0.2990  0.3822  11.00000  0.05    0.33
Q94   1   0.8878  0.7527  0.3568  11.00000  0.05    0.33
Q95   1   0.6324  0.8456  0.7893  11.00000  0.05    0.33
Q96   1   0.4363  0.5305  0.0655  11.00000  0.05    0.33
Q97   1   1.0546  0.6129  0.9636  11.00000  0.05    0.33
Q98   1   0.8592  0.6517  0.6259  11.00000  0.05    0.33
Q99   1   0.7006  0.3425  0.9657  11.00000  0.05    0.33
Q100  1   1.0842  0.8045  0.8327  11.00000  0.05    0.33
Q101  1   0.9004  0.8170  0.3592  11.00000  0.05    0.33
Q102  1   0.5880  0.7062  0.6897  11.00000  0.05    0.33
Q103  1   1.0329  0.2973  0.8592  11.00000  0.05    0.33
Q104  1   0.9999  0.3418  0.7083  11.00000  0.05    0.33
Q105  1   1.1390  0.7523  0.2760  11.00000  0.05    0.33
Q106  1   0.6845  0.3976  0.4090  11.00000  0.05    0.33
Q107  1   0.9572  0.5515  0.3782  11.00000  0.05    0.33
Q108  1   0.7568  0.4572  1.2304  11.00000  0.05    0.33
Q109  1   1.2274  0.8518  0.6877  11.00000  0.05    0.33
Q110  1   0.9178  0.4751  0.3982  11.00000  0.05    0.32
Q111  1   0.6630  0.4263  0.9667  11.00000  0.05    0.32
Q112  1   1.0606  0.3601  0.9683  11.00000  0.05    0.32
Q113  1   0.6371  0.7377  0.3132  11.00000  0.05    0.32
Q114  1   0.8414  0.6791  0.6765  11.00000  0.05    0.32
Q115  1   1.1617  0.4374  1.0847  11.00000  0.05    0.32
Q116  1   1.1043  0.5437  0.7078  11.00000  0.05    0.32
Q117  1   0.9812  0.4381  0.9092  11.00000  0.05    0.32
Q118  1   0.8031  0.5493  0.9984  11.00000  0.05    0.32
Q119  1   1.3587  0.3787  0.9910  11.00000  0.05    0.32
Q120  1   1.1392  0.3462  0.6115  11.00000  0.05    0.32
Q121  1   0.6832  0.4129  0.4404  11.00000  0.05    0.32
Q122  1   0.5528  0.5780  0.2920  11.00000  0.05    0.32
Q123  1   1.2159  0.7117  0.6765  11.00000  0.05    0.32
Q124  1   1.3768  0.7406  0.5994  11.00000  0.05    0.32
Q125  1   0.7054  0.2688  0.7320  11.00000  0.05    0.32
Q126  1   0.7943  0.3397  0.7604  11.00000  0.05    0.32
Q127  1   1.2012  0.6895  0.7419  11.00000  0.05    0.32
Q128  1   0.4805  0.4147  0.4809  11.00000  0.05    0.32
Q129  1   0.7771  0.7393  0.4956  11.00000  0.05    0.32
Q130  1   1.1412  0.7999  0.3092  11.00000  0.05    0.32
Q131  1   0.9213  0.3526  0.3500  11.00000  0.05    0.32
Q132  1   0.8891  0.6442  0.6726  11.00000  0.05    0.31
Q133  1   0.5833  0.8076  0.9415  11.00000  0.05    0.31
Q134  1   0.5956  0.4399  1.0900  11.00000  0.05    0.31
Q135  1   1.0046  0.6153  0.9833  11.00000  0.05    0.31
Q136  1   0.5050  0.8896  0.6950  11.00000  0.05    0.31
Q137  1   1.1227  0.6818  0.3461  11.00000  0.05    0.31
Q138  1   0.8490  0.6110  0.3776  11.00000  0.05    0.31
Q139  1   0.7187  0.4580  0.6753  11.00000  0.05    0.31
Q140  1   1.3754  0.5833  0.2820  11.00000  0.05    0.31
Q141  1   0.5333  0.6809  0.2370  11.00000  0.05    0.31
Q142  1   1.3445  0.4734  1.0865  11.00000  0.05    0.31
Q143  1   0.8780  0.4118  0.6865  11.00000  0.05    0.31
Q144  1   0.9709  0.3293  0.4221  11.00000  0.05    0.31
Q145  1   0.5665  0.7946  0.6249  11.00000  0.05    0.31
Q146  1   0.6048  0.4788  0.6010  11.00000  0.05    0.31
Q147  1   1.1979  0.3803  0.5832  11.00000  0.05    0.31
Q148  1   1.3208  0.5193  0.4773  11.00000  0.05    0.31
Q149  1   0.4629  0.6815  0.6736  11.00000  0.05    0.31
Q150  1   0.4027  0.6067  0.6362  11.00000  0.05    0.31
Q151  1   1.0842  0.4928  0.7214  11.00000  0.05    0.31
Q152  1   1.1093  0.6756  0.6663  11.00000  0.05    0.30
Q153  1   1.0006  0.6217  0.7912  11.00000  0.05    0.30
Q154  1   1.3751  0.4413  1.1702  11.00000  0.05    0.30
Q155  1   1.0153  0.4569  0.9424  11.00000  0.05    0.30
Q156  1   0.8822  0.4405  0.6332  11.00000  0.05    0.30
Q157  1   0.7615  0.6153  0.9140  11.00000  0.05    0.30
Q158  1   1.0987  0.7459  0.3965  11.00000  0.05    0.30
Q159  1   1.0960  0.7068  0.3109  11.00000  0.05    0.30
Q160  1   1.4244  0.5091  0.5033  11.00000  0.05    0.30
Q161  1   0.6217  0.7902  0.6712  11.00000  0.05    0.30
Q162  1   0.9707  0.4679  1.0355  11.00000  0.05    0.30
Q163  1   1.1853  0.3818  0.9292  11.00000  0.05    0.30
Q164  1   1.0799  0.3283  1.0152  11.00000  0.05    0.30
Q165  1   1.0693  0.3862  0.9856  11.00000  0.05    0.30
Q166  1   1.2825  0.7488  0.6950  11.00000  0.05    0.30
Q167  1   1.1247  0.5341  0.3418  11.00000  0.05    0.30
Q168  1   0.7431  0.4014  0.7256  11.00000  0.05    0.30
Q169  1   0.8815  0.6930  0.9992  11.00000  0.05    0.30
Q170  1   0.9646  0.7133  0.6160  11.00000  0.05    0.30
Q171  1   0.9716  0.5498  0.6981  11.00000  0.05    0.30
Q172  1   1.2803  0.6397  0.4417  11.00000  0.05    0.30
Q173  1   1.2044  0.5225  0.6540  11.00000  0.05    0.30
Q174  1   0.5483  0.6015  0.3884  11.00000  0.05    0.30
Q175  1   0.6311  0.7813  0.6912  11.00000  0.05    0.29
Q176  1   0.6006  0.4314  0.7386  11.00000  0.05    0.29
Q177  1   0.7639  0.7357  1.0099  11.00000  0.05    0.29
Q178  1   0.6162  0.6177  0.3122  11.00000  0.05    0.29
Q179  1   1.1148  0.6801  0.4459  11.00000  0.05    0.29
Q180  1   1.1820  0.3858  0.5558  11.00000  0.05    0.29
Q181  1   1.3753  0.4554  0.7604  11.00000  0.05    0.29
Q182  1   1.0037  0.6021  0.5067  11.00000  0.05    0.29
Q183  1   1.1341  0.4093  0.6891  11.00000  0.05    0.29
Q184  1   1.2128  0.7525  0.9809  11.00000  0.05    0.29
Q185  1   0.8378  0.3918  0.2609  11.00000  0.05    0.29
Q186  1   0.6649  0.3175  0.4680  11.00000  0.05    0.29
Q187  1   0.6213  0.6315  0.3399  11.00000  0.05    0.29
Q188  1   1.3123  0.4479  0.7151  11.00000  0.05    0.29
Q189  1   0.7759  0.4184  1.3064  11.00000  0.05    0.29
Q190  1   1.1959  0.5918  0.2548  11.00000  0.05    0.29
Q191  1   0.8684  0.7844  0.9912  11.00000  0.05    0.29
Q192  1   0.9323  0.4605  0.7389  11.00000  0.05    0.29
Q193  1   0.7338  0.3630  1.1387  11.00000  0.05    0.29
Q194  1   1.2988  0.7501  0.6035  11.00000  0.05    0.29
Q195  1   0.8464  0.5901  0.3968  11.00000  0.05    0.29
Q196  1   1.3796  0.3614  1.0290  11.00000  0.05    0.29
Q197  1   1.2482  0.7512  0.7126  11.00000  0.05    0.29
Q198  1   0.9200  0.7237  0.6938  11.00000  0.05    0.29
Q199  1   1.1367  0.3494  0.6759  11.00000  0.05    0.29
Q200  1   0.9251  0.6160  0.6198  11.00000  0.05    0.28
Q201  1   0.8983  0.5119  0.9937  11.00000  0.05    0.28
Q202  1   0.5608  0.5624  0.3585  11.00000  0.05    0.28
Q203  1   0.5113  0.8066  0.9318  11.00000  0.05    0.28
Q204  1   0.9726  0.7260  0.6358  11.00000  0.05    0.28
Q205  1   0.9751  0.3237  0.7945  11.00000  0.05    0.28
Q206  1   0.7965  0.3626  0.6149  11.00000  0.05    0.28
Q207  1   0.3669  0.3079  0.9884  11.00000  0.05    0.28
Q208  1   0.5646  0.4538  0.9999  11.00000  0.05    0.28
Q209  1   1.2805  0.5541  0.2380  11.00000  0.05    0.28
Q210  1   0.9558  0.7357  0.5211  11.00000  0.05    0.28
Q211  1   0.7260  0.3989  1.3068  11.00000  0.05    0.28
Q212  1   0.5448  0.4136  0.6743  11.00000  0.05    0.28
Q213  1   0.8408  0.7369  0.3029  11.00000  0.05    0.28
Q214  1   0.7210  0.3608  0.4139  11.00000  0.05    0.28
Q215  1   1.0322  0.3265  0.3385  11.00000  0.05    0.28
Q216  1   1.2741  0.6774  0.6841  11.00000  0.05    0.28
Q217  1   0.7791  0.7081  0.2435  11.00000  0.05    0.28
Q218  1   0.9521  0.4297  0.8594  11.00000  0.05    0.28
Q219  1   0.6821  0.3454  0.7645  11.00000  0.05    0.28
Q220  1   0.8640  0.8007  0.3500  11.00000  0.05    0.28
Q221  1   0.8987  0.5326  0.9452  11.00000  0.05    0.28
Q222  1   1.0607  0.6543  0.4833  11.00000  0.05    0.28
Q223  1   1.1219  0.6773  0.7707  11.00000  0.05    0.28
Q224  1   0.5474  0.3706  0.5554  11.00000  0.05    0.28
Q225  1   0.3968  0.3969  0.9501  11.00000  0.05    0.28
Q226  1   0.3649  0.7137  0.6454  11.00000  0.05    0.28
Q227  1   0.9743  0.4577  0.3721  11.00000  0.05    0.28
Q228  1   0.7476  0.4982  0.9972  11.00000  0.05    0.28
Q229  1   0.9633  0.5509  0.4940  11.00000  0.05    0.28
Q230  1   0.6969  0.6922  0.5587  11.00000  0.05    0.28
Q231  1   1.2967  0.4406  0.6960  11.00000  0.05    0.27
Q232  1   1.1028  0.7556  0.4723  11.00000  0.05    0.27
Q233  1   0.7317  0.2292  1.2384  11.00000  0.05    0.27
Q234  1   0.6034  0.5395  0.8151  11.00000  0.05    0.27
Q235  1   1.1025  0.6910  0.4385  11.00000  0.05    0.27
Q236  1   1.1975  0.8934  0.6538  11.00000  0.05    0.27
Q237  1   1.4136  0.4740  0.5599  11.00000  0.05    0.27
Q238  1   1.0319  0.8086  0.3585  11.00000  0.05    0.27
Q239  1   1.0219  0.8001  0.5461  11.00000  0.05    0.27
Q240  1   0.9579  0.8620  0.3153  11.00000  0.05    0.27
Q241  1   0.6560  0.7793  0.3299  11.00000  0.05    0.27
Q242  1   1.3534  0.6298  0.3075  11.00000  0.05    0.27
Q243  1   0.5384  0.4554  0.0915  11.00000  0.05    0.27
Q244  1   0.9783  0.7838  0.6491  11.00000  0.05    0.27
Q245  1   0.8230  0.3279  0.9106  11.00000  0.05    0.27
Q246  1   0.4983  0.5258  0.3404  11.00000  0.05    0.27
Q247  1   1.1003  0.6309  0.4330  11.00000  0.05    0.27
Q248  1   0.7883  0.8523  0.8375  11.00000  0.05    0.27
Q249  1   1.0731  0.7886  0.5982  11.00000  0.05    0.27
Q250  1   1.4237  0.5157  0.3241  11.00000  0.05    0.27
Q251  1   0.5572  0.9300  0.8774  11.00000  0.05    0.27
Q252  1   1.3137  0.4207  0.7881  11.00000  0.05    0.27
Q253  1   1.0825  0.7124  0.4012  11.00000  0.05    0.27
Q254  1   0.8260  0.8086  0.2790  11.00000  0.05    0.27
Q255  1   0.6538  0.3342  0.7762  11.00000  0.05    0.27
Q256  1   0.4837  0.6139  0.9020  11.00000  0.05    0.27
Q257  1   0.3470  0.4246  0.5476  11.00000  0.05    0.27
Q258  1   1.0968  0.4349  1.0035  11.00000  0.05    0.27
Q259  1   0.6739  0.6815  0.9189  11.00000  0.05    0.27
Q260  1   0.6281  0.3935  0.3803  11.00000  0.05    0.26
Q261  1   1.1376  0.5313  0.4556  11.00000  0.05    0.26
Q262  1   0.6388  0.5261  0.0396  11.00000  0.05    0.26
Q263  1   1.3560  0.5051  0.7440  11.00000  0.05    0.26
Q264  1   0.9575  0.7592  0.7260  11.00000  0.05    0.26
Q265  1   0.9154  0.7561  0.6824  11.00000  0.05    0.26
Q266  1   0.8856  0.5906  0.3262  11.00000  0.05    0.26
Q267  1   0.6795  0.2462  1.2583  11.00000  0.05    0.26
Q268  1   0.7510  0.7024  1.0152  11.00000  0.05    0.26
Q269  1   1.2074  0.4090  0.9623  11.00000  0.05    0.26
Q270  1   1.2497  0.4646  0.3504  11.00000  0.05    0.26
Q271  1   0.5131  0.9351  0.7397  11.00000  0.05    0.26
Q272  1   1.0424  0.3780  0.2736  11.00000  0.05    0.26
Q273  1   0.4889  0.4764  0.3911  11.00000  0.05    0.26
Q274  1   0.7533  0.4386  0.9696  11.00000  0.05    0.26
Q275  1   0.9179  0.4698  0.5447  11.00000  0.05    0.26
Q276  1   0.7791  0.6121  0.8337  11.00000  0.05    0.26
Q277  1   1.3211  0.3360  0.6701  11.00000  0.05    0.26
Q278  1   0.9212  0.7680  0.1898  11.00000  0.05    0.26
Q279  1   0.8391  0.7372  0.5785  11.00000  0.05    0.26
Q280  1   0.6115  0.3495  0.6381  11.00000  0.05    0.26
Q281  1   1.3621  0.7165  1.1163  11.00000  0.05    0.26
Q282  1   1.3216  0.5765  0.3088  11.00000  0.05    0.26
Q283  1   0.7655  0.6523  0.6691  11.00000  0.05    0.26
Q284  1   0.5697  0.8480  0.8130  11.00000  0.05    0.26
Q285  1   0.4889  0.6991  0.7720  11.00000  0.05    0.26
Q286  1   0.8435  0.4760  0.1174  11.00000  0.05    0.26
Q287  1   0.8069  0.3160  0.8613  11.00000  0.05    0.26
Q288  1   0.9370  0.6624  0.3867  11.00000  0.05    0.26
Q289  1   1.4787  0.5740  0.3012  11.00000  0.05    0.26
Q290  1   1.0630  0.3614  1.0481  11.00000  0.05    0.26
Q291  1   1.0727  0.6186  0.7653  11.00000  0.05    0.26
Q292  1   0.6947  0.3187  1.1008  11.00000  0.05    0.26
Q293  1   0.7965  0.4997  0.1675  11.00000  0.05    0.26
Q294  1   0.8632  0.6775  0.2972  11.00000  0.05    0.26
Q295  1   0.5612  0.4513  0.8363  11.00000  0.05    0.26
Q296  1   0.4548  0.4584  0.9899  11.00000  0.05    0.26
Q297  1   0.8375  0.4817  1.0450  11.00000  0.05    0.26
Q298  1   0.7398  0.3200  0.7214  11.00000  0.05    0.26
Q299  1   0.7398  0.6067  0.6035  11.00000  0.05    0.25
Q300  1   0.5743  0.3303  0.5688  11.00000  0.05    0.25
Q301  1   1.1992  0.8017  0.7734  11.00000  0.05    0.25
Q302  1   0.9465  0.7203  0.7160  11.00000  0.05    0.25
Q303  1   0.8482  0.4815  0.7393  11.00000  0.05    0.25
Q304  1   0.9984  0.8788  0.4165  11.00000  0.05    0.25
Q305  1   0.5472  0.8059  0.4893  11.00000  0.05    0.25
Q306  1   1.2020  0.7628  0.6610  11.00000  0.05    0.25
Q307  1   0.5182  0.7306  0.2540  11.00000  0.05    0.25
Q308  1   0.6837  0.4184  0.3381  11.00000  0.05    0.25
Q309  1   0.5663  0.6705  0.3916  11.00000  0.05    0.25
Q310  1   1.4902  0.5255  0.5199  11.00000  0.05    0.25
Q311  1   1.0293  0.3930  1.0790  11.00000  0.05    0.25
Q312  1   0.9783  0.2965  0.7202  11.00000  0.05    0.25
Q313  1   0.7824  0.6419  0.9304  11.00000  0.05    0.25
Q314  1   1.0383  0.4860  1.0030  11.00000  0.05    0.25
Q315  1   1.0947  0.7581  0.3283  11.00000  0.05    0.25
Q316  1   0.8730  0.3098  0.8321  11.00000  0.05    0.25
Q317  1   0.9420  0.5752  0.9512  11.00000  0.05    0.25
Q318  1   1.2223  0.4767  0.4986  11.00000  0.05    0.25
Q319  1   1.3363  0.4833  1.1631  11.00000  0.05    0.25
Q320  1   1.2893  0.5210  0.3365  11.00000  0.05    0.25
Q321  1   0.4609  0.6299  0.6202  11.00000  0.05    0.25
Q322  1   0.5983  0.4692  0.5199  11.00000  0.05    0.25
Q323  1   0.7215  0.4569  0.6036  11.00000  0.05    0.25
Q324  1   0.4796  0.8479  0.4637  11.00000  0.05    0.25
Q325  1   0.5375  0.3985  0.4850  11.00000  0.05    0.25
Q326  1   1.2583  0.7586  0.5358  11.00000  0.05    0.25
Q327  1   0.5529  0.4604  0.9055  11.00000  0.05    0.25
Q328  1   0.5072  0.5502  0.6103  11.00000  0.05    0.25
Q329  1   1.0487  0.7297  0.4522  11.00000  0.05    0.25
Q330  1   1.2380  0.4599  0.8191  11.00000  0.05    0.25
Q331  1   1.2670  0.5429  0.7349  11.00000  0.05    0.25
Q332  1   1.0572  0.6597  0.9772  11.00000  0.05    0.25
Q333  1   1.0317  0.3703  0.3106  11.00000  0.05    0.25
Q334  1   0.7403  0.5830  0.7516  11.00000  0.05    0.25
Q335  1   0.6928  0.6165  1.0843  11.00000  0.05    0.25
Q336  1   0.6885  0.6017  0.6489  11.00000  0.05    0.25
Q337  1   1.1324  0.7402  0.3444  11.00000  0.05    0.25
Q338  1   1.0887  0.4595  1.0718  11.00000  0.05    0.25
Q339  1   0.9913  0.6501  0.4661  11.00000  0.05    0.24
Q340  1   1.1972  0.6903  0.3754  11.00000  0.05    0.24
Q341  1   0.7118  0.8204  0.7818  11.00000  0.05    0.24
Q342  1   0.9166  0.3940  0.8057  11.00000  0.05    0.24
Q343  1   1.1390  0.5584  0.2969  11.00000  0.05    0.24
Q344  1   0.8052  0.5831  0.7009  11.00000  0.05    0.24
Q345  1   1.2948  0.7165  0.2782  11.00000  0.05    0.24
Q346  1   0.9102  0.6679  0.2595  11.00000  0.05    0.24
Q347  1   0.6980  0.4469  0.9969  11.00000  0.05    0.24
Q348  1   0.5348  0.4809  0.3645  11.00000  0.05    0.24
Q349  1   0.8152  0.6730  1.2229  11.00000  0.05    0.24
Q350  1   0.6325  0.3934  1.0362  11.00000  0.05    0.24
Q351  1   0.6811  0.8850  0.7275  11.00000  0.05    0.24
Q352  1   0.5509  0.7629  0.8012  11.00000  0.05    0.24
Q353  1   1.4651  0.5792  0.5045  11.00000  0.05    0.24
Q354  1   1.0184  0.3899  0.7186  11.00000  0.05    0.24
Q355  1   1.2999  0.5257  0.5512  11.00000  0.05    0.24
Q356  1   0.4977  0.7615  0.2956  11.00000  0.05    0.24
Q357  1   0.8032  0.5712  0.6604  11.00000  0.05    0.24
Q358  1   0.8175  0.4378  0.2068  11.00000  0.05    0.24
Q359  1   0.9778  0.5033  1.0448  11.00000  0.05    0.24
Q360  1   0.5918  0.4211  0.2700  11.00000  0.05    0.24
Q361  1   0.7982  0.7169  0.9114  11.00000  0.05    0.24
Q362  1   1.2007  0.4815  0.2619  11.00000  0.05    0.24
Q363  1   0.5363  0.7377  0.2433  11.00000  0.05    0.24
Q364  1   0.4493  0.4282  0.5318  11.00000  0.05    0.24
Q365  1   0.7876  0.3796  0.6370  11.00000  0.05    0.24
Q366  1   0.7974  0.5875  0.9703  11.00000  0.05    0.24
Q367  1   0.6694  0.5000  0.9975  11.00000  0.05    0.24
Q368  1   1.3090  0.5201  0.6757  11.00000  0.05    0.24
Q369  1   1.1352  0.7724  0.3521  11.00000  0.05    0.24
Q370  1   0.9553  0.4100  0.9646  11.00000  0.05    0.24
Q371  1   0.6635  0.3172  0.8991  11.00000  0.05    0.24
Q372  1   1.1540  0.4542  0.4143  11.00000  0.05    0.24
Q373  1   0.7927  0.4843  0.9322  11.00000  0.05    0.24
Q374  1   0.7622  0.8209  0.3899  11.00000  0.05    0.24
Q375  1   0.6548  0.6657  1.0710  11.00000  0.05    0.24
Q376  1   0.4661  0.7453  0.9166  11.00000  0.05    0.24
Q377  1   0.9396  0.5622  0.2647  11.00000  0.05    0.24
Q378  1   1.1208  0.4119  0.2448  11.00000  0.05    0.24
Q379  1   0.5582  0.7164  0.6148  11.00000  0.05    0.24
Q380  1   0.3557  0.3426  0.8521  11.00000  0.05    0.24
Q381  1   0.6555  0.7139  0.4609  11.00000  0.05    0.24
Q382  1   0.8183  0.6989  0.5882  11.00000  0.05    0.23
Q383  1   0.8975  0.6242  1.0728  11.00000  0.05    0.23
Q384  1   1.2633  0.3404  1.1262  11.00000  0.05    0.23
Q385  1   1.3324  0.5109  0.6224  11.00000  0.05    0.23
Q386  1   1.3011  0.4375  0.6151  11.00000  0.05    0.23
Q387  1   0.8029  0.3872  0.4210  11.00000  0.05    0.23
Q388  1   0.4845  0.4756  1.0368  11.00000  0.05    0.23
Q389  1   1.2490  0.6885  0.5202  11.00000  0.05    0.23
Q390  1   0.4045  0.7116  0.6843  11.00000  0.05    0.23
Q391  1   1.2786  0.6819  1.0471  11.00000  0.05    0.23
Q392  1   1.1278  0.6609  1.1634  11.00000  0.05    0.23
Q393  1   0.4218  0.6409  0.2421  11.00000  0.05    0.23
Q394  1   0.9436  0.6187  0.4466  11.00000  0.05    0.23
Q395  1   0.8973  0.4002  0.6279  11.00000  0.05    0.23
Q396  1   0.4638  0.7070  1.1020  11.00000  0.05    0.23
Q397  1   0.9466  0.3090  0.9116  11.00000  0.05    0.23
Q398  1   0.8328  0.4380  0.7925  11.00000  0.05    0.23
Q399  1   1.1769  0.5550  0.3307  11.00000  0.05    0.23
Q400  1   1.3237  0.4778  0.2355  11.00000  0.05    0.23
Q401  1   0.4010  0.3498  0.9641  11.00000  0.05    0.23
Q402  1   1.1314  0.3118  0.9364  11.00000  0.05    0.23
Q403  1   0.7643  0.5405  0.6669  11.00000  0.05    0.23
Q404  1   0.9076  0.4597  0.8177  11.00000  0.05    0.23
Q405  1   1.0230  0.3851  0.3461  11.00000  0.05    0.23
Q406  1   0.5406  0.7180  0.7949  11.00000  0.05    0.23
Q407  1   1.0184  0.7478  0.5630  11.00000  0.05    0.23
Q408  1   1.2469  0.7400  0.5336  11.00000  0.05    0.23
Q409  1   0.6394  0.7540  0.4577  11.00000  0.05    0.23
Q410  1   0.5265  0.3087  0.8944  11.00000  0.05    0.23
Q411  1   1.3408  0.5970  0.2287  11.00000  0.05    0.23
Q412  1   0.6842  0.3095  0.7049  11.00000  0.05    0.23
Q413  1   0.9359  0.6566  0.6149  11.00000  0.05    0.23
Q414  1   0.4404  0.3217  1.0006  11.00000  0.05    0.23
Q415  1   1.1458  0.5527  0.6646  11.00000  0.05    0.23
Q416  1   0.7578  0.4410  0.5430  11.00000  0.05    0.23
Q417  1   0.6396  0.4623  0.5186  11.00000  0.05    0.23
Q418  1   0.4568  0.3843  0.8518  11.00000  0.05    0.23
Q419  1   0.7269  0.5787  0.3634  11.00000  0.05    0.23
Q420  1   0.6469  0.4252  0.4968  11.00000  0.05    0.23
Q421  1   0.9193  0.4738  0.6746  11.00000  0.05    0.23
Q422  1   0.9693  0.4301  0.6914  11.00000  0.05    0.23
Q423  1   1.2954  0.6477  0.6351  11.00000  0.05    0.22
Q424  1   1.1800  0.7422  0.4146  11.00000  0.05    0.22
Q425  1   0.7214  0.3967  0.6059  11.00000  0.05    0.22
Q426  1   0.7056  0.5446  0.8269  11.00000  0.05    0.22
Q427  1   0.5203  0.5928  0.5613  11.00000  0.05    0.22
Q428  1   0.6401  0.3278  1.2992  11.00000  0.05    0.22
Q429  1   0.8191  0.5849  1.0860  11.00000  0.05    0.22
Q430  1   0.5962  0.5701  0.3407  11.00000  0.05    0.22
Q431  1   0.4395  0.6759  0.1215  11.00000  0.05    0.22
Q432  1   1.1327  0.5601  0.6271  11.00000  0.05    0.22
Q433  1   0.4359  0.8337  0.7233  11.00000  0.05    0.22
Q434  1   0.7670  0.6204  1.1350  11.00000  0.05    0.22
Q435  1   1.1431  0.4092  0.5903  11.00000  0.05    0.22
Q436  1   1.1752  0.8025  0.5442  11.00000  0.05    0.22
Q437  1   0.5810  0.3959  1.0058  11.00000  0.05    0.22
Q438  1   0.3765  0.6845  0.6437  11.00000  0.05    0.22
Q439  1   0.8889  0.5200  0.3544  11.00000  0.05    0.22
Q440  1   1.2597  0.8137  0.6156  11.00000  0.05    0.22
Q441  1   0.6963  0.3322  0.9167  11.00000  0.05    0.22
Q442  1   1.1404  0.7899  0.5171  11.00000  0.05    0.22
Q443  1   1.3646  0.6568  0.3131  11.00000  0.05    0.22
Q444  1   0.8223  0.3855  1.0846  11.00000  0.05    0.22
Q445  1   1.1744  0.8111  0.3682  11.00000  0.05    0.22
Q446  1   0.9600  0.5113  0.6209  11.00000  0.05    0.22
Q447  1   1.1412  0.5493  0.4006  11.00000  0.05    0.22
Q448  1   0.6334  0.7513  0.6541  11.00000  0.05    0.22
Q449  1   0.7407  0.6583  0.6028  11.00000  0.05    0.22
Q450  1   0.9406  0.4295  0.3241  11.00000  0.05    0.22
Q451  1   0.6860  0.6500  0.2171  11.00000  0.05    0.22
Q452  1   0.6351  0.8978  0.6507  11.00000  0.05    0.22
Q453  1   0.8993  0.4742  0.4720  11.00000  0.05    0.22
Q454  1   0.8457  0.6797  0.5588  11.00000  0.05    0.22
Q455  1   0.6844  0.2795  1.2745  11.00000  0.05    0.22
Q456  1   0.8536  0.6619  1.0322  11.00000  0.05    0.22
Q457  1   1.0267  0.6322  0.5517  11.00000  0.05    0.22
Q458  1   0.7815  0.6179  0.6342  11.00000  0.05    0.22
Q459  1   0.8592  0.5041  0.6424  11.00000  0.05    0.22
Q460  1   0.6122  0.8298  0.4284  11.00000  0.05    0.22
Q461  1   0.7540  0.6883  0.3470  11.00000  0.05    0.22
Q462  1   0.8365  0.3495  0.6788  11.00000  0.05    0.22
Q463  1   0.6380  0.2521  0.6823  11.00000  0.05    0.22
Q464  1   0.8411  0.8624  0.5846  11.00000  0.05    0.22
Q465  1   0.8598  0.6793  0.8976  11.00000  0.05    0.21
Q466  1   0.9356  0.5444  0.8813  11.00000  0.05    0.21
Q467  1   0.9437  0.4611  0.6188  11.00000  0.05    0.21
Q468  1   1.3827  0.6670  0.3233  11.00000  0.05    0.21
Q469  1   1.0414  0.7141  0.8998  11.00000  0.05    0.21
Q470  1   0.8761  0.7068  0.9340  11.00000  0.05    0.21
Q471  1   0.9914  0.7689  0.1937  11.00000  0.05    0.21
Q472  1   1.3195  0.4497  0.5695  11.00000  0.05    0.21
Q473  1   0.8752  0.5853  0.6354  11.00000  0.05    0.21
Q474  1   1.2949  0.4200  0.2267  11.00000  0.05    0.21
Q475  1   0.4465  0.8432  0.8133  11.00000  0.05    0.21
Q476  1   1.0206  0.3906  0.5321  11.00000  0.05    0.21
Q477  1   1.2909  0.4332  0.8779  11.00000  0.05    0.21
Q478  1   0.3608  0.7381  0.9707  11.00000  0.05    0.21
Q479  1   0.3584  0.3314  0.9072  11.00000  0.05    0.21
Q480  1   0.7783  0.6739  1.0015  11.00000  0.05    0.21
Q481  1   1.3992  0.5115  0.7881  11.00000  0.05    0.21
Q482  1   0.4641  0.7681  0.4593  11.00000  0.05    0.21
Q483  1   0.5111  0.8898  0.8255  11.00000  0.05    0.21
Q484  1   0.7628  0.7295  0.3111  11.00000  0.05    0.21
Q485  1   0.7173  0.5424  0.7101  11.00000  0.05    0.21
Q486  1   0.9035  0.4216  0.9906  11.00000  0.05    0.21
Q487  1   1.0822  0.5996  0.6804  11.00000  0.05    0.21
Q488  1   0.5824  0.8305  0.2434  11.00000  0.05    0.21
Q489  1   0.7458  0.7785  1.1148  11.00000  0.05    0.21
Q490  1   0.6555  0.7371  0.5177  11.00000  0.05    0.21
Q491  1   1.1406  0.7817  1.1377  11.00000  0.05    0.21
Q492  1   0.7404  0.5287  1.1455  11.00000  0.05    0.21
Q493  1   1.3016  0.6219  0.9978  11.00000  0.05    0.21
Q494  1   0.7349  0.6267  0.3162  11.00000  0.05    0.21
Q495  1   0.3840  0.3453  0.4880  11.00000  0.05    0.21
Q496  1   1.1951  0.7062  0.9496  11.00000  0.05    0.21
Q497  1   0.9054  0.8189  0.2727  11.00000  0.05    0.21
Q498  1   1.0490  0.5791  0.5091  11.00000  0.05    0.21
Q499  1   1.3014  0.6520  0.9951  11.00000  0.05    0.21
Q500  1   0.4827  0.5619  0.7180  11.00000  0.05    0.21
Q501  1   0.8409  0.6833  0.9451  11.00000  0.05    0.21
Q502  1   0.9882  0.4602  0.4723  11.00000  0.05    0.21
Q503  1   0.3661  0.6679  0.6685  11.00000  0.05    0.21
Q504  1   1.1148  0.7947  0.7025  11.00000  0.05    0.21
Q505  1   0.5884  0.4709  0.9242  11.00000  0.05    0.21
Q506  1   1.0866  0.3221  0.8828  11.00000  0.05    0.21
Q507  1   1.1573  0.6708  0.8314  11.00000  0.05    0.21
Q508  1   1.3015  0.6573  1.0541  11.00000  0.05    0.21
Q509  1   1.1016  0.6805  0.8592  11.00000  0.05    0.20
Q510  1   0.5527  0.5130  0.3549  11.00000  0.05    0.20
Q511  1   0.8632  0.4906  0.5009  11.00000  0.05    0.20
Q512  1   1.3838  0.5586  0.5478  11.00000  0.05    0.20
Q513  1   1.1232  0.4419  0.4840  11.00000  0.05    0.20
Q514  1   1.1965  0.6112  0.9236  11.00000  0.05    0.20
Q515  1   0.4032  0.6680  0.2935  11.00000  0.05    0.20
Q516  1   0.8419  0.2992  0.7528  11.00000  0.05    0.20
Q517  1   0.6046  0.5014  1.0096  11.00000  0.05    0.20
Q518  1   1.2237  0.5536  0.7886  11.00000  0.05    0.20
Q519  1   1.4731  0.5023  0.6099  11.00000  0.05    0.20
Q520  1   0.5142  0.7725  0.9466  11.00000  0.05    0.20
Q521  1   0.6782  0.4802  0.7311  11.00000  0.05    0.20
Q522  1   1.2571  0.6692  0.7549  11.00000  0.05    0.20
Q523  1   0.7441  0.5301  0.8812  11.00000  0.05    0.20
Q524  1   0.6896  0.7413  0.7393  11.00000  0.05    0.20
Q525  1   0.9026  0.5106  0.8242  11.00000  0.05    0.20
Q526  1   1.2113  0.7824  0.2779  11.00000  0.05    0.20
Q527  1   0.8242  0.6431  0.5056  11.00000  0.05    0.20
Q528  1   1.0590  0.7174  0.9893  11.00000  0.05    0.20
Q529  1   1.3656  0.6232  1.0489  11.00000  0.05    0.20
Q530  1   1.2029  0.6884  0.6434  11.00000  0.05    0.20
Q531  1   0.6075  0.7881  0.5579  11.00000  0.05    0.20
Q532  1   1.0557  0.3608  0.7671  11.00000  0.05    0.20
Q533  1   0.5423  0.3444  0.7523  11.00000  0.05    0.20
Q534  1   1.2504  0.4388  0.4804  11.00000  0.05    0.20
Q535  1   0.8000  0.7101  0.4099  11.00000  0.05    0.20
Q536  1   1.0812  0.8535  0.6997  11.00000  0.05    0.20
Q537  1   1.3346  0.5620  0.6665  11.00000  0.05    0.20
Q538  1   0.7549  0.2698  0.5549  11.00000  0.05    0.20
Q539  1   1.0870  0.7784  1.0130  11.00000  0.05    0.20
Q540  1   0.7864  0.4323  0.4691  11.00000  0.05    0.20
Q541  1   0.6773  0.8442  0.6994  11.00000  0.05    0.20
Q542  1   0.7806  0.5210  0.5345  11.00000  0.05    0.20
Q543  1   0.8990  0.8817  0.7718  11.00000  0.05    0.20
Q544  1   0.3608  0.7003  0.7350  11.00000  0.05    0.20
Q545  1   1.1382  0.6726  0.8813  11.00000  0.05    0.20
Q546  1   0.6843  0.6711  1.0197  11.00000  0.05    0.20
Q547  1   1.2004  0.7663  1.1928  11.00000  0.05    0.20
Q548  1   0.8247  0.5583  0.9109  11.00000  0.05    0.20
Q549  1   0.5602  0.6343  0.3399  11.00000  0.05    0.20
Q550  1   1.1408  0.8664  0.5827  11.00000  0.05    0.20
Q551  1   0.3575  0.7303  1.0140  11.00000  0.05    0.20
Q552  1   0.6748  0.3917  0.5402  11.00000  0.05    0.20
Q553  1   1.3328  0.4294  0.6684  11.00000  0.05    0.20
Q554  1   0.8182  0.5817  0.9310  11.00000  0.05    0.20
Q555  1   0.5053  0.4500  0.4139  11.00000  0.05    0.20
Q556  1   0.5766  0.7420  0.2226  11.00000  0.05    0.20
Q557  1   1.3633  0.6886  0.5881  11.00000  0.05    0.20
Q558  1   1.2672  0.4248  0.3517  11.00000  0.05    0.20
Q559  1   0.3212  0.7010  0.7406  11.00000  0.05    0.20
Q560  1   0.4189  0.7937  1.0501  11.00000  0.05    0.20
Q561  1   0.7812  0.5309  0.2764  11.00000  0.05    0.19
Q562  1   0.3825  0.5672  0.7134  11.00000  0.05    0.19
Q563  1   0.7212  0.4050  0.8588  11.00000  0.05    0.19
Q564  1   0.8096  0.5407  1.1191  11.00000  0.05    0.19
Q565  1   1.2137  0.6830  0.2779  11.00000  0.05    0.19
Q566  1   0.6677  0.4201  0.6200  11.00000  0.05    0.19
Q567  1   0.9593  0.6898  0.1429  11.00000  0.05    0.19
Q568  1   0.4872  0.3972  0.3970  11.00000  0.05    0.19
Q569  1   0.8400  0.6253  0.9117  11.00000  0.05    0.19
Q570  1   1.2047  0.8189  0.6639  11.00000  0.05    0.19
Q571  1   0.5753  0.4218  0.9187  11.00000  0.05    0.19
Q572  1   0.6805  0.3051  1.2768  11.00000  0.05    0.19
Q573  1   1.0984  0.5626  0.3284  11.00000  0.05    0.19
Q574  1   1.3471  0.4632  0.4534  11.00000  0.05    0.19
Q575  1   0.4431  0.4490  0.6020  11.00000  0.05    0.19
Q576  1   0.5179  0.7192  0.4363  11.00000  0.05    0.19
Q577  1   0.9200  0.7256  0.2602  11.00000  0.05    0.19
Q578  1   0.3411  0.6741  0.9458  11.00000  0.05    0.19
Q579  1   0.5689  0.6095  1.0497  11.00000  0.05    0.19
Q580  1   0.8635  0.6277  0.7446  11.00000  0.05    0.19
Q581  1   1.2821  0.4143  0.3537  11.00000  0.05    0.19
Q582  1   0.8526  0.5395  0.3252  11.00000  0.05    0.19
Q583  1   0.5989  0.6134  0.5723  11.00000  0.05    0.19
Q584  1   0.5719  0.6701  0.5567  11.00000  0.05    0.19
Q585  1   0.7084  0.4074  0.7681  11.00000  0.05    0.19
Q586  1   0.6715  0.5790  0.1204  11.00000  0.05    0.19
Q587  1   1.0907  0.8012  0.5582  11.00000  0.05    0.19
Q588  1   1.0398  0.6912  0.4684  11.00000  0.05    0.19
Q589  1   0.5946  0.3465  1.2570  11.00000  0.05    0.19
Q590  1   0.7113  0.6785  0.7451  11.00000  0.05    0.19
Q591  1   0.5037  0.3490  0.7163  11.00000  0.05    0.19
Q592  1   1.2332  0.6102  1.1244  11.00000  0.05    0.19
Q593  1   1.1939  0.7402  1.0910  11.00000  0.05    0.19
Q594  1   0.7419  0.2987  0.5494  11.00000  0.05    0.19
Q595  1   0.9213  0.5162  0.8390  11.00000  0.05    0.19
Q596  1   1.1625  0.5675  0.5195  11.00000  0.05    0.19
Q597  1   0.9577  0.2499  0.9195  11.00000  0.05    0.19
Q598  1   0.8642  0.4976  0.8330  11.00000  0.05    0.19
Q599  1   0.5804  0.6475  0.3002  11.00000  0.05    0.19
Q600  1   0.5309  0.7109  0.4738  11.00000  0.05    0.19
Q601  1   1.1854  0.6167  0.4536  11.00000  0.05    0.19
Q602  1   0.7192  0.6149  0.2448  11.00000  0.05    0.19
Q603  1   0.7442  0.4537  0.7961  11.00000  0.05    0.19
Q604  1   0.5022  0.2679  0.8827  11.00000  0.05    0.19
Q605  1   0.5429  0.7589  0.9066  11.00000  0.05    0.19
Q606  1   0.8412  0.5065  0.4783  11.00000  0.05    0.19
Q607  1   0.7999  0.5069  0.7006  11.00000  0.05    0.19
Q608  1   0.4681  0.6098  0.7686  11.00000  0.05    0.19
Q609  1   1.2682  0.7788  0.6744  11.00000  0.05    0.19
Q610  1   0.8812  0.5231  0.2883  11.00000  0.05    0.19
Q611  1   0.7581  0.6686  0.7546  11.00000  0.05    0.19
Q612  1   0.6953  0.6362  0.7574  11.00000  0.05    0.19
Q613  1   0.3764  0.7073  0.7517  11.00000  0.05    0.19
Q614  1   1.1438  0.4421  0.3197  11.00000  0.05    0.18
Q615  1   0.9983  0.7205  0.2042  11.00000  0.05    0.18
Q616  1   1.4448  0.6129  0.2797  11.00000  0.05    0.18
Q617  1   0.8376  0.5958  0.8406  11.00000  0.05    0.18
Q618  1   1.2619  0.7142  0.6346  11.00000  0.05    0.18
Q619  1   0.7188  0.4220  0.9128  11.00000  0.05    0.18
Q620  1   0.6456  0.5996  1.0501  11.00000  0.05    0.18
Q621  1   0.9454  0.7125  0.1999  11.00000  0.05    0.18
Q622  1   0.7640  0.4183  0.3741  11.00000  0.05    0.18
Q623  1   0.6652  0.3738  1.0505  11.00000  0.05    0.18
Q624  1   1.2283  0.6029  0.7023  11.00000  0.05    0.18
Q625  1   0.8168  0.3181  0.5154  11.00000  0.05    0.18
Q626  1   0.8457  0.7411  0.3711  11.00000  0.05    0.18
Q627  1   0.6405  0.7735  0.9816  11.00000  0.05    0.18
Q628  1   0.5092  0.8261  0.6517  11.00000  0.05    0.18
Q629  1   0.8290  0.6250  0.2710  11.00000  0.05    0.18
Q630  1   1.2585  0.5450  0.6251  11.00000  0.05    0.18
Q631  1   1.3460  0.5472  0.3198  11.00000  0.05    0.18
Q632  1   1.0397  0.8666  0.3461  11.00000  0.05    0.18
Q633  1   0.9665  0.7103  1.0281  11.00000  0.05    0.18
Q634  1   1.0411  0.4627  0.7607  11.00000  0.05    0.18
Q635  1   0.7939  0.6461  1.1540  11.00000  0.05    0.18
Q636  1   1.1631  0.7450  0.9658  11.00000  0.05    0.18
Q637  1   0.9861  0.6673  1.0117  11.00000  0.05    0.18
Q638  1   0.5441  0.5377  0.8527  11.00000  0.05    0.18
Q639  1   1.2310  0.7004  0.6069  11.00000  0.05    0.18
Q640  1   1.0070  0.6208  1.2002  11.00000  0.05    0.18
Q641  1   0.8378  0.6960  1.1319  11.00000  0.05    0.18
Q642  1   0.7769  0.7897  0.4943  11.00000  0.05    0.18
Q643  1   0.7392  0.7619  0.9847  11.00000  0.05    0.18
Q644  1   1.1585  0.8299  1.0181  11.00000  0.05    0.18
Q645  1   0.6553  0.7524  0.3999  11.00000  0.05    0.18
Q646  1   1.2210  0.5381  0.9973  11.00000  0.05    0.18
Q647  1   0.6775  0.7555  1.0093  11.00000  0.05    0.18
Q648  1   1.0027  0.4909  0.8997  11.00000  0.05    0.18
Q649  1   0.7193  0.4924  0.8463  11.00000  0.05    0.18
Q650  1   0.5425  0.4287  0.9475  11.00000  0.05    0.18
Q651  1   1.2389  0.5467  0.5062  11.00000  0.05    0.18
Q652  1   0.9810  0.6444  0.3460  11.00000  0.05    0.18
Q653  1   1.3241  0.6211  0.5012  11.00000  0.05    0.18
Q654  1   1.1581  0.3492  0.7650  11.00000  0.05    0.18
Q655  1   1.3173  0.4035  0.8995  11.00000  0.05    0.18
Q656  1   0.5630  0.5406  0.9868  11.00000  0.05    0.18
Q657  1   0.7567  0.8634  0.7464  11.00000  0.05    0.18
Q658  1   0.8216  0.7064  0.5386  11.00000  0.05    0.18
Q659  1   1.3846  0.3103  0.6915  11.00000  0.05    0.18
Q660  1   0.6623  0.7183  1.0286  11.00000  0.05    0.18
Q661  1   0.5239  0.2547  0.4119  11.00000  0.05    0.18
Q662  1   0.4203  0.2945  0.9508  11.00000  0.05    0.18
Q663  1   1.2389  0.3976  0.4422  11.00000  0.05    0.18
Q664  1   0.4174  0.4332  0.8931  11.00000  0.05    0.18
Q665  1   0.8572  0.7438  0.1584  11.00000  0.05    0.18
Q666  1   0.8407  0.4537  0.5229  11.00000  0.05    0.18
Q667  1   0.6766  0.5051  0.6591  11.00000  0.05    0.18
Q668  1   1.1572  0.7831  0.4323  11.00000  0.05    0.18
Q669  1   1.0186  0.7460  0.7690  11.00000  0.05    0.18
Q670  1   0.4437  0.6554  0.6081  11.00000  0.05    0.18
Q671  1   0.5577  0.3491  1.0655  11.00000  0.05    0.18
Q672  1   1.1683  0.6249  0.7566  11.00000  0.05    0.18
Q673  1   0.7370  0.5933  1.1673  11.00000  0.05    0.18
Q674  1   0.9590  0.7329  0.2414  11.00000  0.05    0.18
Q675  1   1.2631  0.4178  0.2613  11.00000  0.05    0.18
Q676  1   0.5050  0.2610  0.4006  11.00000  0.05    0.18
Q677  1   0.8160  0.4585  0.4444  11.00000  0.05    0.18
Q678  1   0.7052  0.3332  0.5477  11.00000  0.05    0.18
Q679  1   0.6306  0.2794  0.7524  11.00000  0.05    0.18
Q680  1   0.9858  0.6608  0.8084  11.00000  0.05    0.17
Q681  1   1.1610  0.3458  0.5176  11.00000  0.05    0.17
Q682  1   0.9634  0.4240  0.2595  11.00000  0.05    0.17
Q683  1   0.4387  0.3560  0.5322  11.00000  0.05    0.17
Q684  1   0.3601  0.4311  0.8279  11.00000  0.05    0.17
Q685  1   1.3588  0.4987  0.5883  11.00000  0.05    0.17
Q686  1   1.1599  0.4966  0.5860  11.00000  0.05    0.17
Q687  1   0.6212  0.4776  0.9027  11.00000  0.05    0.17
Q688  1   0.3735  0.4372  0.5252  11.00000  0.05    0.17
Q689  1   0.7402  0.5919  0.3103  11.00000  0.05    0.17
Q690  1   0.6728  0.5711  0.8690  11.00000  0.05    0.17
Q691  1   0.7268  0.7292  0.6464  11.00000  0.05    0.17
Q692  1   1.1401  0.6204  0.5254  11.00000  0.05    0.17
Q693  1   1.3125  0.3909  0.6175  11.00000  0.05    0.17
Q694  1   1.1130  0.3719  1.0318  11.00000  0.05    0.17
Q695  1   0.7018  0.3118  1.0373  11.00000  0.05    0.17
Q696  1   1.0156  0.5791  0.4351  11.00000  0.05    0.17
Q697  1   1.3871  0.5779  0.4828  11.00000  0.05    0.17
Q698  1   0.7981  0.5816  1.1482  11.00000  0.05    0.17
Q699  1   1.1814  0.5377  0.4313  11.00000  0.05    0.17
Q700  1   0.6845  0.5155  0.2381  11.00000  0.05    0.17
Q701  1   0.7630  0.4955  0.5681  11.00000  0.05    0.17
Q702  1   1.0021  0.6703  0.4071  11.00000  0.05    0.17
Q703  1   0.8056  0.5019  0.8175  11.00000  0.05    0.17
Q704  1   1.0214  0.6085  0.6313  11.00000  0.05    0.17
Q705  1   1.1036  0.5173  1.1219  11.00000  0.05    0.17
Q706  1   0.9468  0.5266  0.5741  11.00000  0.05    0.17
Q707  1   0.6999  0.4678  0.3641  11.00000  0.05    0.17
Q708  1   0.6673  0.7035  0.2306  11.00000  0.05    0.17
Q709  1   0.5552  0.4500  0.2791  11.00000  0.05    0.17
Q710  1   0.8325  0.6466  1.0867  11.00000  0.05    0.17
Q711  1   0.8816  0.6151  0.9620  11.00000  0.05    0.17
Q712  1   0.7124  0.4194  1.0992  11.00000  0.05    0.17
Q713  1   1.0334  0.7278  0.6740  11.00000  0.05    0.17
Q714  1   0.7223  0.6508  0.3935  11.00000  0.05    0.17
Q715  1   1.3352  0.3823  0.9213  11.00000  0.05    0.17
Q716  1   0.7196  0.4783  0.3734  11.00000  0.05    0.17
Q717  1   0.3948  0.6351  0.5761  11.00000  0.05    0.17
Q718  1   1.4217  0.5345  0.2228  11.00000  0.05    0.17
Q719  1   1.1365  0.8626  0.6915  11.00000  0.05    0.17
Q720  1   0.4643  0.4782  0.3354  11.00000  0.05    0.17
Q721  1   1.1806  0.4367  0.7425  11.00000  0.05    0.17
Q722  1   1.1343  0.6160  0.3183  11.00000  0.05    0.17
Q723  1   1.4020  0.5196  0.6634  11.00000  0.05    0.17
Q724  1   0.7590  0.5281  0.3433  11.00000  0.05    0.17
Q725  1   0.6575  0.3279  0.6735  11.00000  0.05    0.17
Q726  1   1.3166  0.4379  0.2403  11.00000  0.05    0.17
Q727  1   0.4351  0.4308  0.3661  11.00000  0.05    0.17
Q728  1   0.6130  0.3529  1.0965  11.00000  0.05    0.17
Q729  1   0.4754  0.6288  0.2197  11.00000  0.05    0.17
Q730  1   0.4223  0.7410  0.3779  11.00000  0.05    0.17
Q731  1   0.5727  0.2797  0.5337  11.00000  0.05    0.17
Q732  1   0.5651  0.7913  0.2458  11.00000  0.05    0.17
Q733  1   1.2502  0.5998  0.6563  11.00000  0.05    0.17
Q734  1   1.0189  0.5096  0.6741  11.00000  0.05    0.17
Q735  1   0.6176  0.7303  0.9404  11.00000  0.05    0.17
Q736  1   1.0591  0.4419  1.1547  11.00000  0.05    0.17
Q737  1   0.4069  0.4125  0.7868  11.00000  0.05    0.17
Q738  1   1.1515  0.6396  1.2343  11.00000  0.05    0.17
Q739  1   0.6002  0.3116  0.6070  11.00000  0.05    0.16
Q740  1   1.2233  0.5291  0.3752  11.00000  0.05    0.16
Q741  1   0.5362  0.4020  0.3953  11.00000  0.05    0.16
Q742  1   1.2230  0.6254  0.2495  11.00000  0.05    0.16
Q743  1   1.2261  0.5048  0.5736  11.00000  0.05    0.16
Q744  1   1.3776  0.5133  0.9484  11.00000  0.05    0.16
Q745  1   1.0790  0.7254  0.6154  11.00000  0.05    0.16
Q746  1   0.9972  0.2749  0.9145  11.00000  0.05    0.16
Q747  1   0.7916  0.5069  0.5209  11.00000  0.05    0.16
Q748  1   0.7244  0.2606  0.9709  11.00000  0.05    0.16
Q749  1   0.4159  0.7018  0.4671  11.00000  0.05    0.16
Q750  1   1.3139  0.6912  0.9686  11.00000  0.05    0.16
Q751  1   1.1355  0.6028  1.0195  11.00000  0.05    0.16
Q752  1   0.9170  0.2717  0.8453  11.00000  0.05    0.16
Q753  1   1.3987  0.5622  0.5039  11.00000  0.05    0.16
Q754  1   0.9413  0.5939  0.5324  11.00000  0.05    0.16
Q755  1   0.7397  0.3774  1.0127  11.00000  0.05    0.16
Q756  1   0.4164  0.3535  0.9174  11.00000  0.05    0.16
Q757  1   0.5747  0.6805  0.1311  11.00000  0.05    0.16
Q758  1   0.8204  0.7162  1.1492  11.00000  0.05    0.16
Q759  1   1.3338  0.7789  0.9406  11.00000  0.05    0.16
Q760  1   1.1498  0.4121  0.8042  11.00000  0.05    0.16
Q761  1   0.4350  0.3735  0.6986  11.00000  0.05    0.16
Q762  1   0.7944  0.7601  0.2427  11.00000  0.05    0.16
Q763  1   0.6353  0.2518  0.8925  11.00000  0.05    0.16
Q764  1   0.6711  0.4651  0.4320  11.00000  0.05    0.16
Q765  1   1.2765  0.3053  0.6846  11.00000  0.05    0.16
Q766  1   0.6156  0.4888  0.7540  11.00000  0.05    0.16
Q767  1   1.3614  0.5380  0.9444  11.00000  0.05    0.16
Q768  1   0.6503  0.5898  0.9431  11.00000  0.05    0.16
Q769  1   0.9855  0.6016  0.2449  11.00000  0.05    0.16
Q770  1   1.1433  0.5833  0.4621  11.00000  0.05    0.16
Q771  1   1.3178  0.6922  0.9940  11.00000  0.05    0.16
Q772  1   0.5503  0.3624  0.4186  11.00000  0.05    0.16
Q773  1   1.1102  0.7420  0.9088  11.00000  0.05    0.16
Q774  1   1.2252  0.4817  0.8643  11.00000  0.05    0.16
Q775  1   0.7461  0.5308  1.0752  11.00000  0.05    0.16
Q776  1   0.8508  0.3504  0.4903  11.00000  0.05    0.16
Q777  1   1.3335  0.3955  0.7134  11.00000  0.05    0.16
Q778  1   1.3391  0.5920  0.7740  11.00000  0.05    0.16
Q779  1   0.4032  0.6502  0.7244  11.00000  0.05    0.16
Q780  1   0.9520  0.5131  0.5187  11.00000  0.05    0.16
Q781  1   1.0564  0.5490  0.8673  11.00000  0.05    0.16
Q782  1   1.1208  0.3834  0.3466  11.00000  0.05    0.16
Q783  1   1.0585  0.8476  0.3937  11.00000  0.05    0.16
Q784  1   0.4634  0.7310  0.4369  11.00000  0.05    0.16
Q785  1   0.7057  0.7308  0.6925  11.00000  0.05    0.16
Q786  1   0.4827  0.7008  0.1696  11.00000  0.05    0.15
Q787  1   0.3952  0.7906  0.7688  11.00000  0.05    0.15
Q788  1   0.9682  0.3689  0.7782  11.00000  0.05    0.15
Q789  1   0.8957  0.7622  0.8827  11.00000  0.05    0.15
Q790  1   1.1554  0.4653  0.6380  11.00000  0.05    0.15
Q791  1   0.6441  0.5850  0.0713  11.00000  0.05    0.15
Q792  1   0.5157  0.4318  0.3479  11.00000  0.05    0.15
Q793  1   0.7748  0.4169  0.6799  11.00000  0.05    0.15
Q794  1   1.3172  0.5384  0.3811  11.00000  0.05    0.15
Q795  1   0.6677  0.3582  0.6178  11.00000  0.05    0.15
Q796  1   0.8938  0.6020  0.7955  11.00000  0.05    0.15
Q797  1   1.0182  0.6034  0.7255  11.00000  0.05    0.15
Q798  1   0.6400  0.4628  1.0126  11.00000  0.05    0.15
Q799  1   0.4471  0.7284  0.1447  11.00000  0.05    0.15
Q800  1   0.7189  0.4859  0.3025  11.00000  0.05    0.15
;
_shelx_res_checksum              8737
loop_
_space_group_symop_operation_xyz
'x, y, z'
'-x, y+1/2, -z'
loop_
_atom_site_label
_atom_site_type_symbol
_atom_site_fract_x
_atom_site_fract_y
_atom_site_fract_z
_atom_site_U_iso_or_equiv
_atom_site_adp_type
_atom_site_occupancy
_atom_site_site_symmetry_order
_atom_site_calc_flag
_atom_site_refinement_flags_posn
_atom_site_refinement_flags_adp
_atom_site_refinement_flags_occupancy
_atom_site_disorder_assembly
_atom_site_disorder_group
C4 C 0.7866(7) 0.4962(6) 0.7651(8) 0.034(2) Uani 1 1 d . U . . .
C6 C 0.9274(7) 0.5398(6) 0.8191(8) 0.031(2) Uani 1 1 d . U . . .
C7 C 0.9415(7) 0.5817(6) 0.8875(7) 0.034(2) Uani 1 1 d D U . . .
C8 C 1.0106(8) 0.6146(6) 0.8617(9) 0.039(3) Uani 1 1 d . U . . .
C9 C 1.0291(7) 0.5950(6) 0.7759(8) 0.033(2) Uani 1 1 d . U . . .
C11 C 1.0695(7) 0.5913(5) 0.6257(8) 0.031(2) Uani 1 1 d . U . . .
C12 C 1.1380(7) 0.5561(5) 0.5854(8) 0.030(2) Uani 1 1 d . U . . .
C13 C 1.1085(7) 0.5489(5) 0.5056(8) 0.031(2) Uani 1 1 d . U . . .
C14 C 1.0165(7) 0.5714(6) 0.4999(8) 0.033(2) Uani 1 1 d . U . . .
C16 C 0.8591(7) 0.5874(5) 0.4676(8) 0.033(2) Uani 1 1 d . U . . .
C17 C 0.8206(7) 0.6417(5) 0.4342(8) 0.032(2) Uani 1 1 d . U . . .
C18 C 0.7367(7) 0.6435(6) 0.4733(8) 0.034(2) Uani 1 1 d . U . . .
C19 C 0.7360(7) 0.5952(6) 0.5316(8) 0.034(2) Uani 1 1 d . U . . .
C21 C 0.9070(5) 0.4354(3) 0.8378(5) 0.036(2) Uani 1 1 d G U . . .
C22 C 0.9016(5) 0.3890(4) 0.7832(4) 0.040(3) Uani 1 1 d G U . . .
H22 H 0.8695 0.3916 0.7312 0.048 Uiso 1 1 calc R U . . .
C23 C 0.9443(6) 0.3388(3) 0.8064(6) 0.046(3) Uani 1 1 d G U . . .
H23 H 0.9407 0.3077 0.7698 0.055 Uiso 1 1 calc R U . . .
C24 C 0.9923(6) 0.3349(3) 0.8841(6) 0.054(3) Uani 1 1 d G U . . .
H24 H 1.0208 0.3013 0.8996 0.065 Uiso 1 1 calc R U . . .
C25 C 0.9977(6) 0.3813(4) 0.9387(5) 0.050(3) Uani 1 1 d G U . . .
H25 H 1.0298 0.3788 0.9908 0.060 Uiso 1 1 calc R U . . .
C26 C 0.9551(6) 0.4316(3) 0.9156(5) 0.048(3) Uani 1 1 d G U . . .
H26 H 0.9587 0.4626 0.9521 0.058 Uiso 1 1 calc R U . . .
C10 C 1.0739(7) 0.6198(5) 0.7120(8) 0.032(2) Uani 1 1 d . U . . .
C27 C 1.1117(5) 0.6770(3) 0.7082(6) 0.032(2) Uani 1 1 d G U . . .
C28 C 1.0614(4) 0.7226(3) 0.7342(6) 0.041(3) Uani 1 1 d G U . . .
H28 H 1.0075 0.7163 0.7586 0.049 Uiso 1 1 calc R U . . .
C29 C 1.0919(6) 0.7775(3) 0.7237(8) 0.063(4) Uani 1 1 d G U . . .
H29 H 1.0583 0.8080 0.7411 0.076 Uiso 1 1 calc R U . . .
C30 C 1.1726(7) 0.7869(3) 0.6873(9) 0.075(6) Uani 1 1 d G U . . .
H30 H 1.1930 0.8237 0.6803 0.090 Uiso 1 1 calc R U . . .
C31 C 1.2229(5) 0.7413(4) 0.6613(7) 0.058(4) Uani 1 1 d G U . . .
H31 H 1.2769 0.7476 0.6369 0.070 Uiso 1 1 calc R U . . .
C32 C 1.1924(5) 0.6863(3) 0.6718(6) 0.044(3) Uani 1 1 d G U . . .
H32 H 1.2260 0.6558 0.6544 0.053 Uiso 1 1 calc R U . . .
C15 C 0.9438(7) 0.5604(5) 0.4467(8) 0.033(2) Uani 1 1 d . U . . .
C33 C 0.9384(6) 0.5146(3) 0.3806(5) 0.038(2) Uani 1 1 d G U . . .
C34 C 0.9741(6) 0.4618(4) 0.4014(5) 0.040(3) Uani 1 1 d G U . . .
H34 H 0.9987 0.4552 0.4561 0.048 Uiso 1 1 calc R U . . .
C35 C 0.9731(8) 0.4190(3) 0.3405(6) 0.062(4) Uani 1 1 d G U . . .
H35 H 0.9970 0.3837 0.3545 0.075 Uiso 1 1 calc R U . . .
C36 C 0.9364(9) 0.4289(4) 0.2588(6) 0.074(5) Uani 1 1 d G U . . .
H36 H 0.9357 0.4002 0.2180 0.088 Uiso 1 1 calc R U . . .
C37 C 0.9006(9) 0.4816(4) 0.2380(5) 0.079(6) Uani 1 1 d G U . . .
H37 H 0.8761 0.4883 0.1833 0.094 Uiso 1 1 calc R U . . .
C38 C 0.9016(7) 0.5245(3) 0.2989(6) 0.049(3) Uani 1 1 d G U . . .
H38 H 0.8777 0.5598 0.2849 0.058 Uiso 1 1 calc R U . . .
C20 C 0.6849(7) 0.5845(6) 0.5993(8) 0.034(2) Uani 1 1 d . U . . .
C39 C 0.6127(4) 0.6215(3) 0.6312(6) 0.038(2) Uani 1 1 d G U . . .
C40 C 0.5294(5) 0.5991(3) 0.6445(6) 0.039(3) Uani 1 1 d G U . . .
H40 H 0.5183 0.5609 0.6345 0.047 Uiso 1 1 calc R U . . .
C41 C 0.4627(4) 0.6340(4) 0.6727(6) 0.045(3) Uani 1 1 d G U . . .
H41 H 0.4070 0.6190 0.6815 0.055 Uiso 1 1 calc R U . . .
C42 C 0.4793(5) 0.6911(3) 0.6876(6) 0.047(3) Uani 1 1 d G U . . .
H42 H 0.4347 0.7144 0.7065 0.056 Uiso 1 1 calc R U . . .
C43 C 0.5626(5) 0.7134(3) 0.6743(6) 0.046(3) Uani 1 1 d G U . . .
H43 H 0.5737 0.7516 0.6843 0.055 Uiso 1 1 calc R U . . .
C44 C 0.6293(4) 0.6786(3) 0.6461(6) 0.044(3) Uani 1 1 d G U . . .
H44 H 0.6850 0.6935 0.6372 0.053 Uiso 1 1 calc R U . . .
N1 N 0.7752(6) 0.5480(5) 0.7173(6) 0.031(2) Uani 1 1 d D U . . .
C45 C 0.6024(5) 0.4590(4) 0.6054(5) 0.038(2) Uani 1 1 d G U . . .
C46 C 0.5371(5) 0.4167(4) 0.6165(5) 0.034(2) Uani 1 1 d G U . . .
H46 H 0.5313 0.3947 0.6651 0.041 Uiso 1 1 calc R U . . .
C47 C 0.4823(5) 0.4140(4) 0.5403(5) 0.040(3) Uani 1 1 d G U . . .
H47 H 0.4343 0.3899 0.5303 0.048 Uiso 1 1 calc R U . . .
C48 C 0.5137(5) 0.4546(4) 0.4822(4) 0.043(3) Uani 1 1 d G U . . .
H48 H 0.4898 0.4617 0.4274 0.052 Uiso 1 1 calc R U . . .
C49 C 0.5879(5) 0.4824(4) 0.5224(6) 0.040(2) Uani 1 1 d G U . . .
H49 H 0.6212 0.5109 0.4985 0.048 Uiso 1 1 calc R U . . .
Fe1 Fe 0.61171(11) 0.39821(9) 0.51586(13) 0.0361(5) Uani 1 1 d . U . . .
C50 C 0.7346(6) 0.3612(5) 0.5336(6) 0.055(3) Uani 1 1 d G U . . .
H50 H 0.7752 0.3678 0.5791 0.066 Uiso 1 1 calc R U . . .
C51 C 0.6678(7) 0.3189(4) 0.5301(6) 0.051(3) Uani 1 1 d G U . . .
H51 H 0.6569 0.2929 0.5729 0.061 Uiso 1 1 calc R U . . .
C52 C 0.6205(6) 0.3233(5) 0.4498(6) 0.048(3) Uani 1 1 d G U . . .
H52 H 0.5732 0.3007 0.4307 0.058 Uiso 1 1 calc R U . . .
C53 C 0.6581(6) 0.3683(5) 0.4036(5) 0.055(3) Uani 1 1 d G U . . .
H53 H 0.6398 0.3803 0.3490 0.066 Uiso 1 1 calc R U . . .
C54 C 0.7287(6) 0.3917(4) 0.4554(7) 0.059(3) Uani 1 1 d G U . . .
H54 H 0.7646 0.4218 0.4407 0.071 Uiso 1 1 calc R U . . .
N2 N 0.9810(6) 0.5461(5) 0.7552(6) 0.034(2) Uani 1 1 d D U . . .
C55 C 0.6998(6) 0.4034(3) 0.7885(5) 0.034(2) Uani 1 1 d G U . . .
C56 C 0.7261(5) 0.3972(3) 0.8763(5) 0.039(2) Uani 1 1 d G U . . .
H56 H 0.7538 0.4246 0.9108 0.046 Uiso 1 1 calc R U . . .
C57 C 0.7027(6) 0.3418(4) 0.9022(5) 0.042(3) Uani 1 1 d G U . . .
H57 H 0.7123 0.3265 0.9566 0.051 Uiso 1 1 calc R U . . .
C58 C 0.6619(6) 0.3137(3) 0.8303(6) 0.044(3) Uani 1 1 d G U . . .
H58 H 0.6401 0.2769 0.8294 0.052 Uiso 1 1 calc R U . . .
C59 C 0.6601(6) 0.3518(4) 0.7601(5) 0.040(2) Uani 1 1 d G U . . .
H59 H 0.6370 0.3443 0.7052 0.048 Uiso 1 1 calc R U . . .
Fe2 Fe 0.59458(11) 0.38772(9) 0.86119(13) 0.0338(4) Uani 1 1 d . U . . .
C60 C 0.5095(6) 0.4546(4) 0.8510(6) 0.044(3) Uani 1 1 d G U . . .
H60 H 0.5150 0.4852 0.8144 0.053 Uiso 1 1 calc R U . . .
C61 C 0.5468(6) 0.4503(4) 0.9358(6) 0.048(3) Uani 1 1 d G U . . .
H61 H 0.5810 0.4777 0.9644 0.057 Uiso 1 1 calc R U . . .
C62 C 0.5227(6) 0.3969(4) 0.9691(5) 0.046(3) Uani 1 1 d G U . . .
H62 H 0.5383 0.3832 1.0234 0.056 Uiso 1 1 calc R U . . .
C63 C 0.4705(6) 0.3681(3) 0.9050(6) 0.046(3) Uani 1 1 d G U . . .
H63 H 0.4459 0.3322 0.9099 0.055 Uiso 1 1 calc R U . . .
C64 C 0.4623(6) 0.4038(4) 0.8320(5) 0.042(3) Uani 1 1 d G U . . .
H64 H 0.4315 0.3953 0.7807 0.050 Uiso 1 1 calc R U . . .
N3 N 1.0018(6) 0.6017(5) 0.5748(7) 0.033(2) Uani 1 1 d D U . . .
C70 C 0.754(2) 0.6801(16) 0.8760(14) 0.086(7) Uani 0.48(2) 1 d DG U P A 1
H70 H 0.7881 0.6816 0.8281 0.103 Uiso 0.48(2) 1 calc R U P A 1
C71 C 0.764(2) 0.7154(11) 0.949(2) 0.090(7) Uani 0.48(2) 1 d DG U P A 1
H71 H 0.8059 0.7441 0.9577 0.108 Uiso 0.48(2) 1 calc R U P A 1
C72 C 0.699(2) 0.6992(14) 1.0072(17) 0.091(8) Uani 0.48(2) 1 d DG U P A 1
H72 H 0.6913 0.7155 1.0603 0.109 Uiso 0.48(2) 1 calc R U P A 1
C73 C 0.6494(12) 0.6539(17) 0.970(2) 0.091(8) Uani 0.48(2) 1 d DG U P A 1
H73 H 0.6027 0.6353 0.9941 0.110 Uiso 0.48(2) 1 calc R U P A 1
C74 C 0.6832(17) 0.6421(17) 0.8887(16) 0.090(8) Uani 0.48(2) 1 d DG U P A 1
H74 H 0.6625 0.6144 0.8506 0.108 Uiso 0.48(2) 1 calc R U P A 1
C65 C 0.8900(14) 0.5823(13) 0.9665(14) 0.052(5) Uani 0.48(2) 1 d DG U P A 1
C66 C 0.9054(12) 0.6170(13) 1.0398(17) 0.057(6) Uani 0.48(2) 1 d DG U P A 1
H66 H 0.9507 0.6434 1.0479 0.069 Uiso 0.48(2) 1 calc R U P A 1
C67 C 0.8395(17) 0.6045(14) 1.0984(9) 0.060(6) Uani 0.48(2) 1 d DG U P A 1
H67 H 0.8340 0.6211 1.1517 0.072 Uiso 0.48(2) 1 calc R U P A 1
C68 C 0.7833(16) 0.5620(12) 1.0614(17) 0.061(6) Uani 0.48(2) 1 d DG U P A 1
H68 H 0.7346 0.5459 1.0863 0.073 Uiso 0.48(2) 1 calc R U P A 1
C69 C 0.8145(19) 0.5483(9) 0.9799(18) 0.057(6) Uani 0.48(2) 1 d DG U P A 1
H69 H 0.7898 0.5217 0.9420 0.068 Uiso 0.48(2) 1 calc R U P A 1
Fe3 Fe 0.7823(8) 0.6322(8) 0.9853(6) 0.063(3) Uani 0.48(2) 1 d D U P A 1
C65' C 0.8871(11) 0.5826(9) 0.9625(11) 0.034(4) Uani 0.52(2) 1 d DG U P A 2
C66' C 0.8857(10) 0.6264(8) 1.0246(13) 0.036(4) Uani 0.52(2) 1 d DG U P A 2
H66' H 0.9167 0.6603 1.0232 0.043 Uiso 0.52(2) 1 calc R U P A 2
C67' C 0.8286(12) 0.6092(10) 1.0891(8) 0.037(5) Uani 0.52(2) 1 d DG U P A 2
H67' H 0.8157 0.6299 1.1374 0.045 Uiso 0.52(2) 1 calc R U P A 2
C68' C 0.7947(12) 0.5548(8) 1.0669(12) 0.041(5) Uani 0.52(2) 1 d DG U P A 2
H68' H 0.7557 0.5336 1.0981 0.049 Uiso 0.52(2) 1 calc R U P A 2
C69' C 0.8309(14) 0.5383(6) 0.9886(14) 0.035(4) Uani 0.52(2) 1 d DG U P A 2
H69' H 0.8197 0.5045 0.9596 0.042 Uiso 0.52(2) 1 calc R U P A 2
Fe3' Fe 0.7608(5) 0.6113(3) 0.9732(5) 0.0360(18) Uani 0.52(2) 1 d D U P A 2
C70' C 0.7135(12) 0.6452(9) 0.8590(9) 0.050(5) Uani 0.52(2) 1 d DG U P A 2
H70' H 0.7435 0.6478 0.8087 0.060 Uiso 0.52(2) 1 calc R U P A 2
C71' C 0.7131(13) 0.6865(6) 0.9248(13) 0.056(5) Uani 0.52(2) 1 d DG U P A 2
H71' H 0.7428 0.7210 0.9252 0.067 Uiso 0.52(2) 1 calc R U P A 2
C72' C 0.6593(12) 0.6659(8) 0.9899(11) 0.058(6) Uani 0.52(2) 1 d DG U P A 2
H72' H 0.6477 0.6846 1.0404 0.070 Uiso 0.52(2) 1 calc R U P A 2
C73' C 0.6266(9) 0.6119(9) 0.9643(12) 0.054(5) Uani 0.52(2) 1 d DG U P A 2
H73' H 0.5897 0.5889 0.9951 0.064 Uiso 0.52(2) 1 calc R U P A 2
C74' C 0.6601(11) 0.5990(9) 0.8834(11) 0.055(5) Uani 0.52(2) 1 d DG U P A 2
H74' H 0.6489 0.5662 0.8519 0.066 Uiso 0.52(2) 1 calc R U P A 2
N4 N 0.8105(6) 0.5608(5) 0.5213(7) 0.035(2) Uani 1 1 d D U . . .
C75 C 1.0643(5) 0.6608(4) 0.9045(6) 0.037(2) Uani 1 1 d G U . . .
C76 C 1.1565(5) 0.6654(4) 0.8927(6) 0.036(2) Uani 1 1 d G U . . .
H76 H 1.1911 0.6390 0.8655 0.043 Uiso 1 1 calc R U . . .
C77 C 1.1866(4) 0.7172(4) 0.9296(7) 0.047(3) Uani 1 1 d G U . . .
H77 H 1.2444 0.7308 0.9308 0.056 Uiso 1 1 calc R U . . .
C78 C 1.1130(6) 0.7448(4) 0.9642(7) 0.052(3) Uani 1 1 d G U . . .
H78 H 1.1141 0.7795 0.9922 0.063 Uiso 1 1 calc R U . . .
C79 C 1.0374(4) 0.7099(4) 0.9488(7) 0.044(3) Uani 1 1 d G U . . .
H79 H 0.9803 0.7178 0.9648 0.053 Uiso 1 1 calc R U . . .
Fe4 Fe 1.13364(14) 0.66672(11) 1.01985(14) 0.0479(6) Uani 1 1 d . U . . .
C80 C 1.1267(8) 0.5927(5) 1.0843(8) 0.068(4) Uani 1 1 d G U . . .
H80 H 1.0963 0.5604 1.0655 0.081 Uiso 1 1 calc R U . . .
C81 C 1.2159(8) 0.6062(6) 1.0686(8) 0.068(4) Uani 1 1 d G U . . .
H81 H 1.2543 0.5844 1.0377 0.082 Uiso 1 1 calc R U . . .
C82 C 1.2363(8) 0.6590(6) 1.1084(9) 0.077(4) Uani 1 1 d G U . . .
H82 H 1.2903 0.6778 1.1081 0.092 Uiso 1 1 calc R U . . .
C83 C 1.1596(10) 0.6781(6) 1.1487(8) 0.083(4) Uani 1 1 d G U . . .
H83 H 1.1546 0.7115 1.1794 0.100 Uiso 1 1 calc R U . . .
C84 C 1.0918(7) 0.6371(7) 1.1338(8) 0.076(4) Uani 1 1 d G U . . .
H84 H 1.0347 0.6390 1.1530 0.091 Uiso 1 1 calc R U . . .
O1 O 0.9204(6) 0.4697(4) 0.6098(6) 0.043(2) Uani 1 1 d D . . . .
C85 C 1.2200(4) 0.5373(4) 0.6360(5) 0.032(2) Uani 1 1 d G U . . .
C86 C 1.2298(4) 0.5373(4) 0.7266(5) 0.035(2) Uani 1 1 d G U . . .
H86 H 1.1880 0.5500 0.7639 0.042 Uiso 1 1 calc R U . . .
C87 C 1.3144(5) 0.5146(4) 0.7503(4) 0.039(2) Uani 1 1 d G U . . .
H87 H 1.3378 0.5097 0.8059 0.047 Uiso 1 1 calc R U . . .
C88 C 1.3570(4) 0.5005(4) 0.6744(5) 0.035(2) Uani 1 1 d G U . . .
H88 H 1.4132 0.4848 0.6714 0.041 Uiso 1 1 calc R U . . .
C89 C 1.2987(5) 0.5146(4) 0.6037(4) 0.037(2) Uani 1 1 d G U . . .
H89 H 1.3100 0.5097 0.5463 0.044 Uiso 1 1 calc R U . . .
Fe5 Fe 1.24008(11) 0.45729(9) 0.68130(12) 0.0321(4) Uani 1 1 d . U . . .
C90 C 1.1287(5) 0.4108(4) 0.6476(6) 0.046(3) Uani 1 1 d G U . . .
H90 H 1.0782 0.4239 0.6176 0.055 Uiso 1 1 calc R U . . .
C91 C 1.1439(5) 0.4116(4) 0.7378(5) 0.042(3) Uani 1 1 d G U . . .
H91 H 1.1052 0.4255 0.7772 0.050 Uiso 1 1 calc R U . . .
C92 C 1.2286(5) 0.3877(4) 0.7573(5) 0.042(3) Uani 1 1 d G U . . .
H92 H 1.2552 0.3831 0.8117 0.050 Uiso 1 1 calc R U . . .
C93 C 1.2657(5) 0.3720(4) 0.6792(6) 0.044(3) Uani 1 1 d G U . . .
H93 H 1.3208 0.3553 0.6735 0.053 Uiso 1 1 calc R U . . .
C94 C 1.2040(6) 0.3863(5) 0.6114(5) 0.047(3) Uani 1 1 d G U . . .
H94 H 1.2115 0.3806 0.5535 0.057 Uiso 1 1 calc R U . . .
O2 O 0.8628(5) 0.6529(4) 0.6771(7) 0.044(2) Uani 1 1 d D . . . .
C95 C 1.1485(5) 0.5250(4) 0.4260(4) 0.037(2) Uani 1 1 d G U . . .
C96 C 1.1284(5) 0.5474(4) 0.3432(6) 0.043(3) Uani 1 1 d G U . . .
H96 H 1.0907 0.5777 0.3303 0.051 Uiso 1 1 calc R U . . .
C97 C 1.1757(6) 0.5155(5) 0.2837(4) 0.046(3) Uani 1 1 d G U . . .
H97 H 1.1746 0.5212 0.2249 0.056 Uiso 1 1 calc R U . . .
C98 C 1.2251(6) 0.4733(4) 0.3297(6) 0.047(3) Uani 1 1 d G U . . .
H98 H 1.2620 0.4465 0.3064 0.056 Uiso 1 1 calc R U . . .
C99 C 1.2083(6) 0.4792(4) 0.4177(5) 0.041(2) Uani 1 1 d G U . . .
H99 H 1.2323 0.4569 0.4621 0.049 Uiso 1 1 calc R U . . .
Fe6 Fe 1.26010(12) 0.55342(10) 0.36972(13) 0.0388(5) Uani 1 1 d . U . . .
C100 C 1.2865(6) 0.6381(4) 0.3575(7) 0.055(3) Uani 1 1 d G U . . .
H100 H 1.2451 0.6664 0.3453 0.066 Uiso 1 1 calc R U . . .
C101 C 1.3322(6) 0.6063(5) 0.2965(5) 0.053(3) Uani 1 1 d G U . . .
H101 H 1.3260 0.6102 0.2374 0.064 Uiso 1 1 calc R U . . .
C102 C 1.3891(6) 0.5675(4) 0.3416(6) 0.054(3) Uani 1 1 d G U . . .
H102 H 1.4266 0.5416 0.3172 0.065 Uiso 1 1 calc R U . . .
C103 C 1.3785(6) 0.5753(5) 0.4304(5) 0.046(3) Uani 1 1 d G U . . .
H103 H 1.4080 0.5554 0.4744 0.056 Uiso 1 1 calc R U . . .
C104 C 1.3152(6) 0.6189(5) 0.4402(5) 0.053(3) Uani 1 1 d G U . . .
H104 H 1.2958 0.6326 0.4918 0.064 Uiso 1 1 calc R U . . .
C5 C 0.8650(7) 0.4902(6) 0.8092(8) 0.032(2) Uani 1 1 d . U . . .
C105 C 0.8589(5) 0.6789(3) 0.3716(5) 0.033(2) Uani 1 1 d G U . . .
C106 C 0.8319(5) 0.7351(3) 0.3512(6) 0.040(3) Uani 1 1 d G U . . .
H106 H 0.7870 0.7551 0.3763 0.048 Uiso 1 1 calc R U . . .
C107 C 0.8855(5) 0.7553(3) 0.2858(6) 0.036(2) Uani 1 1 d G U . . .
H107 H 0.8819 0.7910 0.2606 0.044 Uiso 1 1 calc R U . . .
C108 C 0.9457(5) 0.7117(4) 0.2659(5) 0.044(3) Uani 1 1 d G U . . .
H108 H 0.9884 0.7137 0.2252 0.053 Uiso 1 1 calc R U . . .
C109 C 0.9292(5) 0.6644(3) 0.3189(6) 0.041(2) Uani 1 1 d G U . . .
H109 H 0.9592 0.6301 0.3190 0.049 Uiso 1 1 calc R U . . .
Fe7 Fe 0.96221(12) 0.73491(9) 0.39030(14) 0.0373(5) Uani 1 1 d . U . . .
C110 C 0.9997(7) 0.7362(4) 0.5188(7) 0.058(3) Uani 1 1 d G U . . .
H110 H 0.9729 0.7163 0.5617 0.070 Uiso 1 1 calc R U . . .
C111 C 0.9767(6) 0.7914(4) 0.4897(7) 0.055(3) Uani 1 1 d G U . . .
H111 H 0.9321 0.8141 0.5102 0.066 Uiso 1 1 calc R U . . .
C112 C 1.0338(7) 0.8061(4) 0.4238(7) 0.056(3) Uani 1 1 d G U . . .
H112 H 1.0331 0.8400 0.3936 0.067 Uiso 1 1 calc R U . . .
C113 C 1.0921(6) 0.7599(5) 0.4122(7) 0.053(3) Uani 1 1 d G U . . .
H113 H 1.1363 0.7582 0.3730 0.064 Uiso 1 1 calc R U . . .
C114 C 1.0710(7) 0.7167(4) 0.4709(8) 0.057(3) Uani 1 1 d G U . . .
H114 H 1.0990 0.6817 0.4769 0.069 Uiso 1 1 calc R U . . .
C2 C 0.6737(7) 0.4799(6) 0.6673(8) 0.034(2) Uani 1 1 d . U . . .
C115 C 0.6575(4) 0.6795(3) 0.4556(6) 0.034(2) Uani 1 1 d G U . . .
C116 C 0.5712(5) 0.6557(3) 0.4490(6) 0.034(2) Uani 1 1 d G U . . .
H116 H 0.5578 0.6173 0.4474 0.041 Uiso 1 1 calc R U . . .
C117 C 0.5091(3) 0.7008(4) 0.4454(6) 0.040(2) Uani 1 1 d G U . . .
H117 H 0.4478 0.6972 0.4409 0.047 Uiso 1 1 calc R U . . .
C118 C 0.5570(5) 0.7526(3) 0.4497(7) 0.040(3) Uani 1 1 d G U . . .
H118 H 0.5326 0.7887 0.4486 0.048 Uiso 1 1 calc R U . . .
C119 C 0.6487(4) 0.7394(3) 0.4561(6) 0.038(2) Uani 1 1 d G U . . .
H119 H 0.6950 0.7654 0.4598 0.046 Uiso 1 1 calc R U . . .
Fe8 Fe 0.59011(11) 0.70674(9) 0.34496(13) 0.0336(4) Uani 1 1 d . U . . .
C120 C 0.5664(7) 0.6553(3) 0.2412(8) 0.056(3) Uani 1 1 d G U . . .
H120 H 0.5535 0.6168 0.2423 0.068 Uiso 1 1 calc R U . . .
C121 C 0.5037(4) 0.7001(5) 0.2407(7) 0.051(3) Uani 1 1 d G U . . .
H121 H 0.4425 0.6961 0.2416 0.061 Uiso 1 1 calc R U . . .
C122 C 0.5507(6) 0.7521(4) 0.2388(7) 0.043(3) Uani 1 1 d G U . . .
H122 H 0.5258 0.7881 0.2381 0.052 Uiso 1 1 calc R U . . .
C123 C 0.6425(5) 0.7394(4) 0.2380(7) 0.046(3) Uani 1 1 d G U . . .
H123 H 0.6883 0.7657 0.2367 0.056 Uiso 1 1 calc R U . . .
C124 C 0.6522(5) 0.6796(4) 0.2395(7) 0.051(3) Uani 1 1 d G U . . .
H124 H 0.7054 0.6598 0.2394 0.061 Uiso 1 1 calc R U . . .
C3CC C 1.218(3) 0.442(3) 1.065(3) 0.085(4) Uani 0.286(9) 1 d D U P B 1
H3C1 H 1.1668 0.4515 1.0965 0.102 Uiso 0.286(9) 1 calc R U P B 1
H3C2 H 1.2230 0.4008 1.0626 0.102 Uiso 0.286(9) 1 calc R U P B 1
Cl6 Cl 1.3133(12) 0.4706(9) 1.1144(12) 0.085(4) Uani 0.286(9) 1 d D U P B 1
Cl5 Cl 1.208(2) 0.4703(14) 0.9600(19) 0.085(4) Uani 0.286(9) 1 d D U P B 1
C3C' C 1.295(3) 0.454(2) 0.988(6) 0.085(4) Uani 0.214(9) 1 d D U P B 2
H3C3 H 1.3191 0.4782 1.0343 0.102 Uiso 0.214(9) 1 calc R U P B 2
H3C4 H 1.3395 0.4508 0.9457 0.102 Uiso 0.214(9) 1 calc R U P B 2
Cl6' Cl 1.2669(16) 0.3878(12) 1.0273(16) 0.085(4) Uani 0.214(9) 1 d D U P B 2
Cl5' Cl 1.198(3) 0.4833(17) 0.943(3) 0.085(4) Uani 0.214(9) 1 d D U P B 2
C1CC C 0.453(2) 0.6921(14) 0.9072(19) 0.185(12) Uani 1 1 d D U . . .
H1C1 H 0.5156 0.6863 0.8970 0.222 Uiso 1 1 calc R U . . .
H1C2 H 0.4286 0.7158 0.8615 0.222 Uiso 1 1 calc R U . . .
Cl1 Cl 0.4456(5) 0.7262(6) 0.9999(6) 0.149(4) Uani 1 1 d D U . . .
Cl2 Cl 0.4009(7) 0.6283(8) 0.9035(9) 0.204(6) Uani 1 1 d D U . . .
C2CC C 0.702(3) 0.3971(15) 1.160(3) 0.171(4) Uani 0.769(11) 1 d D U P C 1
H2C1 H 0.7262 0.4080 1.2161 0.205 Uiso 0.769(11) 1 calc R U P C 1
H2C2 H 0.6603 0.4262 1.1405 0.205 Uiso 0.769(11) 1 calc R U P C 1
Cl3 Cl 0.7883(11) 0.3918(7) 1.0881(8) 0.171(4) Uani 0.769(11) 1 d D U P C 1
Cl4 Cl 0.6465(12) 0.3330(7) 1.1675(8) 0.171(4) Uani 0.769(11) 1 d D U P C 1
C2C' C 0.687(9) 0.342(3) 1.242(8) 0.171(4) Uani 0.231(11) 1 d D U P C 2
H2C3 H 0.6280 0.3580 1.2363 0.205 Uiso 0.231(11) 1 calc R U P C 2
H2C4 H 0.7080 0.3439 1.3020 0.205 Uiso 0.231(11) 1 calc R U P C 2
Cl3' Cl 0.760(4) 0.377(2) 1.177(3) 0.171(4) Uani 0.231(11) 1 d D U P C 2
Cl4' Cl 0.692(4) 0.274(2) 1.201(3) 0.171(4) Uani 0.231(11) 1 d D U P C 2
C4CC C 0.823(2) 0.7694(14) 0.7190(19) 0.170(11) Uani 1 1 d D U . . .
H4C1 H 0.8758 0.7505 0.7016 0.204 Uiso 1 1 calc R U . . .
H4C2 H 0.7799 0.7408 0.7339 0.204 Uiso 1 1 calc R U . . .
Cl7 Cl 0.848(2) 0.8160(13) 0.8100(16) 0.347(13) Uani 1 1 d D U . . .
Cl8 Cl 0.7790(13) 0.8121(9) 0.6371(12) 0.252(8) Uani 1 1 d D U . . .
C1 C 0.7117(7) 0.5368(6) 0.6597(8) 0.034(2) Uani 1 1 d . U . . .
Cl9 Cl 0.588(3) 0.865(2) 0.694(3) 0.113(5) Uani 0.236(11) 1 d D U P D 3
Cl10 Cl 0.581(2) 0.8164(14) 0.859(2) 0.113(5) Uani 0.236(11) 1 d D U P D 3
C5CC C 0.523(3) 0.846(5) 0.775(4) 0.113(5) Uani 0.236(11) 1 d D U P D 3
H5C1 H 0.4915 0.8784 0.7945 0.136 Uiso 0.236(11) 1 calc R U P D 3
H5C2 H 0.4797 0.8184 0.7529 0.136 Uiso 0.236(11) 1 calc R U P D 3
Cl9' Cl 0.575(3) 0.8732(17) 0.714(3) 0.113(5) Uani 0.264(11) 1 d D U P D 4
Cl1A Cl 0.4569(18) 0.8179(12) 0.814(2) 0.113(5) Uani 0.264(11) 1 d D U P D 4
C5C' C 0.542(6) 0.865(4) 0.816(3) 0.113(5) Uani 0.264(11) 1 d D U P D 4
H5C3 H 0.5913 0.8506 0.8524 0.136 Uiso 0.264(11) 1 calc R U P D 4
H5C4 H 0.5237 0.9008 0.8386 0.136 Uiso 0.264(11) 1 calc R U P D 4
C3 C 0.7162(7) 0.4557(6) 0.7395(8) 0.035(2) Uani 1 1 d . U . . .
Cl11 Cl 0.6698(18) 0.5264(19) 0.312(2) 0.223(7) Uani 0.470(12) 1 d D U P E 5
C6CC C 0.588(6) 0.477(4) 0.290(3) 0.223(7) Uani 0.470(12) 1 d D U P E 5
H6C1 H 0.6074 0.4404 0.3101 0.268 Uiso 0.470(12) 1 calc R U P E 5
H6C2 H 0.5350 0.4877 0.3178 0.268 Uiso 0.470(12) 1 calc R U P E 5
Cl12 Cl 0.5675(19) 0.4753(19) 0.183(2) 0.223(7) Uani 0.470(12) 1 d D U P E 5
Cl1B Cl 0.6522(15) 0.5025(17) 0.228(2) 0.223(7) Uani 0.530(12) 1 d D U P E 6
C6C' C 0.596(2) 0.527(5) 0.137(4) 0.223(7) Uani 0.530(12) 1 d D U P E 6
H6C3 H 0.6079 0.5663 0.1267 0.268 Uiso 0.530(12) 1 calc R U P E 6
H6C4 H 0.6108 0.5048 0.0870 0.268 Uiso 0.530(12) 1 calc R U P E 6
Cl1C Cl 0.4871(16) 0.5166(17) 0.1591(18) 0.223(7) Uani 0.530(12) 1 d D U P E 6
H5 H 0.946(9) 0.486(4) 0.664(5) 0.06(2) Uiso 1 1 d D . . . .
H7 H 0.907(7) 0.645(4) 0.635(7) 0.06(2) Uiso 1 1 d D . . . .
H6 H 0.874(6) 0.497(4) 0.588(7) 0.06(2) Uiso 1 1 d D . . . .
H8 H 0.829(8) 0.619(3) 0.681(8) 0.06(2) Uiso 1 1 d D . . . .
loop_
_atom_site_aniso_label
_atom_site_aniso_U_11
_atom_site_aniso_U_22
_atom_site_aniso_U_33
_atom_site_aniso_U_23
_atom_site_aniso_U_13
_atom_site_aniso_U_12
C4 0.021(4) 0.036(5) 0.044(5) 0.008(4) 0.000(4) 0.000(4)
C6 0.017(4) 0.034(5) 0.043(5) 0.006(4) 0.000(3) 0.006(4)
C7 0.020(4) 0.036(5) 0.045(4) 0.003(4) 0.002(3) 0.008(4)
C8 0.029(4) 0.040(5) 0.049(5) -0.003(4) 0.004(4) 0.001(4)
C9 0.014(4) 0.034(5) 0.050(5) 0.006(4) 0.000(3) 0.005(4)
C11 0.019(4) 0.028(5) 0.046(4) 0.008(4) 0.002(3) -0.004(4)
C12 0.018(4) 0.024(5) 0.046(4) 0.009(4) 0.001(3) -0.002(4)
C13 0.021(4) 0.028(5) 0.046(4) 0.007(4) 0.007(3) -0.006(4)
C14 0.026(4) 0.031(6) 0.040(4) 0.007(4) 0.002(3) 0.000(4)
C16 0.023(4) 0.023(5) 0.053(6) 0.003(4) -0.003(4) -0.005(3)
C17 0.019(4) 0.025(5) 0.050(5) 0.002(4) -0.004(4) -0.003(3)
C18 0.024(4) 0.030(5) 0.048(6) 0.007(4) -0.001(4) -0.001(4)
C19 0.020(4) 0.032(5) 0.050(5) 0.005(4) -0.005(4) -0.002(4)
C21 0.022(5) 0.031(5) 0.056(6) 0.009(4) 0.006(4) 0.003(4)
C22 0.022(5) 0.035(5) 0.064(6) 0.005(5) 0.013(4) 0.004(4)
C23 0.033(6) 0.033(6) 0.072(7) 0.006(5) 0.010(5) 0.004(5)
C24 0.044(7) 0.042(7) 0.076(7) 0.009(5) 0.005(5) 0.010(5)
C25 0.040(6) 0.042(6) 0.067(7) 0.013(5) -0.003(5) 0.008(5)
C26 0.040(6) 0.041(6) 0.062(6) 0.010(5) -0.003(5) 0.008(5)
C10 0.017(4) 0.028(5) 0.051(5) 0.005(4) -0.001(4) 0.001(4)
C27 0.022(4) 0.029(5) 0.044(6) 0.004(4) -0.004(4) -0.005(3)
C28 0.038(5) 0.031(5) 0.054(7) 0.001(5) -0.002(5) -0.002(4)
C29 0.061(7) 0.029(6) 0.100(12) 0.001(6) 0.013(8) -0.005(5)
C30 0.064(7) 0.041(7) 0.124(15) 0.006(7) 0.023(9) -0.014(6)
C31 0.041(6) 0.046(6) 0.089(11) 0.003(6) 0.010(7) -0.017(5)
C32 0.034(5) 0.042(6) 0.059(7) 0.003(5) 0.009(5) -0.006(4)
C15 0.022(4) 0.029(5) 0.048(5) 0.006(4) 0.003(3) -0.004(4)
C33 0.029(5) 0.032(5) 0.052(5) 0.001(4) -0.004(4) -0.003(4)
C34 0.034(6) 0.032(5) 0.053(6) 0.002(4) -0.003(5) -0.001(4)
C35 0.087(11) 0.039(7) 0.060(7) -0.002(5) -0.004(6) 0.003(7)
C36 0.117(14) 0.035(7) 0.066(7) -0.006(6) -0.025(8) 0.007(8)
C37 0.129(16) 0.039(7) 0.065(8) -0.006(6) -0.026(8) 0.013(8)
C38 0.056(8) 0.028(6) 0.060(6) 0.002(5) -0.016(5) -0.001(5)
C20 0.021(4) 0.030(5) 0.050(5) 0.005(4) -0.005(4) -0.009(4)
C39 0.030(4) 0.039(5) 0.044(6) 0.007(5) 0.004(4) 0.001(4)
C40 0.031(4) 0.038(6) 0.047(7) 0.008(5) 0.004(4) 0.000(4)
C41 0.038(5) 0.042(6) 0.056(8) 0.006(5) 0.007(5) 0.007(4)
C42 0.042(5) 0.040(6) 0.060(8) 0.005(5) 0.008(5) 0.011(4)
C43 0.052(5) 0.044(6) 0.043(7) -0.003(5) 0.012(5) 0.005(5)
C44 0.041(5) 0.042(5) 0.051(7) 0.000(5) 0.007(5) -0.001(4)
N1 0.020(4) 0.031(5) 0.043(4) 0.008(4) 0.005(3) 0.000(3)
C45 0.027(4) 0.037(5) 0.049(5) 0.002(4) 0.000(3) 0.000(4)
C46 0.024(4) 0.029(5) 0.049(5) -0.002(4) 0.003(4) 0.007(4)
C47 0.028(4) 0.042(6) 0.050(5) 0.002(5) 0.002(4) -0.003(4)
C48 0.032(5) 0.044(6) 0.053(6) 0.004(5) -0.002(4) -0.001(4)
C49 0.027(5) 0.042(5) 0.050(5) 0.005(4) 0.002(4) 0.001(4)
Fe1 0.0234(8) 0.0386(11) 0.0465(10) 0.0001(9) 0.0043(7) 0.0024(8)
C50 0.036(5) 0.056(7) 0.074(7) -0.012(5) 0.001(4) 0.018(5)
C51 0.046(6) 0.052(6) 0.055(6) -0.008(5) 0.006(5) 0.015(5)
C52 0.036(5) 0.059(6) 0.051(6) -0.011(5) 0.014(4) 0.007(4)
C53 0.039(6) 0.071(7) 0.057(6) -0.006(5) 0.014(4) 0.006(5)
C54 0.032(5) 0.069(8) 0.077(7) -0.005(6) 0.010(4) 0.008(5)
N2 0.021(4) 0.039(5) 0.042(4) 0.004(4) 0.002(3) 0.002(4)
C55 0.025(4) 0.032(5) 0.046(5) 0.008(4) 0.000(4) 0.000(4)
C56 0.021(4) 0.044(6) 0.052(5) 0.011(4) 0.002(4) 0.001(4)
C57 0.025(5) 0.046(6) 0.057(6) 0.013(4) 0.005(4) 0.002(4)
C58 0.029(5) 0.036(5) 0.066(6) 0.010(4) 0.006(4) 0.003(4)
C59 0.027(5) 0.036(5) 0.058(5) 0.006(4) 0.001(4) -0.002(4)
Fe2 0.0205(8) 0.0344(11) 0.0465(10) 0.0066(9) 0.0018(7) -0.0003(7)
C60 0.033(5) 0.042(5) 0.057(6) 0.000(5) 0.004(4) 0.002(4)
C61 0.032(5) 0.053(6) 0.059(6) -0.005(5) 0.001(4) 0.004(4)
C62 0.030(5) 0.056(7) 0.053(5) 0.003(5) 0.006(4) 0.005(5)
C63 0.030(5) 0.048(6) 0.061(6) 0.010(5) 0.003(4) 0.003(4)
C64 0.023(4) 0.048(6) 0.054(6) 0.004(5) 0.003(4) 0.002(4)
N3 0.021(4) 0.034(5) 0.043(4) 0.007(4) -0.001(3) -0.001(4)
C70 0.067(12) 0.111(14) 0.080(10) 0.024(9) -0.003(8) 0.039(10)
C71 0.071(13) 0.108(12) 0.090(12) 0.021(9) -0.005(9) 0.042(9)
C72 0.070(11) 0.115(14) 0.086(13) 0.017(9) -0.003(9) 0.042(10)
C73 0.059(9) 0.120(16) 0.093(13) 0.016(10) -0.003(8) 0.043(9)
C74 0.063(11) 0.121(16) 0.084(11) 0.020(9) -0.008(8) 0.037(10)
C65 0.034(7) 0.076(11) 0.047(7) 0.010(6) 0.005(6) 0.017(7)
C66 0.039(8) 0.080(13) 0.054(8) 0.005(7) 0.003(6) 0.025(7)
C67 0.035(9) 0.096(14) 0.051(8) 0.011(7) 0.001(6) 0.023(8)
C68 0.032(9) 0.097(12) 0.054(9) 0.014(7) 0.002(7) 0.022(8)
C69 0.034(9) 0.089(11) 0.048(10) 0.015(7) -0.001(7) 0.015(7)
Fe3 0.040(4) 0.102(9) 0.048(4) 0.012(5) 0.004(3) 0.034(5)
C65' 0.027(6) 0.031(8) 0.043(7) 0.002(5) 0.006(5) 0.007(5)
C66' 0.027(7) 0.034(8) 0.047(7) -0.002(6) 0.010(5) 0.010(6)
C67' 0.024(8) 0.049(9) 0.040(7) 0.002(6) 0.006(5) 0.003(6)
C68' 0.024(8) 0.048(9) 0.050(8) 0.004(6) 0.003(6) 0.006(6)
C69' 0.026(7) 0.038(7) 0.040(8) 0.004(6) -0.002(6) 0.003(5)
Fe3' 0.024(3) 0.038(3) 0.047(3) 0.000(2) 0.007(2) 0.008(2)
C70' 0.030(9) 0.065(11) 0.055(7) 0.005(6) 0.007(6) 0.025(7)
C71' 0.047(10) 0.061(9) 0.061(9) 0.004(7) 0.007(7) 0.022(7)
C72' 0.040(8) 0.070(10) 0.066(10) 0.001(7) 0.008(7) 0.023(7)
C73' 0.030(7) 0.070(11) 0.060(9) 0.004(8) 0.003(6) 0.018(6)
C74' 0.037(8) 0.070(11) 0.057(8) 0.006(7) 0.000(6) 0.013(7)
N4 0.016(3) 0.032(5) 0.059(5) 0.009(4) -0.003(3) 0.001(3)
C75 0.027(4) 0.041(5) 0.044(5) -0.001(4) 0.004(3) 0.001(4)
C76 0.024(4) 0.050(6) 0.034(5) -0.006(4) 0.002(3) -0.001(4)
C77 0.034(5) 0.053(6) 0.053(6) -0.011(5) 0.001(4) -0.003(4)
C78 0.043(5) 0.050(6) 0.065(7) -0.013(5) 0.008(5) -0.001(4)
C79 0.033(4) 0.043(5) 0.057(6) -0.002(5) 0.005(4) 0.001(4)
Fe4 0.0433(11) 0.0551(15) 0.0455(11) -0.0102(11) 0.0027(9) 0.0058(10)
C80 0.080(7) 0.076(7) 0.047(6) 0.002(5) 0.002(5) 0.012(6)
C81 0.074(7) 0.078(8) 0.053(7) 0.006(6) -0.002(5) 0.017(6)
C82 0.083(7) 0.083(9) 0.064(7) 0.001(6) -0.014(5) 0.012(6)
C83 0.099(9) 0.094(9) 0.056(6) -0.011(6) -0.004(5) 0.012(7)
C84 0.092(8) 0.084(9) 0.052(6) 0.004(6) 0.008(6) 0.014(6)
O1 0.037(4) 0.034(5) 0.057(5) 0.003(4) -0.005(4) 0.002(4)
C85 0.020(4) 0.023(5) 0.051(5) -0.001(4) -0.002(3) -0.005(3)
C86 0.023(4) 0.030(5) 0.052(5) 0.007(4) -0.002(4) 0.003(4)
C87 0.032(5) 0.036(6) 0.050(5) 0.002(4) 0.000(4) 0.005(4)
C88 0.024(4) 0.029(5) 0.050(5) -0.002(4) 0.001(4) -0.003(4)
C89 0.025(4) 0.035(6) 0.049(5) 0.004(4) 0.001(4) -0.003(4)
Fe5 0.0192(7) 0.0291(10) 0.0479(10) 0.0029(9) 0.0002(7) -0.0012(7)
C90 0.030(4) 0.034(6) 0.073(6) 0.008(5) -0.005(4) -0.011(4)
C91 0.027(4) 0.031(6) 0.068(6) 0.009(5) 0.000(4) -0.004(4)
C92 0.036(5) 0.033(5) 0.056(5) 0.004(4) 0.000(4) -0.005(4)
C93 0.034(5) 0.032(5) 0.065(6) 0.002(4) -0.001(4) -0.003(4)
C94 0.040(5) 0.036(6) 0.064(6) 0.003(5) -0.009(4) -0.007(4)
O2 0.023(4) 0.041(5) 0.067(6) 0.010(5) 0.000(4) 0.001(4)
C95 0.019(4) 0.040(6) 0.050(5) -0.002(4) -0.002(3) -0.008(4)
C96 0.028(4) 0.048(6) 0.052(5) 0.003(5) -0.002(4) -0.001(4)
C97 0.042(5) 0.047(6) 0.049(5) 0.001(5) -0.003(4) 0.001(5)
C98 0.042(6) 0.046(6) 0.053(6) 0.003(4) 0.006(4) 0.000(4)
C99 0.031(5) 0.041(5) 0.051(5) 0.006(4) 0.004(4) -0.003(4)
Fe6 0.0255(8) 0.0426(12) 0.0486(11) 0.0062(10) 0.0051(8) 0.0002(8)
C100 0.039(6) 0.052(6) 0.076(7) 0.011(5) 0.005(5) -0.006(5)
C101 0.041(5) 0.058(7) 0.061(6) 0.018(5) 0.001(4) -0.004(5)
C102 0.038(5) 0.061(7) 0.062(6) 0.015(5) -0.003(4) -0.001(5)
C103 0.030(5) 0.053(7) 0.055(6) 0.011(5) 0.000(4) -0.005(4)
C104 0.030(5) 0.057(6) 0.073(6) 0.005(5) 0.003(4) -0.014(5)
C5 0.020(4) 0.032(5) 0.043(5) 0.005(4) 0.001(4) 0.002(3)
C105 0.022(4) 0.028(5) 0.049(5) 0.005(4) -0.001(4) -0.004(3)
C106 0.027(4) 0.033(5) 0.060(6) 0.011(5) 0.006(4) -0.003(4)
C107 0.027(4) 0.034(5) 0.047(5) 0.004(4) -0.004(4) -0.005(4)
C108 0.032(5) 0.039(6) 0.061(5) 0.005(4) 0.004(4) -0.005(4)
C109 0.029(5) 0.031(5) 0.062(6) 0.000(4) 0.001(4) -0.003(4)
Fe7 0.0257(8) 0.0283(10) 0.0573(12) 0.0056(9) -0.0034(8) -0.0037(8)
C110 0.063(6) 0.038(6) 0.071(6) 0.008(5) -0.016(5) -0.006(5)
C111 0.062(7) 0.037(6) 0.064(6) 0.005(5) -0.013(5) -0.005(5)
C112 0.043(6) 0.041(6) 0.081(7) 0.009(5) -0.019(5) -0.009(4)
C113 0.031(5) 0.047(6) 0.080(7) 0.011(5) -0.012(5) -0.011(4)
C114 0.048(5) 0.043(6) 0.079(7) 0.010(5) -0.019(5) -0.009(5)
C2 0.023(4) 0.037(5) 0.043(5) 0.005(4) 0.006(3) 0.000(4)
C115 0.024(4) 0.034(5) 0.043(5) 0.006(4) 0.001(3) 0.002(3)
C116 0.024(4) 0.036(5) 0.044(5) 0.007(4) 0.002(4) 0.003(4)
C117 0.027(4) 0.038(6) 0.053(6) 0.007(4) 0.001(4) 0.001(4)
C118 0.030(5) 0.037(5) 0.052(6) 0.007(4) -0.002(4) 0.004(4)
C119 0.033(5) 0.036(5) 0.045(5) 0.003(4) -0.003(4) 0.001(4)
Fe8 0.0232(8) 0.0311(10) 0.0463(10) 0.0044(9) -0.0024(7) 0.0004(8)
C120 0.059(6) 0.054(6) 0.055(6) 0.003(5) 0.000(5) -0.014(5)
C121 0.050(5) 0.055(7) 0.048(6) 0.009(5) -0.007(4) -0.015(5)
C122 0.041(5) 0.044(6) 0.044(6) 0.010(5) -0.002(4) -0.003(4)
C123 0.045(5) 0.048(6) 0.046(6) 0.007(5) 0.000(4) -0.008(5)
C124 0.051(6) 0.052(6) 0.048(6) 0.001(5) 0.001(4) -0.004(5)
C3CC 0.079(6) 0.092(10) 0.085(7) -0.027(7) 0.005(5) -0.010(6)
Cl6 0.079(6) 0.092(10) 0.085(7) -0.027(7) 0.005(5) -0.010(6)
Cl5 0.079(6) 0.092(10) 0.085(7) -0.027(7) 0.005(5) -0.010(6)
C3C' 0.079(6) 0.092(10) 0.085(7) -0.027(7) 0.005(5) -0.010(6)
Cl6' 0.079(6) 0.092(10) 0.085(7) -0.027(7) 0.005(5) -0.010(6)
Cl5' 0.079(6) 0.092(10) 0.085(7) -0.027(7) 0.005(5) -0.010(6)
C1CC 0.12(2) 0.26(2) 0.174(17) -0.074(16) -0.009(16) 0.009(17)
Cl1 0.080(4) 0.220(11) 0.147(6) -0.047(7) 0.003(4) 0.014(5)
Cl2 0.132(7) 0.272(16) 0.207(11) -0.099(11) 0.015(7) -0.001(9)
C2CC 0.243(11) 0.151(8) 0.114(5) 0.002(6) -0.047(6) 0.006(8)
Cl3 0.243(11) 0.151(8) 0.114(5) 0.002(6) -0.047(6) 0.006(8)
Cl4 0.243(11) 0.151(8) 0.114(5) 0.002(6) -0.047(6) 0.006(8)
C2C' 0.243(11) 0.151(8) 0.114(5) 0.002(6) -0.047(6) 0.006(8)
Cl3' 0.243(11) 0.151(8) 0.114(5) 0.002(6) -0.047(6) 0.006(8)
Cl4' 0.243(11) 0.151(8) 0.114(5) 0.002(6) -0.047(6) 0.006(8)
C4CC 0.099(18) 0.23(3) 0.19(2) 0.007(17) 0.029(16) -0.062(19)
Cl7 0.39(3) 0.33(3) 0.316(19) -0.06(2) -0.07(2) 0.01(3)
Cl8 0.283(18) 0.243(18) 0.227(14) 0.013(13) -0.009(12) -0.118(15)
C1 0.019(4) 0.037(5) 0.045(5) 0.005(4) 0.003(4) 0.004(4)
Cl9 0.107(10) 0.090(9) 0.143(13) -0.026(9) 0.007(8) -0.005(7)
Cl10 0.107(10) 0.090(9) 0.143(13) -0.026(9) 0.007(8) -0.005(7)
C5CC 0.107(10) 0.090(9) 0.143(13) -0.026(9) 0.007(8) -0.005(7)
Cl9' 0.107(10) 0.090(9) 0.143(13) -0.026(9) 0.007(8) -0.005(7)
Cl1A 0.107(10) 0.090(9) 0.143(13) -0.026(9) 0.007(8) -0.005(7)
C5C' 0.107(10) 0.090(9) 0.143(13) -0.026(9) 0.007(8) -0.005(7)
C3 0.027(4) 0.032(5) 0.045(5) 0.005(4) 0.002(4) -0.002(4)
Cl11 0.150(9) 0.30(2) 0.217(14) -0.066(15) 0.021(9) 0.021(12)
C6CC 0.150(9) 0.30(2) 0.217(14) -0.066(15) 0.021(9) 0.021(12)
Cl12 0.150(9) 0.30(2) 0.217(14) -0.066(15) 0.021(9) 0.021(12)
Cl1B 0.150(9) 0.30(2) 0.217(14) -0.066(15) 0.021(9) 0.021(12)
C6C' 0.150(9) 0.30(2) 0.217(14) -0.066(15) 0.021(9) 0.021(12)
Cl1C 0.150(9) 0.30(2) 0.217(14) -0.066(15) 0.021(9) 0.021(12)
loop_
_atom_type_symbol
_atom_type_description
_atom_type_scat_dispersion_real
_atom_type_scat_dispersion_imag
_atom_type_scat_source
C C 0.0181 0.0091 'International Tables Vol C Tables 4.2.6.8 and 6.1.1.4'
N N 0.0311 0.0180 'International Tables Vol C Tables 4.2.6.8 and 6.1.1.4'
Fe Fe -1.1336 3.1974 'International Tables Vol C Tables 4.2.6.8 and 6.1.1.4'
Cl Cl 0.3639 0.7018 'International Tables Vol C Tables 4.2.6.8 and 6.1.1.4'
O O 0.0492 0.0322 'International Tables Vol C Tables 4.2.6.8 and 6.1.1.4'
H H 0.0000 0.0000 'International Tables Vol C Tables 4.2.6.8 and 6.1.1.4'
loop_
_geom_angle_atom_site_label_1
_geom_angle_atom_site_label_2
_geom_angle_atom_site_label_3
_geom_angle
C5 C4 N1 115.8(11)
C5 C4 C3 132.5(12)
N1 C4 C3 110.2(10)
N2 C6 C7 113.8(11)
N2 C6 C5 114.3(11)
C7 C6 C5 131.9(10)
C8 C7 C6 104.6(10)
C8 C7 C65' 133.6(14)
C6 C7 C65' 121.8(13)
C8 C7 C65 132.1(17)
C6 C7 C65 123.3(16)
C7 C8 C9 105.8(11)
C7 C8 C75 132.9(11)
C9 C8 C75 121.3(10)
C10 C9 N2 117.0(12)
C10 C9 C8 131.5(13)
N2 C9 C8 110.9(10)
N3 C11 C12 113.0(11)
N3 C11 C10 118.0(11)
C12 C11 C10 128.8(10)
C13 C12 C11 105.3(10)
C13 C12 C85 133.9(11)
C11 C12 C85 120.8(10)
C12 C13 C14 106.4(10)
C12 C13 C95 134.1(10)
C14 C13 C95 119.5(10)
C15 C14 N3 116.8(10)
C15 C14 C13 133.5(12)
N3 C14 C13 108.6(10)
N4 C16 C15 117.2(11)
N4 C16 C17 114.6(10)
C15 C16 C17 128.2(11)
C18 C17 C105 131.1(11)
C18 C17 C16 102.3(10)
C105 C17 C16 126.4(10)
C17 C18 C19 106.2(10)
C17 C18 C115 131.1(11)
C19 C18 C115 122.3(9)
C20 C19 N4 117.9(12)
C20 C19 C18 130.7(12)
N4 C19 C18 110.4(10)
C22 C21 C26 120.0
C22 C21 C5 119.0(7)
C26 C21 C5 120.9(7)
C21 C22 C23 120.0
C21 C22 H22 120.0
C23 C22 H22 120.0
C24 C23 C22 120.0
C24 C23 H23 120.0
C22 C23 H23 120.0
C25 C24 C23 120.0
C25 C24 H24 120.0
C23 C24 H24 120.0
C24 C25 C26 120.0
C24 C25 H25 120.0
C26 C25 H25 120.0
C25 C26 C21 120.0
C25 C26 H26 120.0
C21 C26 H26 120.0
C9 C10 C27 129.0(12)
C9 C10 C11 117.7(11)
C27 C10 C11 112.0(10)
C28 C27 C32 120.0
C28 C27 C10 118.8(6)
C32 C27 C10 120.9(6)
C29 C28 C27 120.0
C29 C28 H28 120.0
C27 C28 H28 120.0
C28 C29 C30 120.0
C28 C29 H29 120.0
C30 C29 H29 120.0
C31 C30 C29 120.0
C31 C30 H30 120.0
C29 C30 H30 120.0
C30 C31 C32 120.0
C30 C31 H31 120.0
C32 C31 H31 120.0
C31 C32 C27 120.0
C31 C32 H32 120.0
C27 C32 H32 120.0
C14 C15 C16 117.4(12)
C14 C15 C33 124.9(11)
C16 C15 C33 116.4(10)
C34 C33 C38 120.0
C34 C33 C15 118.6(7)
C38 C33 C15 121.4(7)
C33 C34 C35 120.0
C33 C34 H34 120.0
C35 C34 H34 120.0
C36 C35 C34 120.0
C36 C35 H35 120.0
C34 C35 H35 120.0
C37 C36 C35 120.0
C37 C36 H36 120.0
C35 C36 H36 120.0
C36 C37 C38 120.0
C36 C37 H37 120.0
C38 C37 H37 120.0
C37 C38 C33 120.0
C37 C38 H38 120.0
C33 C38 H38 120.0
C19 C20 C39 126.7(11)
C19 C20 C1 118.7(11)
C39 C20 C1 113.6(10)
C40 C39 C44 120.0
C40 C39 C20 120.5(6)
C44 C39 C20 119.4(6)
C39 C40 C41 120.0
C39 C40 H40 120.0
C41 C40 H40 120.0
C42 C41 C40 120.0
C42 C41 H41 120.0
C40 C41 H41 120.0
C41 C42 C43 120.0
C41 C42 H42 120.0
C43 C42 H42 120.0
C42 C43 C44 120.0
C42 C43 H43 120.0
C44 C43 H43 120.0
C43 C44 C39 120.0
C43 C44 H44 120.0
C39 C44 H44 120.0
C1 N1 C4 104.6(10)
C49 C45 C46 108.0
C49 C45 C2 122.6(7)
C46 C45 C2 129.4(7)
C49 C45 Fe1 69.7(4)
C46 C45 Fe1 70.0(3)
C2 C45 Fe1 127.7(7)
C47 C46 C45 108.0
C47 C46 Fe1 70.2(4)
C45 C46 Fe1 68.9(4)
C47 C46 H46 126.0
C45 C46 H46 126.0
Fe1 C46 H46 126.4
C46 C47 C48 108.0
C46 C47 Fe1 69.0(4)
C48 C47 Fe1 69.5(4)
C46 C47 H47 126.0
C48 C47 H47 126.0
Fe1 C47 H47 127.0
C49 C48 C47 108.0
C49 C48 Fe1 68.9(4)
C47 C48 Fe1 69.8(3)
C49 C48 H48 126.0
C47 C48 H48 126.0
Fe1 C48 H48 126.9
C48 C49 C45 108.0
C48 C49 Fe1 70.3(4)
C45 C49 Fe1 69.1(4)
C48 C49 H49 126.0
C45 C49 H49 126.0
Fe1 C49 H49 126.2
C45 Fe1 C49 41.16(18)
C45 Fe1 C46 41.09(17)
C49 Fe1 C46 69.0(2)
C45 Fe1 C48 69.0(2)
C49 Fe1 C48 40.88(18)
C46 Fe1 C48 68.7(2)
C45 Fe1 C47 68.9(2)
C49 Fe1 C47 68.7(2)
C46 Fe1 C47 40.77(15)
C48 Fe1 C47 40.64(16)
C45 Fe1 C53 151.7(4)
C49 Fe1 C53 116.8(4)
C46 Fe1 C53 165.1(4)
C48 Fe1 C53 106.1(4)
C47 Fe1 C53 126.5(4)
C45 Fe1 C54 117.7(4)
C49 Fe1 C54 104.8(4)
C46 Fe1 C54 153.9(4)
C48 Fe1 C54 124.1(4)
C47 Fe1 C54 162.4(4)
C53 Fe1 C54 40.50(18)
C45 Fe1 C52 166.0(4)
C49 Fe1 C52 152.4(4)
C46 Fe1 C52 128.9(4)
C48 Fe1 C52 119.7(4)
C47 Fe1 C52 109.7(3)
C53 Fe1 C52 40.45(18)
C54 Fe1 C52 68.0(2)
C45 Fe1 C50 107.5(3)
C49 Fe1 C50 124.8(4)
C46 Fe1 C50 121.2(4)
C48 Fe1 C50 161.8(4)
C47 Fe1 C50 156.4(4)
C53 Fe1 C50 68.0(2)
C54 Fe1 C50 40.41(17)
C52 Fe1 C50 67.8(2)
C45 Fe1 C51 127.8(4)
C49 Fe1 C51 163.6(4)
C46 Fe1 C51 110.6(3)
C48 Fe1 C51 155.4(4)
C47 Fe1 C51 122.5(4)
C53 Fe1 C51 67.9(2)
C54 Fe1 C51 67.9(2)
C52 Fe1 C51 40.32(18)
C50 Fe1 C51 40.29(18)
C51 C50 C54 108.0
C51 C50 Fe1 70.0(4)
C54 C50 Fe1 69.5(4)
C51 C50 H50 126.0
C54 C50 H50 126.0
Fe1 C50 H50 126.1
C50 C51 C52 108.0
C50 C51 Fe1 69.7(4)
C52 C51 Fe1 69.6(4)
C50 C51 H51 126.0
C52 C51 H51 126.0
Fe1 C51 H51 126.2
C53 C52 C51 108.0
C53 C52 Fe1 69.5(4)
C51 C52 Fe1 70.1(4)
C53 C52 H52 126.0
C51 C52 H52 126.0
Fe1 C52 H52 126.0
C52 C53 C54 108.0
C52 C53 Fe1 70.0(4)
C54 C53 Fe1 69.8(4)
C52 C53 H53 126.0
C54 C53 H53 126.0
Fe1 C53 H53 125.7
C50 C54 C53 108.0
C50 C54 Fe1 70.1(4)
C53 C54 Fe1 69.7(4)
C50 C54 H54 126.0
C53 C54 H54 126.0
Fe1 C54 H54 125.8
C6 N2 C9 104.3(11)
C56 C55 C59 108.0
C56 C55 C3 122.8(8)
C59 C55 C3 129.2(8)
C56 C55 Fe2 68.2(3)
C59 C55 Fe2 71.9(3)
C3 C55 Fe2 126.7(7)
C55 C56 C57 108.0
C55 C56 Fe2 70.6(3)
C57 C56 Fe2 70.8(3)
C55 C56 H56 126.0
C57 C56 H56 126.0
Fe2 C56 H56 124.2
C58 C57 C56 108.0
C58 C57 Fe2 71.9(3)
C56 C57 Fe2 68.1(3)
C58 C57 H57 126.0
C56 C57 H57 126.0
Fe2 C57 H57 125.6
C57 C58 C59 108.0
C57 C58 Fe2 67.9(3)
C59 C58 Fe2 70.0(3)
C57 C58 H58 126.0
C59 C58 H58 126.0
Fe2 C58 H58 127.6
C55 C59 C58 108.0
C55 C59 Fe2 67.8(3)
C58 C59 Fe2 70.2(3)
C55 C59 H59 126.0
C58 C59 H59 126.0
Fe2 C59 H59 127.5
C56 Fe2 C55 41.17(15)
C56 Fe2 C60 122.8(4)
C55 Fe2 C60 108.9(3)
C56 Fe2 C61 103.2(3)
C55 Fe2 C61 119.8(4)
C60 Fe2 C61 40.77(17)
C56 Fe2 C57 41.12(15)
C55 Fe2 C57 68.67(18)
C60 Fe2 C57 158.5(4)
C61 Fe2 C57 120.5(4)
C56 Fe2 C64 161.9(4)
C55 Fe2 C64 128.2(3)
C60 Fe2 C64 40.51(16)
C61 Fe2 C64 68.1(2)
C57 Fe2 C64 156.9(4)
C56 Fe2 C62 116.8(3)
C55 Fe2 C62 153.6(4)
C60 Fe2 C62 68.1(2)
C61 Fe2 C62 40.48(17)
C57 Fe2 C62 104.1(3)
C64 Fe2 C62 67.61(19)
C56 Fe2 C63 153.1(4)
C55 Fe2 C63 165.2(4)
C60 Fe2 C63 67.8(2)
C61 Fe2 C63 67.8(2)
C57 Fe2 C63 120.0(3)
C64 Fe2 C63 40.07(15)
C62 Fe2 C63 40.05(16)
C56 Fe2 C59 68.28(19)
C55 Fe2 C59 40.26(15)
C60 Fe2 C59 125.2(3)
C61 Fe2 C59 157.5(4)
C57 Fe2 C59 67.6(2)
C64 Fe2 C59 113.4(3)
C62 Fe2 C59 162.1(4)
C63 Fe2 C59 128.9(3)
C56 Fe2 C58 68.23(19)
C55 Fe2 C58 67.7(2)
C60 Fe2 C58 160.4(4)
C61 Fe2 C58 158.3(4)
C57 Fe2 C58 40.20(16)
C64 Fe2 C58 125.4(3)
C62 Fe2 C58 124.0(4)
C63 Fe2 C58 110.3(3)
C59 Fe2 C58 39.72(16)
C64 C60 C61 108.0
C64 C60 Fe2 70.7(3)
C61 C60 Fe2 69.7(4)
C64 C60 H60 126.0
C61 C60 H60 126.0
Fe2 C60 H60 125.2
C62 C61 C60 108.0
C62 C61 Fe2 70.8(4)
C60 C61 Fe2 69.6(3)
C62 C61 H61 126.0
C60 C61 H61 126.0
Fe2 C61 H61 125.2
C61 C62 C63 108.0
C61 C62 Fe2 68.7(4)
C63 C62 Fe2 70.6(3)
C61 C62 H62 126.0
C63 C62 H62 126.0
Fe2 C62 H62 126.3
C64 C63 C62 108.0
C64 C63 Fe2 69.3(3)
C62 C63 Fe2 69.4(3)
C64 C63 H63 126.0
C62 C63 H63 126.0
Fe2 C63 H63 126.9
C60 C64 C63 108.0
C60 C64 Fe2 68.7(4)
C63 C64 Fe2 70.6(3)
C60 C64 H64 126.0
C63 C64 H64 126.0
Fe2 C64 H64 126.2
C11 N3 C14 105.5(10)
C74 C70 C71 108.0
C74 C70 Fe3 70.5(5)
C71 C70 Fe3 69.2(4)
C74 C70 H70 126.0
C71 C70 H70 126.0
Fe3 C70 H70 125.9
C70 C71 C72 108.0
C70 C71 Fe3 70.7(5)
C72 C71 Fe3 69.8(5)
C70 C71 H71 126.0
C72 C71 H71 126.0
Fe3 C71 H71 125.2
C73 C72 C71 108.0
C73 C72 Fe3 70.6(5)
C71 C72 Fe3 69.9(5)
C73 C72 H72 126.0
C71 C72 H72 126.0
Fe3 C72 H72 125.1
C72 C73 C74 108.0
C72 C73 Fe3 69.2(5)
C74 C73 Fe3 70.6(5)
C72 C73 H73 126.0
C74 C73 H73 126.0
Fe3 C73 H73 125.8
C70 C74 C73 108.0
C70 C74 Fe3 69.7(5)
C73 C74 Fe3 69.6(4)
C70 C74 H74 126.0
C73 C74 H74 126.0
Fe3 C74 H74 126.3
C66 C65 C69 108.0
C66 C65 C7 127(2)
C69 C65 C7 125(2)
C66 C65 Fe3 69.6(4)
C69 C65 Fe3 69.7(5)
C7 C65 Fe3 125.2(16)
C65 C66 C67 108.0
C65 C66 Fe3 69.7(5)
C67 C66 Fe3 69.7(4)
C65 C66 H66 126.0
C67 C66 H66 126.0
Fe3 C66 H66 126.2
C68 C67 C66 108.0
C68 C67 Fe3 69.7(5)
C66 C67 Fe3 69.6(5)
C68 C67 H67 126.0
C66 C67 H67 126.0
Fe3 C67 H67 126.2
C67 C68 C69 108.0
C67 C68 Fe3 69.6(4)
C69 C68 Fe3 69.7(5)
C67 C68 H68 126.0
C69 C68 H68 126.0
Fe3 C68 H68 126.3
C68 C69 C65 108.0
C68 C69 Fe3 69.6(4)
C65 C69 Fe3 69.6(5)
C68 C69 H69 126.0
C65 C69 H69 126.0
Fe3 C69 H69 126.3
C66 Fe3 C67 40.7(3)
C66 Fe3 C65 40.7(3)
C67 Fe3 C65 68.5(5)
C66 Fe3 C68 68.5(5)
C67 Fe3 C68 40.7(3)
C65 Fe3 C68 68.5(6)
C66 Fe3 C69 68.5(6)
C67 Fe3 C69 68.5(6)
C65 Fe3 C69 40.7(4)
C68 Fe3 C69 40.7(4)
C66 Fe3 C72 128.0(14)
C67 Fe3 C72 109.7(12)
C65 Fe3 C72 164.5(15)
C68 Fe3 C72 121.0(12)
C69 Fe3 C72 154.3(14)
C66 Fe3 C71 112.8(14)
C67 Fe3 C71 126.1(15)
C65 Fe3 C71 127.4(13)
C68 Fe3 C71 158.8(14)
C69 Fe3 C71 160.5(13)
C72 Fe3 C71 40.3(3)
C66 Fe3 C73 161.7(12)
C67 Fe3 C73 123.1(11)
C65 Fe3 C73 154.1(14)
C68 Fe3 C73 104.4(12)
C69 Fe3 C73 117.8(14)
C72 Fe3 C73 40.2(3)
C71 Fe3 C73 67.5(5)
C66 Fe3 C70 125.8(12)
C67 Fe3 C70 161.9(15)
C65 Fe3 C70 109.1(11)
C68 Fe3 C70 156.7(15)
C69 Fe3 C70 122.3(13)
C72 Fe3 C70 67.5(5)
C71 Fe3 C70 40.1(3)
C73 Fe3 C70 67.1(5)
C66 Fe3 C74 158.3(12)
C67 Fe3 C74 157.3(14)
C65 Fe3 C74 120.6(12)
C68 Fe3 C74 119.9(15)
C69 Fe3 C74 104.1(14)
C72 Fe3 C74 67.3(5)
C71 Fe3 C74 67.3(6)
C73 Fe3 C74 39.9(3)
C70 Fe3 C74 39.8(3)
C66' C65' C69' 108.0
C66' C65' C7 125.9(16)
C69' C65' C7 126.0(16)
C66' C65' Fe3' 69.9(4)
C69' C65' Fe3' 69.2(4)
C7 C65' Fe3' 129.4(13)
C65' C66' C67' 108.0
C65' C66' Fe3' 69.5(4)
C67' C66' Fe3' 69.4(4)
C65' C66' H66' 126.0
C67' C66' H66' 126.0
Fe3' C66' H66' 126.7
C66' C67' C68' 108.0
C66' C67' Fe3' 69.9(4)
C68' C67' Fe3' 69.2(4)
C66' C67' H67' 126.0
C68' C67' H67' 126.0
Fe3' C67' H67' 126.4
C69' C68' C67' 108.0
C69' C68' Fe3' 69.6(4)
C67' C68' Fe3' 69.9(4)
C69' C68' H68' 126.0
C67' C68' H68' 126.0
Fe3' C68' H68' 126.1
C68' C69' C65' 108.0
C68' C69' Fe3' 69.5(4)
C65' C69' Fe3' 70.0(4)
C68' C69' H69' 126.0
C65' C69' H69' 126.0
Fe3' C69' H69' 126.1
C73' Fe3' C72' 41.0(3)
C73' Fe3' C68' 105.7(8)
C72' Fe3' C68' 119.4(8)
C73' Fe3' C69' 121.9(9)
C72' Fe3' C69' 156.4(9)
C68' Fe3' C69' 40.9(3)
C73' Fe3' C67' 121.3(8)
C72' Fe3' C67' 104.5(8)
C68' Fe3' C67' 40.8(3)
C69' Fe3' C67' 68.7(4)
C73' Fe3' C65' 159.0(9)
C72' Fe3' C65' 159.6(9)
C68' Fe3' C65' 68.7(4)
C69' Fe3' C65' 40.8(3)
C67' Fe3' C65' 68.5(4)
C73' Fe3' C74' 40.9(3)
C72' Fe3' C74' 68.7(4)
C68' Fe3' C74' 123.9(9)
C69' Fe3' C74' 109.2(9)
C67' Fe3' C74' 159.1(9)
C65' Fe3' C74' 124.4(8)
C73' Fe3' C71' 68.7(4)
C72' Fe3' C71' 40.8(3)
C68' Fe3' C71' 155.4(9)
C69' Fe3' C71' 162.1(9)
C67' Fe3' C71' 120.2(9)
C65' Fe3' C71' 124.9(8)
C74' Fe3' C71' 68.4(4)
C73' Fe3' C66' 158.0(8)
C72' Fe3' C66' 121.8(9)
C68' Fe3' C66' 68.6(4)
C69' Fe3' C66' 68.6(4)
C67' Fe3' C66' 40.7(3)
C65' Fe3' C66' 40.6(3)
C74' Fe3' C66' 159.6(8)
C71' Fe3' C66' 107.2(8)
C73' Fe3' C70' 68.5(4)
C72' Fe3' C70' 68.5(4)
C68' Fe3' C70' 161.6(10)
C69' Fe3' C70' 126.2(9)
C67' Fe3' C70' 157.2(9)
C65' Fe3' C70' 110.1(7)
C74' Fe3' C70' 40.6(3)
C71' Fe3' C70' 40.5(3)
C66' Fe3' C70' 123.3(8)
C74' C70' C71' 108.0
C74' C70' Fe3' 69.2(4)
C71' C70' Fe3' 69.5(4)
C74' C70' H70' 126.0
C71' C70' H70' 126.0
Fe3' C70' H70' 126.9
C72' C71' C70' 108.0
C72' C71' Fe3' 69.0(4)
C70' C71' Fe3' 70.0(4)
C72' C71' H71' 126.0
C70' C71' H71' 126.0
Fe3' C71' H71' 126.6
C73' C72' C71' 108.0
C73' C72' Fe3' 69.4(4)
C71' C72' Fe3' 70.3(4)
C73' C72' H72' 126.0
C71' C72' H72' 126.0
Fe3' C72' H72' 125.9
C72' C73' C74' 108.0
C72' C73' Fe3' 69.6(4)
C74' C73' Fe3' 70.2(4)
C72' C73' H73' 126.0
C74' C73' H73' 126.0
Fe3' C73' H73' 125.8
C73' C74' C70' 108.0
C73' C74' Fe3' 69.0(4)
C70' C74' Fe3' 70.2(4)
C73' C74' H74' 126.0
C70' C74' H74' 126.0
Fe3' C74' H74' 126.4
C16 N4 C19 106.0(10)
C76 C75 C79 108.0
C76 C75 C8 120.6(7)
C79 C75 C8 130.6(7)
C76 C75 Fe4 69.3(4)
C79 C75 Fe4 70.2(4)
C8 C75 Fe4 133.4(8)
C75 C76 C77 108.0
C75 C76 Fe4 70.0(4)
C77 C76 Fe4 69.8(4)
C75 C76 H76 126.0
C77 C76 H76 126.0
Fe4 C76 H76 125.7
C78 C77 C76 108.0
C78 C77 Fe4 70.2(4)
C76 C77 Fe4 69.5(4)
C78 C77 H77 126.0
C76 C77 H77 126.0
Fe4 C77 H77 125.9
C77 C78 C79 108.0
C77 C78 Fe4 69.3(4)
C79 C78 Fe4 69.9(4)
C77 C78 H78 126.0
C79 C78 H78 126.0
Fe4 C78 H78 126.4
C78 C79 C75 108.0
C78 C79 Fe4 69.7(4)
C75 C79 Fe4 69.4(4)
C78 C79 H79 126.0
C75 C79 H79 126.0
Fe4 C79 H79 126.5
C81 Fe4 C80 41.1(2)
C81 Fe4 C82 41.0(2)
C80 Fe4 C82 68.9(3)
C81 Fe4 C76 103.2(4)
C80 Fe4 C76 119.3(4)
C82 Fe4 C76 120.2(4)
C81 Fe4 C77 114.8(4)
C80 Fe4 C77 151.8(5)
C82 Fe4 C77 102.2(4)
C76 Fe4 C77 40.71(18)
C81 Fe4 C84 68.8(3)
C80 Fe4 C84 40.8(2)
C82 Fe4 C84 68.5(3)
C76 Fe4 C84 157.1(5)
C77 Fe4 C84 162.2(5)
C81 Fe4 C75 124.4(4)
C80 Fe4 C75 110.1(4)
C82 Fe4 C75 159.0(5)
C76 Fe4 C75 40.65(17)
C77 Fe4 C75 68.3(2)
C84 Fe4 C75 125.4(5)
C81 Fe4 C83 68.7(3)
C80 Fe4 C83 68.6(3)
C82 Fe4 C83 40.6(2)
C76 Fe4 C83 158.2(5)
C77 Fe4 C83 122.8(5)
C84 Fe4 C83 40.5(2)
C75 Fe4 C83 160.0(5)
C81 Fe4 C78 150.7(5)
C80 Fe4 C78 167.2(4)
C82 Fe4 C78 117.6(5)
C76 Fe4 C78 68.3(2)
C77 Fe4 C78 40.5(2)
C84 Fe4 C78 129.0(5)
C75 Fe4 C78 68.1(2)
C83 Fe4 C78 108.5(5)
C81 Fe4 C79 163.9(5)
C80 Fe4 C79 130.1(4)
C82 Fe4 C79 155.1(5)
C76 Fe4 C79 68.2(2)
C77 Fe4 C79 68.1(3)
C84 Fe4 C79 113.6(4)
C75 Fe4 C79 40.45(17)
C83 Fe4 C79 124.2(5)
C78 Fe4 C79 40.38(19)
C81 C80 C84 108.0
C81 C80 Fe4 69.3(5)
C84 C80 Fe4 70.4(5)
C81 C80 H80 126.0
C84 C80 H80 126.0
Fe4 C80 H80 125.9
C80 C81 C82 108.0
C80 C81 Fe4 69.6(5)
C82 C81 Fe4 70.2(5)
C80 C81 H81 126.0
C82 C81 H81 126.0
Fe4 C81 H81 125.7
C83 C82 C81 108.0
C83 C82 Fe4 70.3(5)
C81 C82 Fe4 68.8(5)
C83 C82 H82 126.0
C81 C82 H82 126.0
Fe4 C82 H82 126.4
C82 C83 C84 108.0
C82 C83 Fe4 69.1(5)
C84 C83 Fe4 69.4(5)
C82 C83 H83 126.0
C84 C83 H83 126.0
Fe4 C83 H83 127.1
C83 C84 C80 108.0
C83 C84 Fe4 70.0(5)
C80 C84 Fe4 68.8(5)
C83 C84 H84 126.0
C80 C84 H84 126.0
Fe4 C84 H84 126.8
H5 O1 H6 106(5)
C89 C85 C86 108.0
C89 C85 C12 127.3(7)
C86 C85 C12 124.6(7)
C89 C85 Fe5 70.1(3)
C86 C85 Fe5 69.2(4)
C12 C85 Fe5 124.2(7)
C87 C86 C85 108.0
C87 C86 Fe5 69.8(3)
C85 C86 Fe5 69.9(3)
C87 C86 H86 126.0
C85 C86 H86 126.0
Fe5 C86 H86 125.9
C86 C87 C88 108.0
C86 C87 Fe5 69.3(3)
C88 C87 Fe5 70.2(3)
C86 C87 H87 126.0
C88 C87 H87 126.0
Fe5 C87 H87 126.2
C89 C88 C87 108.0
C89 C88 Fe5 69.7(3)
C87 C88 Fe5 69.1(4)
C89 C88 H88 126.0
C87 C88 H88 126.0
Fe5 C88 H88 126.7
C85 C89 C88 108.0
C85 C89 Fe5 69.2(3)
C88 C89 Fe5 69.7(3)
C85 C89 H89 126.0
C88 C89 H89 126.0
Fe5 C89 H89 126.7
C86 Fe5 C87 40.92(17)
C86 Fe5 C85 40.91(16)
C87 Fe5 C85 68.7(2)
C86 Fe5 C92 122.4(3)
C87 Fe5 C92 106.6(3)
C85 Fe5 C92 159.2(3)
C86 Fe5 C91 105.7(3)
C87 Fe5 C91 120.4(3)
C85 Fe5 C91 122.9(3)
C92 Fe5 C91 40.65(17)
C86 Fe5 C88 68.6(2)
C87 Fe5 C88 40.70(16)
C85 Fe5 C88 68.5(2)
C92 Fe5 C88 122.0(3)
C91 Fe5 C88 156.8(3)
C86 Fe5 C89 68.6(2)
C87 Fe5 C89 68.5(2)
C85 Fe5 C89 40.68(16)
C92 Fe5 C89 158.3(3)
C91 Fe5 C89 160.3(3)
C88 Fe5 C89 40.56(15)
C86 Fe5 C93 159.8(4)
C87 Fe5 C93 124.1(3)
C85 Fe5 C93 158.5(4)
C92 Fe5 C93 40.58(17)
C91 Fe5 C93 68.2(2)
C88 Fe5 C93 108.9(3)
C89 Fe5 C93 123.4(3)
C86 Fe5 C90 120.7(3)
C87 Fe5 C90 156.1(4)
C85 Fe5 C90 107.5(3)
C92 Fe5 C90 68.2(2)
C91 Fe5 C90 40.49(16)
C88 Fe5 C90 161.8(4)
C89 Fe5 C90 124.9(3)
C93 Fe5 C90 68.0(2)
C86 Fe5 C94 157.1(3)
C87 Fe5 C94 161.4(3)
C85 Fe5 C94 122.6(3)
C92 Fe5 C94 68.1(2)
C91 Fe5 C94 68.0(2)
C88 Fe5 C94 125.7(3)
C89 Fe5 C94 109.5(3)
C93 Fe5 C94 40.38(18)
C90 Fe5 C94 40.33(17)
C91 C90 C94 108.0
C91 C90 Fe5 69.3(4)
C94 C90 Fe5 70.0(4)
C91 C90 H90 126.0
C94 C90 H90 126.0
Fe5 C90 H90 126.3
C90 C91 C92 108.0
C90 C91 Fe5 70.2(4)
C92 C91 Fe5 69.5(4)
C90 C91 H91 126.0
C92 C91 H91 126.0
Fe5 C91 H91 125.8
C91 C92 C93 108.0
C91 C92 Fe5 69.8(3)
C93 C92 Fe5 70.1(4)
C91 C92 H92 126.0
C93 C92 H92 126.0
Fe5 C92 H92 125.7
C94 C93 C92 108.0
C94 C93 Fe5 70.2(4)
C92 C93 Fe5 69.3(4)
C94 C93 H93 126.0
C92 C93 H93 126.0
Fe5 C93 H93 126.1
C93 C94 C90 108.0
C93 C94 Fe5 69.4(4)
C90 C94 Fe5 69.7(3)
C93 C94 H94 126.0
C90 C94 H94 126.0
Fe5 C94 H94 126.4
H7 O2 H8 105(5)
C99 C95 C96 108.0
C99 C95 C13 129.7(7)
C96 C95 C13 122.3(7)
C99 C95 Fe6 70.7(4)
C96 C95 Fe6 68.3(4)
C13 C95 Fe6 126.7(7)
C95 C96 C97 108.0
C95 C96 Fe6 71.0(4)
C97 C96 Fe6 69.4(4)
C95 C96 H96 126.0
C97 C96 H96 126.0
Fe6 C96 H96 125.2
C96 C97 C98 108.0
C96 C97 Fe6 69.4(3)
C98 C97 Fe6 70.9(4)
C96 C97 H97 126.0
C98 C97 H97 126.0
Fe6 C97 H97 125.2
C99 C98 C97 108.0
C99 C98 Fe6 70.7(3)
C97 C98 Fe6 68.3(3)
C99 C98 H98 126.0
C97 C98 H98 126.0
Fe6 C98 H98 126.6
C95 C99 C98 108.0
C95 C99 Fe6 69.1(3)
C98 C99 Fe6 69.1(4)
C95 C99 H99 126.0
C98 C99 H99 126.0
Fe6 C99 H99 127.4
C97 Fe6 C96 41.18(17)
C97 Fe6 C101 103.5(4)
C96 Fe6 C101 118.4(4)
C97 Fe6 C102 120.4(4)
C96 Fe6 C102 155.2(4)
C101 Fe6 C102 40.60(18)
C97 Fe6 C100 119.4(4)
C96 Fe6 C100 104.1(4)
C101 Fe6 C100 40.58(19)
C102 Fe6 C100 68.2(2)
C97 Fe6 C103 158.3(4)
C96 Fe6 C103 160.4(4)
C101 Fe6 C103 68.2(2)
C102 Fe6 C103 40.54(17)
C100 Fe6 C103 68.1(2)
C97 Fe6 C104 156.9(4)
C96 Fe6 C104 122.2(4)
C101 Fe6 C104 68.2(3)
C102 Fe6 C104 68.2(2)
C100 Fe6 C104 40.5(2)
C103 Fe6 C104 40.47(18)
C97 Fe6 C98 40.80(19)
C96 Fe6 C98 68.7(2)
C101 Fe6 C98 121.9(4)
C102 Fe6 C98 108.5(4)
C100 Fe6 C98 156.7(4)
C103 Fe6 C98 125.4(4)
C104 Fe6 C98 161.7(4)
C97 Fe6 C95 68.7(2)
C96 Fe6 C95 40.78(15)
C101 Fe6 C95 155.7(4)
C102 Fe6 C95 163.0(4)
C100 Fe6 C95 121.8(4)
C103 Fe6 C95 126.9(3)
C104 Fe6 C95 109.6(3)
C98 Fe6 C95 68.0(2)
C97 Fe6 C99 68.2(2)
C96 Fe6 C99 68.2(2)
C101 Fe6 C99 159.9(4)
C102 Fe6 C99 126.5(4)
C100 Fe6 C99 159.5(4)
C103 Fe6 C99 112.4(3)
C104 Fe6 C99 126.3(4)
C98 Fe6 C99 40.22(18)
C95 Fe6 C99 40.21(16)
C104 C100 C101 108.0
C104 C100 Fe6 69.9(4)
C101 C100 Fe6 69.6(4)
C104 C100 H100 126.0
C101 C100 H100 126.0
Fe6 C100 H100 126.1
C102 C101 C100 108.0
C102 C101 Fe6 69.8(4)
C100 C101 Fe6 69.9(4)
C102 C101 H101 126.0
C100 C101 H101 126.0
Fe6 C101 H101 126.0
C103 C102 C101 108.0
C103 C102 Fe6 69.9(4)
C101 C102 Fe6 69.6(4)
C103 C102 H102 126.0
C101 C102 H102 126.0
Fe6 C102 H102 126.0
C102 C103 C104 108.0
C102 C103 Fe6 69.6(4)
C104 C103 Fe6 69.8(4)
C102 C103 H103 126.0
C104 C103 H103 126.0
Fe6 C103 H103 126.2
C100 C104 C103 108.0
C100 C104 Fe6 69.6(4)
C103 C104 Fe6 69.7(4)
C100 C104 H104 126.0
C103 C104 H104 126.0
Fe6 C104 H104 126.3
C4 C5 C21 126.3(11)
C4 C5 C6 120.0(12)
C21 C5 C6 112.7(9)
C106 C105 C109 108.0
C106 C105 C17 126.6(7)
C109 C105 C17 125.4(7)
C106 C105 Fe7 68.8(3)
C109 C105 Fe7 69.7(3)
C17 C105 Fe7 128.0(7)
C105 C106 C107 108.0
C105 C106 Fe7 70.5(3)
C107 C106 Fe7 68.8(3)
C105 C106 H106 126.0
C107 C106 H106 126.0
Fe7 C106 H106 126.2
C108 C107 C106 108.0
C108 C107 Fe7 69.9(4)
C106 C107 Fe7 70.2(3)
C108 C107 H107 126.0
C106 C107 H107 126.0
Fe7 C107 H107 125.5
C109 C108 C107 108.0
C109 C108 Fe7 70.6(3)
C107 C108 Fe7 69.0(3)
C109 C108 H108 126.0
C107 C108 H108 126.0
Fe7 C108 H108 126.0
C108 C109 C105 108.0
C108 C109 Fe7 68.7(3)
C105 C109 Fe7 69.9(3)
C108 C109 H109 126.0
C105 C109 H109 126.0
Fe7 C109 H109 126.9
C107 Fe7 C108 41.10(17)
C107 Fe7 C106 41.04(16)
C108 Fe7 C106 68.9(2)
C107 Fe7 C112 106.6(3)
C108 Fe7 C112 120.4(4)
C106 Fe7 C112 124.4(4)
C107 Fe7 C109 68.7(2)
C108 Fe7 C109 40.71(17)
C106 Fe7 C109 68.4(2)
C112 Fe7 C109 156.1(4)
C107 Fe7 C111 119.7(4)
C108 Fe7 C111 155.2(4)
C106 Fe7 C111 107.0(4)
C112 Fe7 C111 40.4(2)
C109 Fe7 C111 162.5(4)
C107 Fe7 C105 68.7(2)
C108 Fe7 C105 68.4(2)
C106 Fe7 C105 40.61(16)
C112 Fe7 C105 161.8(4)
C109 Fe7 C105 40.42(16)
C111 Fe7 C105 125.3(4)
C107 Fe7 C113 124.8(4)
C108 Fe7 C113 108.0(4)
C106 Fe7 C113 161.7(4)
C112 Fe7 C113 40.37(18)
C109 Fe7 C113 121.8(4)
C111 Fe7 C113 67.8(2)
C105 Fe7 C113 156.6(4)
C107 Fe7 C110 155.1(4)
C108 Fe7 C110 162.9(4)
C106 Fe7 C110 120.6(4)
C112 Fe7 C110 67.8(3)
C109 Fe7 C110 126.2(4)
C111 Fe7 C110 40.3(2)
C105 Fe7 C110 108.6(4)
C113 Fe7 C110 67.7(2)
C107 Fe7 C114 162.3(4)
C108 Fe7 C114 125.9(4)
C106 Fe7 C114 156.0(4)
C112 Fe7 C114 67.7(2)
C109 Fe7 C114 109.2(4)
C111 Fe7 C114 67.7(3)
C105 Fe7 C114 121.9(3)
C113 Fe7 C114 40.20(17)
C110 Fe7 C114 40.18(19)
C114 C110 C111 108.0
C114 C110 Fe7 70.1(4)
C111 C110 Fe7 69.5(4)
C114 C110 H110 126.0
C111 C110 H110 126.0
Fe7 C110 H110 126.0
C112 C111 C110 108.0
C112 C111 Fe7 69.7(4)
C110 C111 Fe7 70.2(4)
C112 C111 H111 126.0
C110 C111 H111 126.0
Fe7 C111 H111 125.6
C111 C112 C113 108.0
C111 C112 Fe7 69.8(4)
C113 C112 Fe7 70.2(4)
C111 C112 H112 126.0
C113 C112 H112 126.0
Fe7 C112 H112 125.6
C112 C113 C114 108.0
C112 C113 Fe7 69.5(4)
C114 C113 Fe7 70.2(4)
C112 C113 H113 126.0
C114 C113 H113 126.0
Fe7 C113 H113 125.9
C110 C114 C113 108.0
C110 C114 Fe7 69.7(4)
C113 C114 Fe7 69.6(4)
C110 C114 H114 126.0
C113 C114 H114 126.0
Fe7 C114 H114 126.2
C3 C2 C1 105.9(11)
C3 C2 C45 132.7(12)
C1 C2 C45 121.4(11)
C116 C115 C119 108.0
C116 C115 C18 121.1(7)
C119 C115 C18 130.2(7)
C116 C115 Fe8 69.5(3)
C119 C115 Fe8 69.7(4)
C18 C115 Fe8 134.0(7)
C115 C116 C117 108.0
C115 C116 Fe8 70.3(3)
C117 C116 Fe8 69.3(4)
C115 C116 H116 126.0
C117 C116 H116 126.0
Fe8 C116 H116 126.0
C118 C117 C116 108.0
C118 C117 Fe8 69.8(4)
C116 C117 Fe8 70.3(4)
C118 C117 H117 126.0
C116 C117 H117 126.0
Fe8 C117 H117 125.5
C117 C118 C119 108.0
C117 C118 Fe8 69.6(3)
C119 C118 Fe8 70.4(3)
C117 C118 H118 126.0
C119 C118 H118 126.0
Fe8 C118 H118 125.6
C118 C119 C115 108.0
C118 C119 Fe8 69.2(3)
C115 C119 Fe8 70.1(4)
C118 C119 H119 126.0
C115 C119 H119 126.0
Fe8 C119 H119 126.2
C123 Fe8 C122 40.72(18)
C123 Fe8 C124 40.70(17)
C122 Fe8 C124 68.5(2)
C123 Fe8 C117 158.3(4)
C122 Fe8 C117 120.0(3)
C124 Fe8 C117 156.5(4)
C123 Fe8 C121 68.4(2)
C122 Fe8 C121 40.65(17)
C124 Fe8 C121 68.4(2)
C117 Fe8 C121 103.0(3)
C123 Fe8 C120 68.4(2)
C122 Fe8 C120 68.4(2)
C124 Fe8 C120 40.63(19)
C117 Fe8 C120 118.8(4)
C121 Fe8 C120 40.59(18)
C123 Fe8 C118 125.3(4)
C122 Fe8 C118 107.6(4)
C124 Fe8 C118 162.5(4)
C117 Fe8 C118 40.59(17)
C121 Fe8 C118 120.6(4)
C120 Fe8 C118 155.5(4)
C123 Fe8 C116 161.2(4)
C122 Fe8 C116 154.9(3)
C124 Fe8 C116 123.0(4)
C117 Fe8 C116 40.49(16)
C121 Fe8 C116 118.6(3)
C120 Fe8 C116 104.8(4)
C118 Fe8 C116 68.0(2)
C123 Fe8 C119 112.5(3)
C122 Fe8 C119 126.0(4)
C124 Fe8 C119 127.2(3)
C117 Fe8 C119 68.0(2)
C121 Fe8 C119 158.8(4)
C120 Fe8 C119 160.5(4)
C118 Fe8 C119 40.40(17)
C116 Fe8 C119 67.75(19)
C123 Fe8 C115 127.6(3)
C122 Fe8 C115 163.1(4)
C124 Fe8 C115 110.7(3)
C117 Fe8 C115 67.88(19)
C121 Fe8 C115 156.0(4)
C120 Fe8 C115 122.7(4)
C118 Fe8 C115 67.82(19)
C116 Fe8 C115 40.24(15)
C119 Fe8 C115 40.19(15)
C124 C120 C121 108.0
C124 C120 Fe8 69.5(4)
C121 C120 Fe8 69.7(4)
C124 C120 H120 126.0
C121 C120 H120 126.0
Fe8 C120 H120 126.4
C120 C121 C122 108.0
C120 C121 Fe8 69.7(4)
C122 C121 Fe8 69.5(4)
C120 C121 H121 126.0
C122 C121 H121 126.0
Fe8 C121 H121 126.3
C123 C122 C121 108.0
C123 C122 Fe8 69.6(4)
C121 C122 Fe8 69.8(4)
C123 C122 H122 126.0
C121 C122 H122 126.0
Fe8 C122 H122 126.2
C122 C123 C124 108.0
C122 C123 Fe8 69.7(4)
C124 C123 Fe8 69.8(4)
C122 C123 H123 126.0
C124 C123 H123 126.0
Fe8 C123 H123 126.1
C120 C124 C123 108.0
C120 C124 Fe8 69.8(4)
C123 C124 Fe8 69.5(4)
C120 C124 H124 126.0
C123 C124 H124 126.0
Fe8 C124 H124 126.2
Cl6 C3CC Cl5 107(2)
Cl6 C3CC H3C1 110.3
Cl5 C3CC H3C1 109.5
Cl6 C3CC H3C2 110.5
Cl5 C3CC H3C2 110.7
H3C1 C3CC H3C2 108.5
Cl5' C3C' Cl6' 106(2)
Cl5' C3C' H3C3 111.0
Cl6' C3C' H3C3 110.7
Cl5' C3C' H3C4 109.6
Cl6' C3C' H3C4 110.8
H3C3 C3C' H3C4 108.7
Cl1 C1CC Cl2 113.8(18)
Cl1 C1CC H1C1 108.8
Cl2 C1CC H1C1 108.8
Cl1 C1CC H1C2 108.8
Cl2 C1CC H1C2 108.8
H1C1 C1CC H1C2 107.7
Cl4 C2CC Cl3 111(2)
Cl4 C2CC H2C1 109.5
Cl3 C2CC H2C1 109.5
Cl4 C2CC H2C2 109.5
Cl3 C2CC H2C2 109.5
H2C1 C2CC H2C2 108.1
Cl3' C2C' Cl4' 101(3)
Cl3' C2C' H2C3 111.6
Cl4' C2C' H2C3 111.6
Cl3' C2C' H2C4 111.7
Cl4' C2C' H2C4 111.7
H2C3 C2C' H2C4 109.4
Cl8 C4CC Cl7 106.5(19)
Cl8 C4CC H4C1 110.4
Cl7 C4CC H4C1 110.4
Cl8 C4CC H4C2 110.4
Cl7 C4CC H4C2 110.4
H4C1 C4CC H4C2 108.6
N1 C1 C2 113.8(11)
N1 C1 C20 116.4(11)
C2 C1 C20 129.6(11)
Cl10 C5CC Cl9 113(3)
Cl10 C5CC H5C1 108.9
Cl9 C5CC H5C1 109.0
Cl10 C5CC H5C2 109.0
Cl9 C5CC H5C2 108.9
H5C1 C5CC H5C2 107.8
Cl1A C5C' Cl9' 109(3)
Cl1A C5C' H5C3 110.0
Cl9' C5C' H5C3 110.0
Cl1A C5C' H5C4 110.0
Cl9' C5C' H5C4 110.0
H5C3 C5C' H5C4 108.4
C2 C3 C4 104.6(11)
C2 C3 C55 132.7(11)
C4 C3 C55 122.6(10)
Cl12 C6CC Cl11 109(3)
Cl12 C6CC H6C1 109.9
Cl11 C6CC H6C1 109.9
Cl12 C6CC H6C2 109.9
Cl11 C6CC H6C2 109.9
H6C1 C6CC H6C2 108.3
Cl1C C6C' Cl1B 103(2)
Cl1C C6C' H6C3 111.2
Cl1B C6C' H6C3 111.1
Cl1C C6C' H6C4 111.2
Cl1B C6C' H6C4 111.2
H6C3 C6C' H6C4 109.1
loop_
_geom_bond_atom_site_label_1
_geom_bond_atom_site_label_2
_geom_bond_distance
C4 C5 1.349(17)
C4 N1 1.439(17)
C4 C3 1.472(18)
C6 N2 1.327(16)
C6 C7 1.466(19)
C6 C5 1.508(18)
C7 C8 1.379(18)
C7 C65' 1.467(15)
C7 C65 1.495(18)
C8 C9 1.460(19)
C8 C75 1.498(16)
C9 C10 1.368(18)
C9 N2 1.395(17)
C11 N3 1.289(16)
C11 C12 1.493(17)
C11 C10 1.507(18)
C12 C13 1.317(17)
C12 C85 1.505(12)
C13 C14 1.488(16)
C13 C95 1.520(14)
C14 C15 1.371(18)
C14 N3 1.401(17)
C16 N4 1.305(16)
C16 C15 1.481(17)
C16 C17 1.494(17)
C17 C18 1.436(16)
C17 C105 1.457(14)
C18 C19 1.460(18)
C18 C115 1.484(13)
C19 C20 1.366(18)
C19 N4 1.405(16)
C21 C22 1.3900
C21 C26 1.3900
C21 C5 1.500(14)
C22 C23 1.3900
C22 H22 0.9300
C23 C24 1.3900
C23 H23 0.9300
C24 C25 1.3900
C24 H24 0.9300
C25 C26 1.3900
C25 H25 0.9300
C26 H26 0.9300
C10 C27 1.469(14)
C27 C28 1.3900
C27 C32 1.3900
C28 C29 1.3900
C28 H28 0.9300
C29 C30 1.3900
C29 H29 0.9300
C30 C31 1.3900
C30 H30 0.9300
C31 C32 1.3900
C31 H31 0.9300
C32 H32 0.9300
C15 C33 1.497(15)
C33 C34 1.3900
C33 C38 1.3900
C34 C35 1.3900
C34 H34 0.9300
C35 C36 1.3900
C35 H35 0.9300
C36 C37 1.3900
C36 H36 0.9300
C37 C38 1.3900
C37 H37 0.9300
C38 H38 0.9300
C20 C39 1.502(14)
C20 C1 1.512(18)
C39 C40 1.3900
C39 C44 1.3900
C40 C41 1.3900
C40 H40 0.9300
C41 C42 1.3900
C41 H41 0.9300
C42 C43 1.3900
C42 H42 0.9300
C43 C44 1.3900
C43 H43 0.9300
C44 H44 0.9300
N1 C1 1.311(17)
C45 C49 1.4200
C45 C46 1.4200
C45 C2 1.497(14)
C45 Fe1 2.016(10)
C46 C47 1.4200
C46 Fe1 2.030(9)
C46 H46 0.9300
C47 C48 1.4200
C47 Fe1 2.047(9)
C47 H47 0.9300
C48 C49 1.4200
C48 Fe1 2.042(9)
C48 H48 0.9300
C49 Fe1 2.024(10)
C49 H49 0.9300
Fe1 C53 2.051(10)
Fe1 C54 2.052(10)
Fe1 C52 2.057(10)
Fe1 C50 2.060(10)
Fe1 C51 2.063(10)
C50 C51 1.4200
C50 C54 1.4200
C50 H50 0.9300
C51 C52 1.4200
C51 H51 0.9300
C52 C53 1.4200
C52 H52 0.9300
C53 C54 1.4200
C53 H53 0.9300
C54 H54 0.9300
C55 C56 1.4200
C55 C59 1.4200
C55 C3 1.482(15)
C55 Fe2 2.035(8)
C56 C57 1.4200
C56 Fe2 2.003(8)
C56 H56 0.9300
C57 C58 1.4200
C57 Fe2 2.039(8)
C57 H57 0.9300
C58 C59 1.4200
C58 Fe2 2.091(9)
C58 H58 0.9300
C59 Fe2 2.089(9)
C59 H59 0.9300
Fe2 C60 2.038(9)
Fe2 C61 2.039(10)
Fe2 C64 2.064(8)
Fe2 C62 2.066(9)
Fe2 C63 2.081(9)
C60 C64 1.4200
C60 C61 1.4200
C60 H60 0.9300
C61 C62 1.4200
C61 H61 0.9300
C62 C63 1.4200
C62 H62 0.9300
C63 C64 1.4200
C63 H63 0.9300
C64 H64 0.9300
C70 C74 1.4200
C70 C71 1.4200
C70 Fe3 2.079(19)
C70 H70 0.9300
C71 C72 1.4200
C71 Fe3 2.060(17)
C71 H71 0.9300
C72 C73 1.4200
C72 Fe3 2.058(16)
C72 H72 0.9300
C73 C74 1.4200
C73 Fe3 2.076(17)
C73 H73 0.9300
C74 Fe3 2.089(18)
C74 H74 0.9300
C65 C66 1.4200
C65 C69 1.4200
C65 Fe3 2.042(18)
C66 C67 1.4200
C66 Fe3 2.041(16)
C66 H66 0.9300
C67 C68 1.4200
C67 Fe3 2.041(15)
C67 H67 0.9300
C68 C69 1.4200
C68 Fe3 2.043(17)
C68 H68 0.9300
C69 Fe3 2.044(19)
C69 H69 0.9300
C65' C66' 1.4200
C65' C69' 1.4200
C65' Fe3' 2.042(14)
C66' C67' 1.4200
C66' Fe3' 2.047(14)
C66' H66' 0.9300
C67' C68' 1.4200
C67' Fe3' 2.041(13)
C67' H67' 0.9300
C68' C69' 1.4200
C68' Fe3' 2.032(14)
C68' H68' 0.9300
C69' Fe3' 2.032(15)
C69' H69' 0.9300
Fe3' C73' 2.027(14)
Fe3' C72' 2.030(13)
Fe3' C74' 2.042(15)
Fe3' C71' 2.047(14)
Fe3' C70' 2.054(15)
C70' C74' 1.4200
C70' C71' 1.4200
C70' H70' 0.9300
C71' C72' 1.4200
C71' H71' 0.9300
C72' C73' 1.4200
C72' H72' 0.9300
C73' C74' 1.4200
C73' H73' 0.9300
C74' H74' 0.9300
C75 C76 1.4200
C75 C79 1.4200
C75 Fe4 2.049(9)
C76 C77 1.4200
C76 Fe4 2.039(9)
C76 H76 0.9300
C77 C78 1.4200
C77 Fe4 2.043(11)
C77 H77 0.9300
C78 C79 1.4200
C78 Fe4 2.056(11)
C78 H78 0.9300
C79 Fe4 2.059(10)
C79 H79 0.9300
Fe4 C81 2.019(13)
Fe4 C80 2.024(14)
Fe4 C82 2.037(13)
Fe4 C84 2.046(13)
Fe4 C83 2.054(13)
C80 C81 1.4200
C80 C84 1.4200
C80 H80 0.9300
C81 C82 1.4200
C81 H81 0.9300
C82 C83 1.4200
C82 H82 0.9300
C83 C84 1.4200
C83 H83 0.9300
C84 H84 0.9300
O1 H5 0.99(2)
O1 H6 0.99(2)
C85 C89 1.4200
C85 C86 1.4200
C85 Fe5 2.036(9)
C86 C87 1.4200
C86 Fe5 2.027(9)
C86 H86 0.9300
C87 C88 1.4200
C87 Fe5 2.035(9)
C87 H87 0.9300
C88 C89 1.4200
C88 Fe5 2.048(8)
C88 H88 0.9300
C89 Fe5 2.049(9)
C89 H89 0.9300
Fe5 C92 2.042(9)
Fe5 C91 2.046(9)
Fe5 C93 2.052(10)
Fe5 C90 2.058(9)
Fe5 C94 2.062(10)
C90 C91 1.4200
C90 C94 1.4200
C90 H90 0.9300
C91 C92 1.4200
C91 H91 0.9300
C92 C93 1.4200
C92 H92 0.9300
C93 C94 1.4200
C93 H93 0.9300
C94 H94 0.9300
O2 H7 0.98(2)
O2 H8 0.96(2)
C95 C99 1.4200
C95 C96 1.4200
C95 Fe6 2.055(8)
C96 C97 1.4200
C96 Fe6 2.019(9)
C96 H96 0.9300
C97 C98 1.4200
C97 Fe6 2.019(10)
C97 H97 0.9300
C98 C99 1.4200
C98 Fe6 2.054(10)
C98 H98 0.9300
C99 Fe6 2.076(9)
C99 H99 0.9300
Fe6 C101 2.046(10)
Fe6 C102 2.047(10)
Fe6 C100 2.050(11)
Fe6 C103 2.052(10)
Fe6 C104 2.053(11)
C100 C104 1.4200
C100 C101 1.4200
C100 H100 0.9300
C101 C102 1.4200
C101 H101 0.9300
C102 C103 1.4200
C102 H102 0.9300
C103 C104 1.4200
C103 H103 0.9300
C104 H104 0.9300
C105 C106 1.4200
C105 C109 1.4200
C105 Fe7 2.057(9)
C106 C107 1.4200
C106 Fe7 2.034(9)
C106 H106 0.9300
C107 C108 1.4200
C107 Fe7 2.017(9)
C107 H107 0.9300
C108 C109 1.4200
C108 Fe7 2.028(9)
C108 H108 0.9300
C109 Fe7 2.053(9)
C109 H109 0.9300
Fe7 C112 2.053(11)
Fe7 C111 2.055(11)
Fe7 C113 2.062(10)
Fe7 C110 2.064(11)
Fe7 C114 2.069(10)
C110 C114 1.4200
C110 C111 1.4200
C110 H110 0.9300
C111 C112 1.4200
C111 H111 0.9300
C112 C113 1.4200
C112 H112 0.9300
C113 C114 1.4200
C113 H113 0.9300
C114 H114 0.9300
C2 C3 1.396(18)
C2 C1 1.471(19)
C115 C116 1.4200
C115 C119 1.4200
C115 Fe8 2.070(8)
C116 C117 1.4200
C116 Fe8 2.059(9)
C116 H116 0.9300
C117 C118 1.4200
C117 Fe8 2.045(9)
C117 H117 0.9300
C118 C119 1.4200
C118 Fe8 2.048(10)
C118 H118 0.9300
C119 Fe8 2.063(9)
C119 H119 0.9300
Fe8 C123 2.040(10)
Fe8 C122 2.042(10)
Fe8 C124 2.043(10)
Fe8 C121 2.046(9)
Fe8 C120 2.047(11)
C120 C124 1.4200
C120 C121 1.4200
C120 H120 0.9300
C121 C122 1.4200
C121 H121 0.9300
C122 C123 1.4200
C122 H122 0.9300
C123 C124 1.4200
C123 H123 0.9300
C124 H124 0.9300
C3CC Cl6 1.74(2)
C3CC Cl5 1.78(2)
C3CC H3C1 0.9700
C3CC H3C2 0.9700
C3C' Cl5' 1.74(2)
C3C' Cl6' 1.75(2)
C3C' H3C3 0.9700
C3C' H3C4 0.9700
C1CC Cl1 1.67(2)
C1CC Cl2 1.70(2)
C1CC H1C1 0.9700
C1CC H1C2 0.9700
C2CC Cl4 1.73(2)
C2CC Cl3 1.77(2)
C2CC H2C1 0.9700
C2CC H2C2 0.9700
C2C' Cl3' 1.75(2)
C2C' Cl4' 1.75(2)
C2C' H2C3 0.9700
C2C' H2C4 0.9700
C4CC Cl8 1.74(2)
C4CC Cl7 1.83(2)
C4CC H4C1 0.9700
C4CC H4C2 0.9700
Cl9 C5CC 1.71(2)
Cl10 C5CC 1.69(2)
C5CC H5C1 0.9700
C5CC H5C2 0.9700
Cl9' C5C' 1.70(2)
Cl1A C5C' 1.70(2)
C5C' H5C3 0.9700
C5C' H5C4 0.9700
Cl11 C6CC 1.71(2)
C6CC Cl12 1.68(2)
C6CC H6C1 0.9700
C6CC H6C2 0.9700
Cl1B C6C' 1.73(2)
C6C' Cl1C 1.71(2)
C6C' H6C3 0.9700
C6C' H6C4 0.9700
loop_
_geom_torsion_atom_site_label_1
_geom_torsion_atom_site_label_2
_geom_torsion_atom_site_label_3
_geom_torsion_atom_site_label_4
_geom_torsion
N2 C6 C7 C8 -1.1(14)
C5 C6 C7 C8 177.1(12)
N2 C6 C7 C65' 178.3(13)
C5 C6 C7 C65' -4(2)
N2 C6 C7 C65 -179.0(14)
C5 C6 C7 C65 -1(2)
C6 C7 C8 C9 5.4(13)
C65' C7 C8 C9 -173.9(15)
C65 C7 C8 C9 -177.0(16)
C6 C7 C8 C75 -172.9(13)
C65' C7 C8 C75 8(3)
C65 C7 C8 C75 5(3)
C7 C8 C9 C10 161.8(12)
C75 C8 C9 C10 -20(2)
C7 C8 C9 N2 -8.3(14)
C75 C8 C9 N2 170.3(10)
N3 C11 C12 C13 3.3(14)
C10 C11 C12 C13 -170.2(12)
N3 C11 C12 C85 -177.2(10)
C10 C11 C12 C85 9.3(18)
C11 C12 C13 C14 -8.8(13)
C85 C12 C13 C14 171.8(12)
C11 C12 C13 C95 170.2(12)
C85 C12 C13 C95 -9(2)
C12 C13 C14 C15 -155.0(14)
C95 C13 C14 C15 26(2)
C12 C13 C14 N3 11.9(14)
C95 C13 C14 N3 -167.3(10)
N4 C16 C17 C18 -2.6(14)
C15 C16 C17 C18 176.7(13)
N4 C16 C17 C105 -177.8(12)
C15 C16 C17 C105 1(2)
C105 C17 C18 C19 -179.4(12)
C16 C17 C18 C19 5.7(13)
C105 C17 C18 C115 8(2)
C16 C17 C18 C115 -166.6(12)
C17 C18 C19 C20 161.2(13)
C115 C18 C19 C20 -26(2)
C17 C18 C19 N4 -7.3(14)
C115 C18 C19 N4 165.8(11)
C26 C21 C22 C23 0.0
C5 C21 C22 C23 176.4(8)
C21 C22 C23 C24 0.0
C22 C23 C24 C25 0.0
C23 C24 C25 C26 0.0
C24 C25 C26 C21 0.0
C22 C21 C26 C25 0.0
C5 C21 C26 C25 -176.3(8)
N2 C9 C10 C27 164.0(10)
C8 C9 C10 C27 -6(2)
N2 C9 C10 C11 -1.6(15)
C8 C9 C10 C11 -171.2(12)
N3 C11 C10 C9 83.4(15)
C12 C11 C10 C9 -103.4(14)
N3 C11 C10 C27 -84.6(12)
C12 C11 C10 C27 88.6(14)
C9 C10 C27 C28 -44.7(15)
C11 C10 C27 C28 121.6(9)
C9 C10 C27 C32 141.5(10)
C11 C10 C27 C32 -52.2(11)
C32 C27 C28 C29 0.0
C10 C27 C28 C29 -173.9(10)
C27 C28 C29 C30 0.0
C28 C29 C30 C31 0.0
C29 C30 C31 C32 0.0
C30 C31 C32 C27 0.0
C28 C27 C32 C31 0.0
C10 C27 C32 C31 173.7(10)
N3 C14 C15 C16 7.2(17)
C13 C14 C15 C16 173.3(12)
N3 C14 C15 C33 -159.3(11)
C13 C14 C15 C33 7(2)
N4 C16 C15 C14 -86.3(15)
C17 C16 C15 C14 94.4(16)
N4 C16 C15 C33 81.4(14)
C17 C16 C15 C33 -97.9(14)
C14 C15 C33 C34 41.7(15)
C16 C15 C33 C34 -125.0(10)
C14 C15 C33 C38 -135.9(11)
C16 C15 C33 C38 57.5(13)
C38 C33 C34 C35 0.0
C15 C33 C34 C35 -177.6(9)
C33 C34 C35 C36 0.0
C34 C35 C36 C37 0.0
C35 C36 C37 C38 0.0
C36 C37 C38 C33 0.0
C34 C33 C38 C37 0.0
C15 C33 C38 C37 177.5(10)
N4 C19 C20 C39 168.6(10)
C18 C19 C20 C39 1(2)
N4 C19 C20 C1 0.6(18)
C18 C19 C20 C1 -167.2(12)
C19 C20 C39 C40 128.9(11)
C1 C20 C39 C40 -62.6(11)
C19 C20 C39 C44 -50.1(15)
C1 C20 C39 C44 118.4(9)
C44 C39 C40 C41 0.0
C20 C39 C40 C41 -179.0(9)
C39 C40 C41 C42 0.0
C40 C41 C42 C43 0.0
C41 C42 C43 C44 0.0
C42 C43 C44 C39 0.0
C40 C39 C44 C43 0.0
C20 C39 C44 C43 179.0(9)
C5 C4 N1 C1 159.5(11)
C3 C4 N1 C1 -8.1(13)
C49 C45 C46 C47 0.0
C2 C45 C46 C47 177.5(12)
Fe1 C45 C46 C47 -59.6(4)
C49 C45 C46 Fe1 59.6(4)
C2 C45 C46 Fe1 -123.0(10)
C45 C46 C47 C48 0.0
Fe1 C46 C47 C48 -58.8(4)
C45 C46 C47 Fe1 58.8(4)
C46 C47 C48 C49 0.0
Fe1 C47 C48 C49 -58.4(4)
C46 C47 C48 Fe1 58.4(4)
C47 C48 C49 C45 0.0
Fe1 C48 C49 C45 -59.0(3)
C47 C48 C49 Fe1 59.0(3)
C46 C45 C49 C48 0.0
C2 C45 C49 C48 -177.7(11)
Fe1 C45 C49 C48 59.8(3)
C46 C45 C49 Fe1 -59.8(3)
C2 C45 C49 Fe1 122.6(9)
C54 C50 C51 C52 0.0
Fe1 C50 C51 C52 59.3(4)
C54 C50 C51 Fe1 -59.3(4)
C50 C51 C52 C53 0.0
Fe1 C51 C52 C53 59.4(4)
C50 C51 C52 Fe1 -59.4(4)
C51 C52 C53 C54 0.0
Fe1 C52 C53 C54 59.7(4)
C51 C52 C53 Fe1 -59.7(4)
C51 C50 C54 C53 0.0
Fe1 C50 C54 C53 -59.6(4)
C51 C50 C54 Fe1 59.6(4)
C52 C53 C54 C50 0.0
Fe1 C53 C54 C50 59.9(4)
C52 C53 C54 Fe1 -59.9(4)
C7 C6 N2 C9 -3.9(13)
C5 C6 N2 C9 177.6(9)
C10 C9 N2 C6 -164.3(10)
C8 C9 N2 C6 7.4(13)
C59 C55 C56 C57 0.0
C3 C55 C56 C57 -178.3(10)
Fe2 C55 C56 C57 61.2(3)
C59 C55 C56 Fe2 -61.2(3)
C3 C55 C56 Fe2 120.5(9)
C55 C56 C57 C58 0.0
Fe2 C56 C57 C58 61.1(3)
C55 C56 C57 Fe2 -61.1(3)
C56 C57 C58 C59 0.0
Fe2 C57 C58 C59 58.7(3)
C56 C57 C58 Fe2 -58.7(3)
C56 C55 C59 C58 0.0
C3 C55 C59 C58 178.1(10)
Fe2 C55 C59 C58 -58.9(3)
C56 C55 C59 Fe2 58.9(3)
C3 C55 C59 Fe2 -123.0(9)
C57 C58 C59 C55 0.0
Fe2 C58 C59 C55 57.4(3)
C57 C58 C59 Fe2 -57.4(3)
C64 C60 C61 C62 0.0
Fe2 C60 C61 C62 -60.6(3)
C64 C60 C61 Fe2 60.6(3)
C60 C61 C62 C63 0.0
Fe2 C61 C62 C63 -59.9(3)
C60 C61 C62 Fe2 59.9(3)
C61 C62 C63 C64 0.0
Fe2 C62 C63 C64 -58.7(3)
C61 C62 C63 Fe2 58.7(3)
C61 C60 C64 C63 0.0
Fe2 C60 C64 C63 59.9(3)
C61 C60 C64 Fe2 -59.9(3)
C62 C63 C64 C60 0.0
Fe2 C63 C64 C60 -58.8(4)
C62 C63 C64 Fe2 58.8(4)
C12 C11 N3 C14 4.2(13)
C10 C11 N3 C14 178.4(10)
C15 C14 N3 C11 159.9(11)
C13 C14 N3 C11 -9.5(13)
C74 C70 C71 C72 0.0
Fe3 C70 C71 C72 -60.0(5)
C74 C70 C71 Fe3 60.0(5)
C70 C71 C72 C73 0.0
Fe3 C71 C72 C73 -60.6(5)
C70 C71 C72 Fe3 60.6(5)
C71 C72 C73 C74 0.0
Fe3 C72 C73 C74 -60.2(5)
C71 C72 C73 Fe3 60.2(5)
C71 C70 C74 C73 0.0
Fe3 C70 C74 C73 59.2(4)
C71 C70 C74 Fe3 -59.2(4)
C72 C73 C74 C70 0.0
Fe3 C73 C74 C70 -59.3(5)
C72 C73 C74 Fe3 59.3(5)
C8 C7 C65 C66 -5(3)
C6 C7 C65 C66 172.6(14)
C65' C7 C65 C66 -128(40)
C8 C7 C65 C69 173.9(16)
C6 C7 C65 C69 -9(2)
C65' C7 C65 C69 50(39)
C8 C7 C65 Fe3 85(3)
C6 C7 C65 Fe3 -98(2)
C65' C7 C65 Fe3 -38(38)
C69 C65 C66 C67 0.0
C7 C65 C66 C67 179(2)
Fe3 C65 C66 C67 59.3(5)
C69 C65 C66 Fe3 -59.3(5)
C7 C65 C66 Fe3 119(2)
C65 C66 C67 C68 0.0
Fe3 C66 C67 C68 59.4(6)
C65 C66 C67 Fe3 -59.4(6)
C66 C67 C68 C69 0.0
Fe3 C67 C68 C69 59.3(5)
C66 C67 C68 Fe3 -59.3(5)
C67 C68 C69 C65 0.0
Fe3 C68 C69 C65 59.2(5)
C67 C68 C69 Fe3 -59.2(5)
C66 C65 C69 C68 0.0
C7 C65 C69 C68 -179(2)
Fe3 C65 C69 C68 -59.3(4)
C66 C65 C69 Fe3 59.3(4)
C7 C65 C69 Fe3 -119(2)
C8 C7 C65' C66' 10(2)
C6 C7 C65' C66' -169.0(12)
C65 C7 C65' C66' 69(39)
C8 C7 C65' C69' -165.5(14)
C6 C7 C65' C69' 15(2)
C65 C7 C65' C69' -107(40)
C8 C7 C65' Fe3' 103(2)
C6 C7 C65' Fe3' -76(2)
C65 C7 C65' Fe3' 161(41)
C69' C65' C66' C67' 0.0
C7 C65' C66' C67' -176.4(17)
Fe3' C65' C66' C67' 58.9(5)
C69' C65' C66' Fe3' -58.9(4)
C7 C65' C66' Fe3' 124.7(16)
C65' C66' C67' C68' 0.0
Fe3' C66' C67' C68' 59.0(5)
C65' C66' C67' Fe3' -59.0(5)
C66' C67' C68' C69' 0.0
Fe3' C67' C68' C69' 59.4(4)
C66' C67' C68' Fe3' -59.4(4)
C67' C68' C69' C65' 0.0
Fe3' C68' C69' C65' 59.6(4)
C67' C68' C69' Fe3' -59.6(4)
C66' C65' C69' C68' 0.0
C7 C65' C69' C68' 176.4(17)
Fe3' C65' C69' C68' -59.3(4)
C66' C65' C69' Fe3' 59.3(4)
C7 C65' C69' Fe3' -124.3(16)
C74' C70' C71' C72' 0.0
Fe3' C70' C71' C72' -58.7(4)
C74' C70' C71' Fe3' 58.7(4)
C70' C71' C72' C73' 0.0
Fe3' C71' C72' C73' -59.4(5)
C70' C71' C72' Fe3' 59.4(5)
C71' C72' C73' C74' 0.0
Fe3' C72' C73' C74' -59.9(5)
C71' C72' C73' Fe3' 59.9(5)
C72' C73' C74' C70' 0.0
Fe3' C73' C74' C70' -59.6(5)
C72' C73' C74' Fe3' 59.6(5)
C71' C70' C74' C73' 0.0
Fe3' C70' C74' C73' 58.8(4)
C71' C70' C74' Fe3' -58.8(4)
C15 C16 N4 C19 178.8(11)
C17 C16 N4 C19 -1.9(15)
C20 C19 N4 C16 -164.5(12)
C18 C19 N4 C16 5.7(14)
C7 C8 C75 C76 142.0(13)
C9 C8 C75 C76 -36.1(16)
C7 C8 C75 C79 -49(2)
C9 C8 C75 C79 133.0(11)
C7 C8 C75 Fe4 52.3(19)
C9 C8 C75 Fe4 -125.8(11)
C79 C75 C76 C77 0.0
C8 C75 C76 C77 171.3(11)
Fe4 C75 C76 C77 -59.7(4)
C79 C75 C76 Fe4 59.7(4)
C8 C75 C76 Fe4 -129.0(10)
C75 C76 C77 C78 0.0
Fe4 C76 C77 C78 -59.9(4)
C75 C76 C77 Fe4 59.9(4)
C76 C77 C78 C79 0.0
Fe4 C77 C78 C79 -59.4(4)
C76 C77 C78 Fe4 59.4(4)
C77 C78 C79 C75 0.0
Fe4 C78 C79 C75 -59.0(4)
C77 C78 C79 Fe4 59.0(4)
C76 C75 C79 C78 0.0
C8 C75 C79 C78 -170.1(13)
Fe4 C75 C79 C78 59.2(4)
C76 C75 C79 Fe4 -59.2(4)
C8 C75 C79 Fe4 130.7(11)
C84 C80 C81 C82 0.0
Fe4 C80 C81 C82 60.0(5)
C84 C80 C81 Fe4 -60.0(5)
C80 C81 C82 C83 0.0
Fe4 C81 C82 C83 59.6(5)
C80 C81 C82 Fe4 -59.6(5)
C81 C82 C83 C84 0.0
Fe4 C82 C83 C84 58.7(5)
C81 C82 C83 Fe4 -58.7(5)
C82 C83 C84 C80 0.0
Fe4 C83 C84 C80 58.5(5)
C82 C83 C84 Fe4 -58.5(5)
C81 C80 C84 C83 0.0
Fe4 C80 C84 C83 -59.3(5)
C81 C80 C84 Fe4 59.3(5)
C13 C12 C85 C89 13.8(18)
C11 C12 C85 C89 -165.6(9)
C13 C12 C85 C86 -163.3(12)
C11 C12 C85 C86 17.3(14)
C13 C12 C85 Fe5 -76.3(15)
C11 C12 C85 Fe5 104.3(11)
C89 C85 C86 C87 0.0
C12 C85 C86 C87 177.6(10)
Fe5 C85 C86 C87 59.7(3)
C89 C85 C86 Fe5 -59.7(3)
C12 C85 C86 Fe5 117.9(9)
C85 C86 C87 C88 0.0
Fe5 C86 C87 C88 59.7(3)
C85 C86 C87 Fe5 -59.7(3)
C86 C87 C88 C89 0.0
Fe5 C87 C88 C89 59.1(3)
C86 C87 C88 Fe5 -59.1(3)
C86 C85 C89 C88 0.0
C12 C85 C89 C88 -177.5(10)
Fe5 C85 C89 C88 -59.1(3)
C86 C85 C89 Fe5 59.1(3)
C12 C85 C89 Fe5 -118.4(9)
C87 C88 C89 C85 0.0
Fe5 C88 C89 C85 58.7(3)
C87 C88 C89 Fe5 -58.7(3)
C94 C90 C91 C92 0.0
Fe5 C90 C91 C92 -59.5(4)
C94 C90 C91 Fe5 59.5(4)
C90 C91 C92 C93 0.0
Fe5 C91 C92 C93 -59.9(4)
C90 C91 C92 Fe5 59.9(4)
C91 C92 C93 C94 0.0
Fe5 C92 C93 C94 -59.8(3)
C91 C92 C93 Fe5 59.8(3)
C92 C93 C94 C90 0.0
Fe5 C93 C94 C90 -59.2(4)
C92 C93 C94 Fe5 59.2(4)
C91 C90 C94 C93 0.0
Fe5 C90 C94 C93 59.1(4)
C91 C90 C94 Fe5 -59.1(4)
C12 C13 C95 C99 36.0(19)
C14 C13 C95 C99 -145.2(10)
C12 C13 C95 C96 -144.5(13)
C14 C13 C95 C96 34.3(14)
C12 C13 C95 Fe6 -58.8(18)
C14 C13 C95 Fe6 120.0(10)
C99 C95 C96 C97 0.0
C13 C95 C96 C97 -179.6(10)
Fe6 C95 C96 C97 59.8(4)
C99 C95 C96 Fe6 -59.8(4)
C13 C95 C96 Fe6 120.7(9)
C95 C96 C97 C98 0.0
Fe6 C96 C97 C98 60.7(4)
C95 C96 C97 Fe6 -60.7(4)
C96 C97 C98 C99 0.0
Fe6 C97 C98 C99 59.8(3)
C96 C97 C98 Fe6 -59.8(3)
C96 C95 C99 C98 0.0
C13 C95 C99 C98 179.5(11)
Fe6 C95 C99 C98 -58.2(4)
C96 C95 C99 Fe6 58.2(4)
C13 C95 C99 Fe6 -122.2(10)
C97 C98 C99 C95 0.0
Fe6 C98 C99 C95 58.3(3)
C97 C98 C99 Fe6 -58.3(3)
C104 C100 C101 C102 0.0
Fe6 C100 C101 C102 -59.6(4)
C104 C100 C101 Fe6 59.6(4)
C100 C101 C102 C103 0.0
Fe6 C101 C102 C103 -59.6(4)
C100 C101 C102 Fe6 59.6(4)
C101 C102 C103 C104 0.0
Fe6 C102 C103 C104 -59.4(4)
C101 C102 C103 Fe6 59.5(4)
C101 C100 C104 C103 0.0
Fe6 C100 C104 C103 59.4(4)
C101 C100 C104 Fe6 -59.4(4)
C102 C103 C104 C100 0.0
Fe6 C103 C104 C100 -59.3(4)
C102 C103 C104 Fe6 59.3(4)
N1 C4 C5 C21 -157.1(11)
C3 C4 C5 C21 7(2)
N1 C4 C5 C6 10.7(17)
C3 C4 C5 C6 174.8(12)
C22 C21 C5 C4 39.7(15)
C26 C21 C5 C4 -144.0(11)
C22 C21 C5 C6 -128.9(9)
C26 C21 C5 C6 47.5(11)
N2 C6 C5 C4 -86.3(14)
C7 C6 C5 C4 95.5(16)
N2 C6 C5 C21 83.0(13)
C7 C6 C5 C21 -95.1(14)
C18 C17 C105 C106 18.7(19)
C16 C17 C105 C106 -167.5(10)
C18 C17 C105 C109 -159.9(12)
C16 C17 C105 C109 13.9(16)
C18 C17 C105 Fe7 109.3(13)
C16 C17 C105 Fe7 -76.9(15)
C109 C105 C106 C107 0.0
C17 C105 C106 C107 -178.8(11)
Fe7 C105 C106 C107 58.8(3)
C109 C105 C106 Fe7 -58.8(3)
C17 C105 C106 Fe7 122.4(10)
C105 C106 C107 C108 0.0
Fe7 C106 C107 C108 59.9(3)
C105 C106 C107 Fe7 -59.9(3)
C106 C107 C108 C109 0.0
Fe7 C107 C108 C109 60.1(3)
C106 C107 C108 Fe7 -60.1(3)
C107 C108 C109 C105 0.0
Fe7 C108 C109 C105 59.1(3)
C107 C108 C109 Fe7 -59.1(3)
C106 C105 C109 C108 0.0
C17 C105 C109 C108 178.8(11)
Fe7 C105 C109 C108 -58.3(3)
C106 C105 C109 Fe7 58.3(3)
C17 C105 C109 Fe7 -122.9(10)
C114 C110 C111 C112 0.0
Fe7 C110 C111 C112 -59.7(4)
C114 C110 C111 Fe7 59.7(4)
C110 C111 C112 C113 0.0
Fe7 C111 C112 C113 -60.0(4)
C110 C111 C112 Fe7 60.0(4)
C111 C112 C113 C114 0.0
Fe7 C112 C113 C114 -59.8(4)
C111 C112 C113 Fe7 59.8(4)
C111 C110 C114 C113 0.0
Fe7 C110 C114 C113 59.3(4)
C111 C110 C114 Fe7 -59.3(4)
C112 C113 C114 C110 0.0
Fe7 C113 C114 C110 -59.4(4)
C112 C113 C114 Fe7 59.4(4)
C49 C45 C2 C3 -159.6(12)
C46 C45 C2 C3 23.2(19)
Fe1 C45 C2 C3 -71.1(16)
C49 C45 C2 C1 21.9(14)
C46 C45 C2 C1 -155.2(9)
Fe1 C45 C2 C1 110.4(11)
C17 C18 C115 C116 133.7(13)
C19 C18 C115 C116 -37.6(15)
C17 C18 C115 C119 -57.5(18)
C19 C18 C115 C119 131.2(11)
C17 C18 C115 Fe8 43.0(19)
C19 C18 C115 Fe8 -128.3(11)
C119 C115 C116 C117 0.0
C18 C115 C116 C117 171.0(10)
Fe8 C115 C116 C117 -59.2(4)
C119 C115 C116 Fe8 59.2(4)
C18 C115 C116 Fe8 -129.8(9)
C115 C116 C117 C118 0.0
Fe8 C116 C117 C118 -59.9(3)
C115 C116 C117 Fe8 59.9(3)
C116 C117 C118 C119 0.0
Fe8 C117 C118 C119 -60.1(3)
C116 C117 C118 Fe8 60.1(3)
C117 C118 C119 C115 0.0
Fe8 C118 C119 C115 -59.7(3)
C117 C118 C119 Fe8 59.7(3)
C116 C115 C119 C118 0.0
C18 C115 C119 C118 -169.9(11)
Fe8 C115 C119 C118 59.1(3)
C116 C115 C119 Fe8 -59.1(3)
C18 C115 C119 Fe8 131.0(10)
C124 C120 C121 C122 0.0
Fe8 C120 C121 C122 59.2(4)
C124 C120 C121 Fe8 -59.2(4)
C120 C121 C122 C123 0.0
Fe8 C121 C122 C123 59.3(4)
C120 C121 C122 Fe8 -59.3(4)
C121 C122 C123 C124 0.0
Fe8 C122 C123 C124 59.5(4)
C121 C122 C123 Fe8 -59.5(4)
C121 C120 C124 C123 0.0
Fe8 C120 C124 C123 -59.3(4)
C121 C120 C124 Fe8 59.3(4)
C122 C123 C124 C120 0.0
Fe8 C123 C124 C120 59.5(4)
C122 C123 C124 Fe8 -59.5(4)
C4 N1 C1 C2 3.1(13)
C4 N1 C1 C20 179.8(10)
C3 C2 C1 N1 3.1(14)
C45 C2 C1 N1 -178.1(10)
C3 C2 C1 C20 -173.1(12)
C45 C2 C1 C20 5.7(19)
C19 C20 C1 N1 79.8(15)
C39 C20 C1 N1 -89.7(12)
C19 C20 C1 C2 -104.1(14)
C39 C20 C1 C2 86.4(15)
C1 C2 C3 C4 -7.6(13)
C45 C2 C3 C4 173.7(12)
C1 C2 C3 C55 169.8(12)
C45 C2 C3 C55 -9(2)
C5 C4 C3 C2 -154.8(14)
N1 C4 C3 C2 10.0(14)
C5 C4 C3 C55 27(2)
N1 C4 C3 C55 -167.8(10)
C56 C55 C3 C2 -154.1(12)
C59 C55 C3 C2 28.0(19)
Fe2 C55 C3 C2 -68.1(17)
C56 C55 C3 C4 22.9(15)
C59 C55 C3 C4 -155.0(10)
Fe2 C55 C3 C4 108.9(11)
