#------------------------------------------------------------------------------
#$Date: 2019-11-08 00:08:20 +0200 (Fri, 08 Nov 2019) $
#$Revision: 224192 $
#$URL: file:///home/coder/svn-repositories/cod/cif/7/04/94/7049444.cif $
#------------------------------------------------------------------------------
#
# This file is available in the Crystallography Open Database (COD),
# http://www.crystallography.net/
#
# All data on this site have been placed in the public domain by the
# contributors.
#
data_7049444
loop_
_publ_author_name
'Nefedov, Sergey E.'
'Birin, Kirill P.'
'Bessmertnykh-Lemeune, Alla'
'Enakieva, Yulia Y.'
'Sinelshchikova, Anna A.'
'Gorbunova, Yulia G.'
'Tsivadze, Aslan Y.'
'Stern, Christine'
'Fang, Yuanyuan'
'Kadish, Karl M.'
_publ_section_title
;
 Coordination self-assembly through weak interactions in
 meso-dialkoxyphosphoryl-substituted zinc porphyrinates.
;
_journal_issue                   16
_journal_name_full
'Dalton transactions (Cambridge, England : 2003)'
_journal_page_first              5372
_journal_page_last               5383
_journal_paper_doi               10.1039/c9dt00706g
_journal_volume                  48
_journal_year                    2019
_chemical_formula_sum            'C38 H27 N5 O4 P Zn'
_chemical_formula_weight         713.98
_space_group_crystal_system      monoclinic
_space_group_IT_number           15
_space_group_name_Hall           '-C 2yc'
_space_group_name_H-M_alt        'C 1 2/c 1'
_symmetry_space_group_name_Hall  '-C 2yc'
_symmetry_space_group_name_H-M   'C 1 2/c 1'
_atom_sites_solution_hydrogens   mixed
_audit_creation_method           SHELXL-2014/7
_audit_update_record
;
2018-05-23 deposited with the CCDC.    2019-03-25 downloaded from the CCDC.
;
_cell_angle_alpha                90
_cell_angle_beta                 117.342(2)
_cell_angle_gamma                90
_cell_formula_units_Z            8
_cell_length_a                   33.220(5)
_cell_length_b                   10.1145(15)
_cell_length_c                   23.218(3)
_cell_measurement_reflns_used    2392
_cell_measurement_temperature    150(2)
_cell_measurement_theta_max      21.44
_cell_measurement_theta_min      2.21
_cell_volume                     6929.8(17)
_computing_structure_refinement  'SHELXL-2014/7 (Sheldrick, 2014)'
_diffrn_ambient_temperature      150(2)
_diffrn_measured_fraction_theta_full 0.999
_diffrn_measured_fraction_theta_max 0.999
_diffrn_measurement_device_type  'Bruker APEX-II CCD'
_diffrn_measurement_method       '\f and \w scans'
_diffrn_radiation_type           MoK\a
_diffrn_radiation_wavelength     0.71073
_diffrn_reflns_av_R_equivalents  0.1455
_diffrn_reflns_av_unetI/netI     0.1464
_diffrn_reflns_Laue_measured_fraction_full 0.999
_diffrn_reflns_Laue_measured_fraction_max 0.999
_diffrn_reflns_limit_h_max       46
_diffrn_reflns_limit_h_min       -46
_diffrn_reflns_limit_k_max       14
_diffrn_reflns_limit_k_min       -14
_diffrn_reflns_limit_l_max       32
_diffrn_reflns_limit_l_min       -32
_diffrn_reflns_number            39845
_diffrn_reflns_point_group_measured_fraction_full 0.999
_diffrn_reflns_point_group_measured_fraction_max 0.999
_diffrn_reflns_theta_full        25.242
_diffrn_reflns_theta_max         30.000
_diffrn_reflns_theta_min         2.476
_exptl_absorpt_coefficient_mu    0.803
_exptl_crystal_colour            purple
_exptl_crystal_density_diffrn    1.369
_exptl_crystal_description       prizm
_exptl_crystal_F_000             2936
_exptl_crystal_size_max          0.220
_exptl_crystal_size_mid          0.200
_exptl_crystal_size_min          0.180
_refine_diff_density_max         0.593
_refine_diff_density_min         -0.412
_refine_diff_density_rms         0.087
_refine_ls_extinction_method     none
_refine_ls_goodness_of_fit_ref   0.957
_refine_ls_hydrogen_treatment    constr
_refine_ls_matrix_type           full
_refine_ls_number_parameters     452
_refine_ls_number_reflns         10104
_refine_ls_number_restraints     0
_refine_ls_restrained_S_all      0.957
_refine_ls_R_factor_all          0.1525
_refine_ls_R_factor_gt           0.0616
_refine_ls_shift/su_max          0.000
_refine_ls_shift/su_mean         0.000
_refine_ls_structure_factor_coef Fsqd
_refine_ls_weighting_details
'w=1/[\s^2^(Fo^2^)+(0.0586P)^2^] where P=(Fo^2^+2Fc^2^)/3'
_refine_ls_weighting_scheme      calc
_refine_ls_wR_factor_gt          0.1170
_refine_ls_wR_factor_ref         0.1514
_reflns_Friedel_coverage         0.000
_reflns_number_gt                4945
_reflns_number_total             10104
_reflns_threshold_expression     'I > 2\s(I)'
_cod_data_source_file            c9dt00706g2.cif
_cod_data_source_block           mznCN
_cod_depositor_comments
'Adding full bibliography for 7049441--7049445.cif.'
_cod_original_cell_volume        6929.6(18)
_cod_database_code               7049444
_shelx_shelxl_version_number     2014/7
_shelx_space_group_comment
;
The symmetry employed for this shelxl refinement is uniquely defined
by the following loop, which should always be used as a source of
symmetry information in preference to the above space-group names.
They are only intended as comments.
;
_shelx_estimated_absorpt_t_min   0.843
_shelx_estimated_absorpt_t_max   0.869
_shelx_res_file
;

    1.res created by SHELXL-2014/7


TITL 2 in C2/c
CELL 0.71073  33.2197  10.1145  23.2177  90.000 117.342  90.000
ZERR    8.00   0.0049   0.0015   0.0034   0.000   0.002   0.000
LATT  7
SYMM -X, Y, 0.5-Z
SFAC C H N O P  ZN
UNIT 304 216 40 32  8 8
size 0.22 0.2 0.18

TEMP -123.000
omit -3 60
omit -2   0   2
omit  2   0   0
omit -1   1   2
omit -1   1   1
omit 1   1   0
omit 0   0   2

abin
acta
L.S. 14 0   36
BOND
FMAP 2
PLAN 20

WGHT    0.058600
FVAR       0.03519
ZN1   6    0.194403    0.291022    0.104760    11.00000    0.02041    0.02635 =
         0.02594    0.00316    0.01156    0.00040
P1    5    0.192930    0.447290    0.229275    11.00000    0.02354    0.02633 =
         0.03064   -0.00510    0.01130   -0.00226
O1    4    0.206232    0.428076    0.177653    11.00000    0.02803    0.04203 =
         0.03145   -0.00857    0.01572   -0.00544
O2    4    0.189983    0.315661    0.261258    11.00000    0.09354    0.04255 =
         0.03348    0.00145    0.01543   -0.03065
O3    4    0.143257    0.497813    0.201202    11.00000    0.02567    0.05749 =
         0.04309   -0.01724    0.00995    0.00303
N1    3    0.188361    0.123849    0.151405    11.00000    0.02046    0.02854 =
         0.02983    0.00196    0.01298   -0.00316
N2    3    0.124244    0.302503    0.056082    11.00000    0.01928    0.02921 =
         0.02575    0.00191    0.00987    0.00142
N3    3    0.196887    0.411884    0.034308    11.00000    0.02219    0.03338 =
         0.02887    0.00627    0.01271    0.00186
N4    3    0.260782    0.235541    0.131844    11.00000    0.02390    0.02449 =
         0.03095    0.00559    0.01636    0.00189
N5    3   -0.050443   -0.199309    0.176061    11.00000    0.05121    0.10624 =
         0.07837    0.00224    0.03869   -0.02815
N6    3    0.447480    0.728131    0.035333    11.00000    0.03962    0.05503 =
         0.07822    0.00777    0.03687   -0.00566
C1    1    0.222536    0.046071    0.193760    11.00000    0.01958    0.03473 =
         0.03086    0.00897    0.00758   -0.00220
C2    1    0.203611   -0.050971    0.221126    11.00000    0.02981    0.05417 =
         0.05810    0.03021    0.01186   -0.00613
AFIX  43
H2A   2    0.219891   -0.118238    0.251506    11.00000   -1.20000
AFIX   0
C3    1    0.159285   -0.027732    0.195608    11.00000    0.02467    0.05335 =
         0.04167    0.01740    0.01078   -0.00794
AFIX  43
H3A   2    0.138149   -0.075591    0.204476    11.00000   -1.20000
AFIX   0
C4    1    0.149189    0.082599    0.152309    11.00000    0.02121    0.03306 =
         0.02583    0.00434    0.01003   -0.00135
C5    1    0.106258    0.137840    0.117773    11.00000    0.02342    0.03672 =
         0.02556   -0.00498    0.01385   -0.00649
C6    1    0.068997    0.075210    0.128115    11.00000    0.02001    0.03585 =
         0.02781   -0.00029    0.01062   -0.00116
C7    1    0.065129    0.099805    0.183942    11.00000    0.05901    0.08835 =
         0.05343   -0.03704    0.04010   -0.04572
AFIX  43
H7A   2    0.084494    0.162774    0.214444    11.00000   -1.20000
AFIX   0
C8    1    0.033403    0.033644    0.195608    11.00000    0.06448    0.11332 =
         0.05153   -0.03231    0.04672   -0.04687
AFIX  43
H8A   2    0.030605    0.052514    0.233695    11.00000   -1.20000
AFIX   0
C9    1    0.005571   -0.060116    0.152261    11.00000    0.02709    0.04899 =
         0.03764    0.00123    0.01786   -0.00822
C10   1   -0.025952   -0.136630    0.165219    11.00000    0.04017    0.06763 =
         0.05238    0.00294    0.02512   -0.00788
C11   1    0.008020   -0.080289    0.095973    11.00000    0.03150    0.03827 =
         0.04480   -0.00805    0.01689   -0.01014
AFIX  43
H11A  2   -0.012094   -0.140815    0.064714    11.00000   -1.20000
AFIX   0
C12   1    0.039543   -0.013252    0.084252    11.00000    0.03083    0.05013 =
         0.03214   -0.00599    0.01632   -0.00920
AFIX  43
H12A  2    0.040937   -0.028611    0.044841    11.00000   -1.20000
AFIX   0
C13   1    0.094715    0.241920    0.073422    11.00000    0.01776    0.03201 =
         0.02674   -0.00522    0.00904   -0.00207
C14   1    0.050350    0.299720    0.037857    11.00000    0.02031    0.04171 =
         0.04107   -0.00338    0.01282   -0.00049
AFIX  43
H14A  2    0.023919    0.276051    0.041451    11.00000   -1.20000
AFIX   0
C15   1    0.053160    0.393612   -0.001498    11.00000    0.02268    0.04517 =
         0.03899    0.00704    0.00924    0.00607
AFIX  43
H15A  2    0.029303    0.448115   -0.031000    11.00000   -1.20000
AFIX   0
C16   1    0.099712    0.394276    0.010379    11.00000    0.02126    0.03897 =
         0.03256    0.00064    0.00885    0.00089
C17   1    0.117282    0.478254   -0.019935    11.00000    0.02555    0.04118 =
         0.03454    0.01298    0.00749    0.00567
AFIX  43
H17A  2    0.096387    0.536604   -0.051634    11.00000   -1.20000
AFIX   0
C18   1    0.161859    0.486287   -0.009051    11.00000    0.03189    0.03497 =
         0.03114    0.01085    0.01352    0.00526
C19   1    0.178619    0.579073   -0.039766    11.00000    0.03987    0.04449 =
         0.03493    0.01695    0.01460    0.00483
AFIX  43
H19A  2    0.161228    0.642911   -0.071499    11.00000   -1.20000
AFIX   0
C20   1    0.223185    0.558951   -0.015440    11.00000    0.03565    0.04202 =
         0.03443    0.01269    0.01709   -0.00541
AFIX  43
H20A  2    0.243430    0.605393   -0.026690    11.00000   -1.20000
AFIX   0
C21   1    0.234693    0.453314    0.031138    11.00000    0.03152    0.02914 =
         0.03119    0.00619    0.01671   -0.00069
C22   1    0.278466    0.401217    0.068456    11.00000    0.02699    0.03085 =
         0.03212    0.00303    0.01977   -0.00104
C23   1    0.316707    0.465344    0.061615    11.00000    0.02870    0.03095 =
         0.03459    0.00552    0.01913    0.00105
C24   1    0.317178    0.469930    0.002070    11.00000    0.04173    0.03910 =
         0.03939   -0.00743    0.02664   -0.00760
AFIX  43
H24A  2    0.293710    0.427949   -0.034567    11.00000   -1.20000
AFIX   0
C25   1    0.351736    0.535495   -0.004282    11.00000    0.04619    0.04447 =
         0.04192   -0.00334    0.03164   -0.00313
AFIX  43
H25A  2    0.352190    0.536939   -0.044892    11.00000   -1.20000
AFIX   0
C26   1    0.385327    0.598374    0.048669    11.00000    0.03010    0.03319 =
         0.04955    0.00147    0.02554   -0.00199
C27   1    0.420432    0.670166    0.041714    11.00000    0.03739    0.03745 =
         0.05010    0.00025    0.02571   -0.00225
C28   1    0.385600    0.592888    0.107924    11.00000    0.02749    0.04789 =
         0.03490    0.00282    0.00905   -0.00743
AFIX  43
H28A  2    0.409314    0.634127    0.144557    11.00000   -1.20000
AFIX   0
C29   1    0.351407    0.527441    0.114214    11.00000    0.03131    0.05432 =
         0.02767    0.00704    0.01354    0.00040
AFIX  43
H29A  2    0.351639    0.524876    0.155268    11.00000   -1.20000
AFIX   0
C30   1    0.289771    0.296957    0.112373    11.00000    0.02748    0.02985 =
         0.03366    0.00383    0.01906    0.00140
C31   1    0.333136    0.234493    0.143349    11.00000    0.02567    0.04399 =
         0.04756    0.01380    0.02067    0.00448
AFIX  43
H31A  2    0.358883    0.256678    0.137686    11.00000   -1.20000
AFIX   0
C32   1    0.330976    0.138742    0.181929    11.00000    0.02509    0.04041 =
         0.04426    0.01259    0.01748    0.01039
AFIX  43
H32A  2    0.354906    0.080968    0.208414    11.00000   -1.20000
AFIX   0
C33   1    0.285741    0.139435    0.175899    11.00000    0.02495    0.02717 =
         0.03151    0.00218    0.01330    0.00114
PART   1
C34   1    0.200297    0.286177    0.324388    10.70000    0.09444    0.03831 =
         0.04904   -0.00111    0.04903    0.00130
AFIX  23
H34A  2    0.176955    0.224450    0.323710    10.70000   -1.20000
H34B  2    0.197867    0.368596    0.345583    10.70000   -1.20000
AFIX   0
PART   2
C34A  1    0.219876    0.229872    0.297527    10.30000    0.05269    0.05160 =
         0.02708   -0.00179    0.01880    0.00491
AFIX  23
H34C  2    0.242941    0.227893    0.281732    10.30000   -1.20000
H34D  2    0.204279    0.143283    0.285757    10.30000   -1.20000
AFIX   0
PART   0
C35   1    0.243991    0.228972    0.364051    11.00000    0.12445    0.08221 =
         0.06777    0.01519    0.02705    0.00866
AFIX   3
H35D  2    0.247631    0.212172    0.406871    10.50000   -1.50000
H35E  2    0.246651    0.147442    0.344891    10.50000   -1.50000
H35F  2    0.267021    0.289352    0.366501    10.50000   -1.50000
H35A  2    0.263421    0.152902    0.378141    10.50000   -1.50000
H35B  2    0.262031    0.307832    0.377671    10.50000   -1.50000
H35C  2    0.223541    0.226922    0.382751    10.50000   -1.50000
AFIX   0
C36   1    0.128333    0.602695    0.153119    11.00000    0.07253    0.07275 =
         0.05582    0.00028    0.00415    0.03616
AFIX  23
H36A  2    0.131095    0.574010    0.114317    11.00000   -1.20000
H36B  2    0.147300    0.682419    0.171137    11.00000   -1.20000
AFIX   0
C37   1    0.079525    0.633428    0.135021    11.00000    0.07861    0.14912 =
         0.10472   -0.01579   -0.00105    0.07726
AFIX 137
H37A  2    0.067987    0.699419    0.100234    11.00000   -1.50000
H37B  2    0.077475    0.668312    0.172966    11.00000   -1.50000
H37C  2    0.061409    0.552516    0.120108    11.00000   -1.50000
AFIX   0
C38   1    0.231363    0.555312    0.291982    11.00000    0.02278    0.02590 =
         0.03425   -0.00768    0.01353   -0.00301

HKLF 4

REM  2 in C2/c
REM R1 =  0.0616 for    4945 Fo > 4sig(Fo)  and  0.1525 for all   10104 data
REM    452 parameters refined using      0 restraints

END

WGHT      0.0544      0.0000

REM Highest difference peak  0.593,  deepest hole -0.412,  1-sigma level  0.087
Q1    1   0.2351  0.2780  0.1316  11.00000  0.05    0.59
Q2    1   0.1570  0.2898  0.0822  11.00000  0.05    0.52
Q3    1   0.1865  0.2050  0.1244  11.00000  0.05    0.41
Q4    1   0.3352  0.7006 -0.0589  11.00000  0.05    0.39
Q5    1   0.2708  0.2841  0.1505  11.00000  0.05    0.39
Q6    1   0.1553  0.2916  0.3004  11.00000  0.05    0.36
Q7    1   0.2058  0.3529  0.0619  11.00000  0.05    0.35
Q8    1   0.3896  0.6887  0.1864  11.00000  0.05    0.35
Q9    1   0.1784  0.1211  0.1710  11.00000  0.05    0.33
Q10   1   0.3400  0.1376  0.1198  11.00000  0.05    0.33
Q11   1   0.1804  0.3098  0.2816  11.00000  0.05    0.33
Q12   1   0.1767 -0.0999  0.1915  11.00000  0.05    0.33
Q13   1   0.2783  0.1989  0.1704  11.00000  0.05    0.33
Q14   1   0.1702  0.6396 -0.0389  11.00000  0.05    0.33
Q15   1   0.2290  0.5329  0.2499  11.00000  0.05    0.33
Q16   1   0.2291  0.6233  0.2836  11.00000  0.05    0.33
Q17   1  -0.0537 -0.0826  0.1602  11.00000  0.05    0.32
Q18   1   0.2153  0.4496  0.0392  11.00000  0.05    0.32
Q19   1   0.2338  0.5283  0.0214  11.00000  0.05    0.32
Q20   1   0.1792  0.7385  0.1591  11.00000  0.05    0.32
;
_shelx_res_checksum              881
_shelx_fab_file
;
    4    0    0    135.87      0.00
    6    0    0     48.87      0.00
    8    0    0     16.16      0.00
   10    0    0     16.45      0.00
   12    0    0     25.36      0.00
   14    0    0     30.50      0.00
   16    0    0     23.69      0.00
   18    0    0      6.78      0.00
   20    0    0     -7.54      0.00
   22    0    0    -12.20      0.00
   24    0    0    -11.17      0.00
   26    0    0     -8.10      0.00
   28    0    0     -3.75      0.00
   30    0    0     -1.53      0.00
   32    0    0     -3.71      0.00
   34    0    0     -6.15      0.00
   36    0    0     -4.68      0.00
   38    0    0     -1.12      0.00
   40    0    0      0.96      0.00
    1    1    0   -224.63      0.00
    3    1    0   -153.04      0.00
    5    1    0    -68.07      0.00
    7    1    0    -19.01      0.00
    9    1    0     -8.09      0.00
   11    1    0    -14.60      0.00
   13    1    0    -23.00      0.00
   15    1    0    -23.91      0.00
   17    1    0    -13.61      0.00
   19    1    0      1.11      0.00
   21    1    0     10.37      0.00
   23    1    0     12.23      0.00
   25    1    0      9.93      0.00
   27    1    0      5.26      0.00
   29    1    0      0.79      0.00
   31    1    0      0.35      0.00
   33    1    0      3.17      0.00
   35    1    0      4.12      0.00
   37    1    0      1.39      0.00
   39    1    0     -1.59      0.00
   41    1    0     -2.05      0.00
    0    2    0    108.93      0.00
    2    2    0     92.37      0.00
    4    2    0     54.24      0.00
    6    2    0     18.04      0.00
    8    2    0     -0.27      0.00
   10    2    0     -0.93      0.00
   12    2    0      6.32      0.00
   14    2    0     12.06      0.00
   16    2    0     11.39      0.00
   18    2    0      4.34      0.00
   20    2    0     -4.79      0.00
   22    2    0    -10.52      0.00
   24    2    0    -10.37      0.00
   26    2    0     -5.68      0.00
   28    2    0      0.16      0.00
   30    2    0      3.54      0.00
   32    2    0      2.82      0.00
   34    2    0      0.39      0.00
   36    2    0      0.23      0.00
   38    2    0      2.52      0.00
   40    2    0      3.68      0.00
    1    3    0    -15.06      0.00
    3    3    0    -14.95      0.00
    5    3    0     -8.88      0.00
    7    3    0      1.56      0.00
    9    3    0      7.57      0.00
   11    3    0      6.18      0.00
   13    3    0      1.96      0.00
   15    3    0     -1.46      0.00
   17    3    0     -2.75      0.00
   19    3    0     -0.32      0.00
   21    3    0      4.52      0.00
   23    3    0      6.68      0.00
   25    3    0      3.85      0.00
   27    3    0     -0.97      0.00
   29    3    0     -4.44      0.00
   31    3    0     -5.58      0.00
   33    3    0     -4.42      0.00
   35    3    0     -2.34      0.00
   37    3    0     -1.63      0.00
   39    3    0     -2.28      0.00
    0    4    0    -26.42      0.00
    2    4    0    -20.76      0.00
    4    4    0    -10.43      0.00
    6    4    0     -5.14      0.00
    8    4    0     -5.50      0.00
   10    4    0     -7.04      0.00
   12    4    0     -7.90      0.00
   14    4    0     -7.41      0.00
   16    4    0     -4.44      0.00
   18    4    0     -0.75      0.00
   20    4    0      0.47      0.00
   22    4    0     -0.06      0.00
   24    4    0      0.64      0.00
   26    4    0      2.43      0.00
   28    4    0      3.35      0.00
   30    4    0      3.54      0.00
   32    4    0      3.66      0.00
   34    4    0      2.75      0.00
   36    4    0      0.60      0.00
   38    4    0     -0.94      0.00
    1    5    0     32.58      0.00
    3    5    0     23.22      0.00
    5    5    0     10.61      0.00
    7    5    0      1.60      0.00
    9    5    0     -0.61      0.00
   11    5    0      2.90      0.00
   13    5    0      7.91      0.00
   15    5    0      9.57      0.00
   17    5    0      6.06      0.00
   19    5    0      0.06      0.00
   21    5    0     -4.39      0.00
   23    5    0     -5.64      0.00
   25    5    0     -4.52      0.00
   27    5    0     -2.49      0.00
   29    5    0     -1.08      0.00
   31    5    0     -1.14      0.00
   33    5    0     -1.66      0.00
   35    5    0     -0.81      0.00
   37    5    0      1.23      0.00
    0    6    0    -25.13      0.00
    2    6    0    -20.96      0.00
    4    6    0    -10.21      0.00
    6    6    0      1.68      0.00
    8    6    0      8.20      0.00
   10    6    0      6.41      0.00
   12    6    0     -0.70      0.00
   14    6    0     -7.08      0.00
   16    6    0     -8.09      0.00
   18    6    0     -3.14      0.00
   20    6    0      4.00      0.00
   22    6    0      7.90      0.00
   24    6    0      6.23      0.00
   26    6    0      1.82      0.00
   28    6    0     -0.91      0.00
   30    6    0     -0.63      0.00
   32    6    0      0.74      0.00
   34    6    0      1.17      0.00
   36    6    0      0.36      0.00
    1    7    0     13.21      0.00
    3    7    0      7.58      0.00
    5    7    0     -1.32      0.00
    7    7    0     -8.73      0.00
    9    7    0    -10.20      0.00
   11    7    0     -5.49      0.00
   13    7    0      1.11      0.00
   15    7    0      4.75      0.00
   17    7    0      3.49      0.00
   19    7    0     -1.24      0.00
   21    7    0     -5.73      0.00
   23    7    0     -6.20      0.00
   25    7    0     -2.44      0.00
   27    7    0      1.47      0.00
   29    7    0      2.01      0.00
   31    7    0      0.23      0.00
   33    7    0     -0.98      0.00
   35    7    0     -1.03      0.00
    0    8    0     -4.56      0.00
    2    8    0     -3.47      0.00
    4    8    0     -0.07      0.00
    6    8    0      4.70      0.00
    8    8    0      7.60      0.00
   10    8    0      6.00      0.00
   12    8    0      1.66      0.00
   14    8    0     -1.19      0.00
   16    8    0     -0.96      0.00
   18    8    0      0.64      0.00
   20    8    0      2.16      0.00
   22    8    0      3.29      0.00
   24    8    0      3.14      0.00
   26    8    0      1.36      0.00
   28    8    0     -0.30      0.00
   30    8    0     -0.31      0.00
   32    8    0      0.55      0.00
   34    8    0      1.11      0.00
    1    9    0     -1.70      0.00
    3    9    0     -1.81      0.00
    5    9    0     -2.91      0.00
    7    9    0     -4.30      0.00
    9    9    0     -3.70      0.00
   11    9    0     -1.08      0.00
   13    9    0      0.50      0.00
   15    9    0     -0.69      0.00
   17    9    0     -2.31      0.00
   19    9    0     -1.89      0.00
   21    9    0     -0.67      0.00
   23    9    0     -1.03      0.00
   25    9    0     -2.45      0.00
   27    9    0     -2.70      0.00
   29    9    0     -1.41      0.00
   31    9    0     -0.19      0.00
    0   10    0      2.55      0.00
    2   10    0      2.83      0.00
    4   10    0      3.36      0.00
    6   10    0      3.30      0.00
    8   10    0      1.91      0.00
   10   10    0     -0.20      0.00
   12   10    0     -1.23      0.00
   14   10    0     -0.24      0.00
   16   10    0      1.50      0.00
   18   10    0      1.87      0.00
   20   10    0      0.33      0.00
   22   10    0     -1.23      0.00
   24   10    0     -0.85      0.00
   26   10    0      0.89      0.00
   28   10    0      1.54      0.00
    1   11    0     -1.93      0.00
    3   11    0     -3.10      0.00
    5   11    0     -3.61      0.00
    7   11    0     -2.22      0.00
    9   11    0     -0.05      0.00
   11   11    0      1.04      0.00
   13   11    0      0.95      0.00
   15   11    0      0.86      0.00
   17   11    0      1.08      0.00
   19   11    0      1.28      0.00
   21   11    0      1.78      0.00
   23   11    0      2.57      0.00
   25   11    0      2.45      0.00
    0   12    0      1.45      0.00
    2   12    0      1.68      0.00
    4   12    0      2.05      0.00
    6   12    0      1.86      0.00
    8   12    0      0.84      0.00
   10   12    0     -0.11      0.00
   12   12    0     -0.25      0.00
   14   12    0     -0.39      0.00
   16   12    0     -1.44      0.00
   18   12    0     -2.46      0.00
   20   12    0     -2.23      0.00
   22   12    0     -1.46      0.00
    1   13    0     -0.22      0.00
    3   13    0      0.69      0.00
    5   13    0      0.91      0.00
    7   13    0      0.31      0.00
    9   13    0      0.15      0.00
   11   13    0      0.28      0.00
   13   13    0     -0.34      0.00
   15   13    0     -0.89      0.00
    0   14    0     -0.29      0.00
    2   14    0     -1.12      0.00
    4   14    0     -2.13      0.00
    6   14    0     -1.57      0.00
  -41    1    1      1.96      0.00
  -39    1    1      2.27      0.00
  -37    1    1      2.88      0.00
  -35    1    1      3.90      0.00
  -33    1    1      3.50      0.00
  -31    1    1      1.82      0.00
  -29    1    1      1.11      0.00
  -27    1    1      1.34      0.00
  -25    1    1      1.35      0.00
  -23    1    1      2.21      0.00
  -21    1    1      3.16      0.00
  -19    1    1     -0.58      0.00
  -17    1    1     -9.33      0.00
  -15    1    1    -16.06      0.00
  -13    1    1    -16.82      0.00
  -11    1    1    -14.42      0.00
   -9    1    1    -11.80      0.00
   -7    1    1    -14.92      0.00
   -5    1    1    -35.95      0.00
   -3    1    1    -73.91      0.00
    1    1    1    -88.44      0.00
    3    1    1    -49.47      0.00
    5    1    1    -17.27      0.00
    7    1    1     -6.73      0.00
    9    1    1     -8.52      0.00
   11    1    1    -12.29      0.00
   13    1    1    -13.99      0.00
   15    1    1    -10.12      0.00
   17    1    1     -1.38      0.00
   19    1    1      4.93      0.00
   21    1    1      4.84      0.00
   23    1    1      2.38      0.00
   25    1    1      1.41      0.00
   27    1    1      1.40      0.00
   29    1    1      1.58      0.00
   31    1    1      2.00      0.00
   33    1    1      1.86      0.00
   35    1    1      1.08      0.00
   37    1    1      0.80      0.00
   39    1    1      0.77      0.00
  -40    2    1     -1.95      0.00
  -38    2    1     -3.00      0.00
  -36    2    1     -4.86      0.00
  -34    2    1     -5.11      0.00
  -32    2    1     -2.55      0.00
  -30    2    1     -0.55      0.00
  -28    2    1     -1.56      0.00
  -26    2    1     -3.59      0.00
  -24    2    1     -5.33      0.00
  -22    2    1     -6.86      0.00
  -20    2    1     -3.89      0.00
  -18    2    1      7.31      0.00
  -16    2    1     20.12      0.00
  -14    2    1     24.63      0.00
  -12    2    1     20.77      0.00
  -10    2    1     14.85      0.00
   -8    2    1     13.44      0.00
   -6    2    1     28.65      0.00
   -4    2    1     68.91      0.00
   -2    2    1    113.96      0.00
    0    2    1    124.12      0.00
    2    2    1     88.29      0.00
    4    2    1     39.07      0.00
    6    2    1     10.68      0.00
    8    2    1      6.24      0.00
   10    2    1     12.42      0.00
   12    2    1     19.38      0.00
   14    2    1     19.77      0.00
   16    2    1      9.79      0.00
   18    2    1     -3.40      0.00
   20    2    1     -9.34      0.00
   22    2    1     -7.75      0.00
   24    2    1     -4.82      0.00
   26    2    1     -2.86      0.00
   28    2    1     -1.44      0.00
   30    2    1     -1.46      0.00
   32    2    1     -2.45      0.00
   34    2    1     -2.22      0.00
   36    2    1     -0.85      0.00
   38    2    1      0.06      0.00
   40    2    1      0.46      0.00
  -41    3    1      0.08      0.00
  -39    3    1      1.20      0.00
  -37    3    1      3.45      0.00
  -35    3    1      4.26      0.00
  -33    3    1      1.63      0.00
  -31    3    1     -1.88      0.00
  -29    3    1     -1.94      0.00
  -27    3    1      1.81      0.00
  -25    3    1      6.54      0.00
  -23    3    1      9.60      0.00
  -21    3    1      7.82      0.00
  -19    3    1     -1.55      0.00
  -17    3    1    -14.83      0.00
  -15    3    1    -22.44      0.00
  -13    3    1    -19.45      0.00
  -11    3    1    -10.97      0.00
   -9    3    1     -6.46      0.00
   -7    3    1    -14.57      0.00
   -5    3    1    -39.80      0.00
   -3    3    1    -73.91      0.00
   -1    3    1    -94.50      0.00
    1    3    1    -84.47      0.00
    3    3    1    -51.43      0.00
    5    3    1    -18.82      0.00
    7    3    1     -2.42      0.00
    9    3    1     -2.60      0.00
   11    3    1    -11.61      0.00
   13    3    1    -18.91      0.00
   15    3    1    -15.98      0.00
   17    3    1     -3.85      0.00
   19    3    1      7.79      0.00
   21    3    1     12.00      0.00
   23    3    1      9.96      0.00
   25    3    1      5.40      0.00
   27    3    1      0.76      0.00
   29    3    1     -1.57      0.00
   31    3    1     -0.50      0.00
   33    3    1      1.44      0.00
   35    3    1      1.21      0.00
   37    3    1     -0.64      0.00
   39    3    1     -1.70      0.00
  -40    4    1     -0.85      0.00
  -38    4    1     -2.84      0.00
  -36    4    1     -3.74      0.00
  -34    4    1     -1.72      0.00
  -32    4    1      2.14      0.00
  -30    4    1      4.64      0.00
  -28    4    1      3.25      0.00
  -26    4    1     -1.99      0.00
  -24    4    1     -7.80      0.00
  -22    4    1     -8.94      0.00
  -20    4    1     -2.62      0.00
  -18    4    1      7.95      0.00
  -16    4    1     15.38      0.00
  -14    4    1     14.02      0.00
  -12    4    1      4.99      0.00
  -10    4    1     -3.11      0.00
   -8    4    1     -0.20      0.00
   -6    4    1     16.22      0.00
   -4    4    1     38.13      0.00
   -2    4    1     53.91      0.00
    0    4    1     56.43      0.00
    2    4    1     44.91      0.00
    4    4    1     24.15      0.00
    6    4    1      4.00      0.00
    8    4    1     -5.25      0.00
   10    4    1     -1.17      0.00
   12    4    1      8.54      0.00
   14    4    1     13.42      0.00
   16    4    1      9.03      0.00
   18    4    1     -1.17      0.00
   20    4    1    -10.03      0.00
   22    4    1    -12.35      0.00
   24    4    1     -8.01      0.00
   26    4    1     -1.14      0.00
   28    4    1      3.42      0.00
   30    4    1      3.49      0.00
   32    4    1      0.66      0.00
   34    4    1     -1.51      0.00
   36    4    1     -1.16      0.00
   38    4    1      0.34      0.00
  -39    5    1      3.26      0.00
  -37    5    1      3.74      0.00
  -35    5    1      2.21      0.00
  -33    5    1     -0.45      0.00
  -31    5    1     -3.24      0.00
  -29    5    1     -4.83      0.00
  -27    5    1     -3.08      0.00
  -25    5    1      2.04      0.00
  -23    5    1      6.09      0.00
  -21    5    1      4.46      0.00
  -19    5    1     -1.80      0.00
  -17    5    1     -7.17      0.00
  -15    5    1     -6.94      0.00
  -13    5    1     -0.23      0.00
  -11    5    1      8.83      0.00
   -9    5    1     12.24      0.00
   -7    5    1      4.76      0.00
   -5    5    1     -9.81      0.00
   -3    5    1    -22.51      0.00
   -1    5    1    -28.18      0.00
    1    5    1    -26.37      0.00
    3    5    1    -17.32      0.00
    5    5    1     -3.62      0.00
    7    5    1      7.18      0.00
    9    5    1      8.52      0.00
   11    5    1      2.04      0.00
   13    5    1     -5.04      0.00
   15    5    1     -7.28      0.00
   17    5    1     -3.62      0.00
   19    5    1      3.40      0.00
   21    5    1      8.56      0.00
   23    5    1      7.56      0.00
   25    5    1      1.72      0.00
   27    5    1     -3.36      0.00
   29    5    1     -4.06      0.00
   31    5    1     -1.47      0.00
   33    5    1      1.46      0.00
   35    5    1      2.95      0.00
   37    5    1      2.73      0.00
  -38    6    1     -2.71      0.00
  -36    6    1     -1.31      0.00
  -34    6    1      0.61      0.00
  -32    6    1      2.00      0.00
  -30    6    1      3.06      0.00
  -28    6    1      3.12      0.00
  -26    6    1      1.12      0.00
  -24    6    1     -1.73      0.00
  -22    6    1     -2.80      0.00
  -20    6    1     -1.50      0.00
  -18    6    1      0.21      0.00
  -16    6    1      0.11      0.00
  -14    6    1     -2.89      0.00
  -12    6    1     -8.09      0.00
  -10    6    1    -12.35      0.00
   -8    6    1    -11.85      0.00
   -6    6    1     -5.94      0.00
   -4    6    1      2.04      0.00
   -2    6    1      8.10      0.00
    0    6    1     10.17      0.00
    2    6    1      7.65      0.00
    4    6    1      1.50      0.00
    6    6    1     -4.86      0.00
    8    6    1     -7.37      0.00
   10    6    1     -5.19      0.00
   12    6    1     -1.10      0.00
   14    6    1      1.94      0.00
   16    6    1      2.77      0.00
   18    6    1      1.30      0.00
   20    6    1     -1.50      0.00
   22    6    1     -3.00      0.00
   24    6    1     -1.32      0.00
   26    6    1      1.84      0.00
   28    6    1      3.10      0.00
   30    6    1      1.69      0.00
   32    6    1     -0.63      0.00
   34    6    1     -2.46      0.00
   36    6    1     -3.36      0.00
  -35    7    1     -1.16      0.00
  -33    7    1     -2.37      0.00
  -31    7    1     -1.88      0.00
  -29    7    1     -0.24      0.00
  -27    7    1      1.09      0.00
  -25    7    1      1.08      0.00
  -23    7    1      0.33      0.00
  -21    7    1      0.53      0.00
  -19    7    1      2.12      0.00
  -17    7    1      3.83      0.00
  -15    7    1      4.85      0.00
  -13    7    1      5.77      0.00
  -11    7    1      6.80      0.00
   -9    7    1      7.03      0.00
   -7    7    1      5.85      0.00
   -5    7    1      3.79      0.00
   -3    7    1      1.61      0.00
   -1    7    1     -0.28      0.00
    1    7    1     -1.34      0.00
    3    7    1     -1.01      0.00
    5    7    1      0.45      0.00
    7    7    1      1.82      0.00
    9    7    1      1.99      0.00
   11    7    1      1.19      0.00
   13    7    1      0.45      0.00
   15    7    1     -0.11      0.00
   17    7    1     -1.19      0.00
   19    7    1     -2.36      0.00
   21    7    1     -2.21      0.00
   23    7    1     -0.62      0.00
   25    7    1      0.64      0.00
   27    7    1      0.41      0.00
   29    7    1     -0.47      0.00
   31    7    1     -0.57      0.00
   33    7    1      0.47      0.00
   35    7    1      1.75      0.00
  -34    8    1      2.22      0.00
  -32    8    1      2.11      0.00
  -30    8    1     -0.65      0.00
  -28    8    1     -3.32      0.00
  -26    8    1     -2.97      0.00
  -24    8    1     -0.56      0.00
  -22    8    1      0.47      0.00
  -20    8    1     -1.29      0.00
  -18    8    1     -4.00      0.00
  -16    8    1     -5.33      0.00
  -14    8    1     -4.85      0.00
  -12    8    1     -3.49      0.00
  -10    8    1     -2.16      0.00
   -8    8    1     -1.41      0.00
   -6    8    1     -1.64      0.00
   -4    8    1     -2.67      0.00
   -2    8    1     -3.35      0.00
    0    8    1     -2.48      0.00
    2    8    1     -0.25      0.00
    4    8    1      1.83      0.00
    6    8    1      2.55      0.00
    8    8    1      2.06      0.00
   10    8    1      1.21      0.00
   12    8    1      0.36      0.00
   14    8    1     -0.44      0.00
   16    8    1     -0.53      0.00
   18    8    1      0.84      0.00
   20    8    1      2.69      0.00
   22    8    1      2.51      0.00
   24    8    1     -0.37      0.00
   26    8    1     -2.97      0.00
   28    8    1     -2.32      0.00
   30    8    1      0.35      0.00
   32    8    1      1.48      0.00
  -31    9    1     -0.83      0.00
  -29    9    1      1.27      0.00
  -27    9    1      1.37      0.00
  -25    9    1     -0.10      0.00
  -23    9    1     -0.60      0.00
  -21    9    1      0.53      0.00
  -19    9    1      2.18      0.00
  -17    9    1      3.65      0.00
  -15    9    1      4.35      0.00
  -13    9    1      3.26      0.00
  -11    9    1      0.54      0.00
   -9    9    1     -1.89      0.00
   -7    9    1     -2.44      0.00
   -5    9    1     -1.27      0.00
   -3    9    1      0.29      0.00
   -1    9    1      0.82      0.00
    1    9    1     -0.38      0.00
    3    9    1     -2.71      0.00
    5    9    1     -4.58      0.00
    7    9    1     -4.68      0.00
    9    9    1     -3.07      0.00
   11    9    1     -1.07      0.00
   13    9    1      0.15      0.00
   15    9    1      0.78      0.00
   17    9    1      1.19      0.00
   19    9    1      0.68      0.00
   21    9    1     -0.88      0.00
   23    9    1     -1.44      0.00
   25    9    1      0.25      0.00
   27    9    1      1.66      0.00
   29    9    1      0.31      0.00
   31    9    1     -1.95      0.00
  -30   10    1      0.68      0.00
  -28   10    1      1.88      0.00
  -26   10    1      3.01      0.00
  -24   10    1      2.27      0.00
  -22   10    1      0.59      0.00
  -20   10    1     -0.18      0.00
  -18   10    1     -0.77      0.00
  -16   10    1     -2.46      0.00
  -14   10    1     -3.61      0.00
  -12   10    1     -1.81      0.00
  -10   10    1      2.15      0.00
   -8   10    1      5.26      0.00
   -6   10    1      5.86      0.00
   -4   10    1      4.45      0.00
   -2   10    1      2.55      0.00
    0   10    1      1.86      0.00
    2   10    1      3.09      0.00
    4   10    1      5.03      0.00
    6   10    1      5.52      0.00
    8   10    1      3.66      0.00
   10   10    1      0.86      0.00
   12   10    1     -0.73      0.00
   14   10    1     -0.80      0.00
   16   10    1     -1.00      0.00
   18   10    1     -1.93      0.00
   20   10    1     -1.82      0.00
   22   10    1      0.21      0.00
   24   10    1      1.96      0.00
   26   10    1      1.60      0.00
   28   10    1      0.62      0.00
  -25   11    1     -2.79      0.00
  -23   11    1     -1.34      0.00
  -21   11    1     -0.45      0.00
  -19   11    1      0.21      0.00
  -17   11    1      1.81      0.00
  -15   11    1      3.45      0.00
  -13   11    1      2.91      0.00
  -11   11    1     -0.42      0.00
   -9   11    1     -4.89      0.00
   -7   11    1     -8.08      0.00
   -5   11    1     -7.92      0.00
   -3   11    1     -4.43      0.00
   -1   11    1     -0.81      0.00
    1   11    1     -0.60      0.00
    3   11    1     -3.29      0.00
    5   11    1     -4.97      0.00
    7   11    1     -3.55      0.00
    9   11    1     -0.74      0.00
   11   11    1      1.14      0.00
   13   11    1      1.80      0.00
   15   11    1      2.08      0.00
   17   11    1      2.37      0.00
   19   11    1      2.32      0.00
   21   11    1      1.44      0.00
   23   11    1     -0.05      0.00
   25   11    1     -1.11      0.00
  -22   12    1      0.55      0.00
  -20   12    1     -0.91      0.00
  -18   12    1     -3.21      0.00
  -16   12    1     -4.27      0.00
  -14   12    1     -2.86      0.00
  -12   12    1      0.11      0.00
  -10   12    1      3.66      0.00
   -8   12    1      7.32      0.00
   -6   12    1      9.13      0.00
   -4   12    1      6.55      0.00
   -2   12    1      1.09      0.00
    0   12    1     -1.78      0.00
    2   12    1      0.35      0.00
    4   12    1      3.64      0.00
    6   12    1      3.91      0.00
    8   12    1      1.99      0.00
   10   12    1      0.42      0.00
   12   12    1     -1.04      0.00
   14   12    1     -3.27      0.00
   16   12    1     -4.56      0.00
   18   12    1     -3.33      0.00
   20   12    1     -1.21      0.00
  -17   13    1      3.37      0.00
  -15   13    1      2.05      0.00
  -13   13    1     -0.59      0.00
  -11   13    1     -2.84      0.00
   -9   13    1     -4.74      0.00
   -7   13    1     -6.22      0.00
   -5   13    1     -5.46      0.00
   -3   13    1     -1.82      0.00
   -1   13    1      1.65      0.00
    1   13    1      1.59      0.00
    3   13    1     -1.04      0.00
    5   13    1     -2.81      0.00
    7   13    1     -2.78      0.00
    9   13    1     -2.37      0.00
   11   13    1     -1.52      0.00
   13   13    1      0.96      0.00
   15   13    1      3.74      0.00
   -8   14    1      2.73      0.00
   -6   14    1      2.11      0.00
   -4   14    1      0.51      0.00
   -2   14    1     -0.96      0.00
    0   14    1     -1.22      0.00
    2   14    1     -0.41      0.00
    4   14    1      0.65      0.00
    6   14    1      1.57      0.00
  -42    0    2      1.53      0.00
  -40    0    2      2.32      0.00
  -38    0    2      4.79      0.00
  -36    0    2      6.92      0.00
  -34    0    2      5.29      0.00
  -32    0    2      1.75      0.00
  -30    0    2      1.82      0.00
  -28    0    2      5.55      0.00
  -26    0    2      8.34      0.00
  -24    0    2      8.82      0.00
  -22    0    2      6.34      0.00
  -20    0    2     -3.50      0.00
  -18    0    2    -19.51      0.00
  -16    0    2    -29.94      0.00
  -14    0    2    -26.64      0.00
  -12    0    2    -13.80      0.00
  -10    0    2     -1.05      0.00
   -8    0    2     -6.08      0.00
   -6    0    2    -54.95      0.00
   -4    0    2   -145.81      0.00
    0    0    2   -212.24      0.00
    2    0    2   -130.59      0.00
    4    0    2    -44.25      0.00
    6    0    2     -1.63      0.00
    8    0    2      3.17      0.00
   10    0    2     -6.54      0.00
   12    0    2    -16.90      0.00
   14    0    2    -17.86      0.00
   16    0    2     -5.53      0.00
   18    0    2      9.79      0.00
   20    0    2     15.87      0.00
   22    0    2     13.19      0.00
   24    0    2      8.17      0.00
   26    0    2      3.31      0.00
   28    0    2      0.12      0.00
   30    0    2      0.67      0.00
   32    0    2      3.03      0.00
   34    0    2      3.14      0.00
   36    0    2      0.81      0.00
   38    0    2     -1.39      0.00
   40    0    2     -2.26      0.00
  -41    1    2     -0.59      0.00
  -39    1    2     -2.11      0.00
  -37    1    2     -4.44      0.00
  -35    1    2     -4.32      0.00
  -33    1    2     -1.29      0.00
  -31    1    2      0.32      0.00
  -29    1    2     -2.35      0.00
  -27    1    2     -6.66      0.00
  -25    1    2     -9.24      0.00
  -23    1    2     -8.77      0.00
  -21    1    2     -2.74      0.00
  -19    1    2      9.83      0.00
  -17    1    2     21.89      0.00
  -15    1    2     23.96      0.00
  -13    1    2     15.04      0.00
  -11    1    2      1.96      0.00
   -9    1    2     -3.45      0.00
   -7    1    2     18.33      0.00
   -5    1    2     78.99      0.00
   -3    1    2    151.67      0.00
    1    1    2    140.77      0.00
    3    1    2     67.96      0.00
    5    1    2     14.05      0.00
    7    1    2     -4.20      0.00
    9    1    2     -0.40      0.00
   11    1    2     10.09      0.00
   13    1    2     16.79      0.00
   15    1    2     12.28      0.00
   17    1    2     -0.79      0.00
   19    1    2    -11.39      0.00
   21    1    2    -13.71      0.00
   23    1    2    -10.70      0.00
   25    1    2     -5.82      0.00
   27    1    2     -0.92      0.00
   29    1    2      0.98      0.00
   31    1    2     -0.98      0.00
   33    1    2     -2.94      0.00
   35    1    2     -1.61      0.00
   37    1    2      1.35      0.00
   39    1    2      2.83      0.00
  -42    2    2     -1.13      0.00
  -40    2    2     -0.83      0.00
  -38    2    2      0.58      0.00
  -36    2    2      0.43      0.00
  -34    2    2     -1.83      0.00
  -32    2    2     -3.56      0.00
  -30    2    2     -2.49      0.00
  -28    2    2      1.28      0.00
  -26    2    2      6.14      0.00
  -24    2    2      8.93      0.00
  -22    2    2      6.10      0.00
  -20    2    2     -2.07      0.00
  -18    2    2    -10.23      0.00
  -16    2    2    -12.72      0.00
  -14    2    2     -7.88      0.00
  -12    2    2      1.62      0.00
  -10    2    2      8.38      0.00
   -8    2    2      1.29      0.00
   -6    2    2    -25.46      0.00
   -4    2    2    -61.70      0.00
   -2    2    2    -85.50      0.00
    0    2    2    -81.78      0.00
    2    2    2    -55.05      0.00
    4    2    2    -23.25      0.00
    6    2    2     -2.17      0.00
    8    2    2      3.45      0.00
   10    2    2     -1.60      0.00
   12    2    2     -8.86      0.00
   14    2    2    -11.35      0.00
   16    2    2     -6.94      0.00
   18    2    2      1.25      0.00
   20    2    2      8.11      0.00
   22    2    2     10.41      0.00
   24    2    2      7.81      0.00
   26    2    2      2.30      0.00
   28    2    2     -2.31      0.00
   30    2    2     -2.73      0.00
   32    2    2     -0.04      0.00
   34    2    2      1.14      0.00
   36    2    2     -1.12      0.00
   38    2    2     -3.52      0.00
  -41    3    2      0.72      0.00
  -39    3    2      0.31      0.00
  -37    3    2      1.27      0.00
  -35    3    2      3.48      0.00
  -33    3    2      4.68      0.00
  -31    3    2      4.51      0.00
  -29    3    2      3.74      0.00
  -27    3    2      1.07      0.00
  -25    3    2     -3.34      0.00
  -23    3    2     -4.95      0.00
  -21    3    2     -1.41      0.00
  -19    3    2      2.73      0.00
  -17    3    2      2.80      0.00
  -15    3    2     -0.75      0.00
  -13    3    2     -5.97      0.00
  -11    3    2    -10.24      0.00
   -9    3    2     -7.79      0.00
   -7    3    2      3.45      0.00
   -5    3    2     15.21      0.00
   -3    3    2     19.08      0.00
   -1    3    2     17.94      0.00
    1    3    2     17.73      0.00
    3    3    2     16.12      0.00
    5    3    2      9.49      0.00
    7    3    2      2.26      0.00
    9    3    2      0.25      0.00
   11    3    2      2.38      0.00
   13    3    2      4.98      0.00
   15    3    2      6.61      0.00
   17    3    2      5.78      0.00
   19    3    2      1.21      0.00
   21    3    2     -4.29      0.00
   23    3    2     -5.94      0.00
   25    3    2     -2.83      0.00
   27    3    2      1.76      0.00
   29    3    2      4.20      0.00
   31    3    2      3.23      0.00
   33    3    2      0.89      0.00
   35    3    2      0.36      0.00
   37    3    2      1.74      0.00
   39    3    2      2.17      0.00
  -40    4    2      1.34      0.00
  -38    4    2     -0.20      0.00
  -36    4    2     -2.69      0.00
  -34    4    2     -3.47      0.00
  -32    4    2     -2.76      0.00
  -30    4    2     -3.20      0.00
  -28    4    2     -4.33      0.00
  -26    4    2     -3.10      0.00
  -24    4    2     -0.12      0.00
  -22    4    2      1.29      0.00
  -20    4    2      1.57      0.00
  -18    4    2      3.77      0.00
  -16    4    2      7.46      0.00
  -14    4    2      9.82      0.00
  -12    4    2     10.07      0.00
  -10    4    2      8.27      0.00
   -8    4    2      4.77      0.00
   -6    4    2      3.45      0.00
   -4    4    2      8.16      0.00
   -2    4    2     14.31      0.00
    0    4    2     12.92      0.00
    2    4    2      3.78      0.00
    4    4    2     -4.60      0.00
    6    4    2     -7.29      0.00
    8    4    2     -6.28      0.00
   10    4    2     -4.01      0.00
   12    4    2     -1.82      0.00
   14    4    2     -2.16      0.00
   16    4    2     -5.27      0.00
   18    4    2     -6.96      0.00
   20    4    2     -4.59      0.00
   22    4    2     -1.04      0.00
   24    4    2      0.01      0.00
   26    4    2     -1.20      0.00
   28    4    2     -2.53      0.00
   30    4    2     -2.78      0.00
   32    4    2     -1.82      0.00
   34    4    2     -0.33      0.00
   36    4    2      0.54      0.00
   38    4    2      0.45      0.00
  -39    5    2     -0.50      0.00
  -37    5    2      1.81      0.00
  -35    5    2      2.83      0.00
  -33    5    2      1.90      0.00
  -31    5    2      1.21      0.00
  -29    5    2      2.20      0.00
  -27    5    2      3.52      0.00
  -25    5    2      3.37      0.00
  -23    5    2      1.40      0.00
  -21    5    2     -2.28      0.00
  -19    5    2     -7.28      0.00
  -17    5    2    -11.66      0.00
  -15    5    2    -12.47      0.00
  -13    5    2     -8.81      0.00
  -11    5    2     -3.40      0.00
   -9    5    2     -0.91      0.00
   -7    5    2     -4.62      0.00
   -5    5    2    -13.57      0.00
   -3    5    2    -22.22      0.00
   -1    5    2    -24.14      0.00
    1    5    2    -17.32      0.00
    3    5    2     -5.45      0.00
    5    5    2      5.51      0.00
    7    5    2     11.07      0.00
    9    5    2      9.85      0.00
   11    5    2      4.29      0.00
   13    5    2     -0.22      0.00
   15    5    2      0.48      0.00
   17    5    2      5.20      0.00
   19    5    2      8.91      0.00
   21    5    2      8.52      0.00
   23    5    2      5.33      0.00
   25    5    2      2.29      0.00
   27    5    2      0.87      0.00
   29    5    2      0.85      0.00
   31    5    2      1.22      0.00
   33    5    2      0.83      0.00
   35    5    2     -0.48      0.00
   37    5    2     -1.46      0.00
  -38    6    2     -1.00      0.00
  -36    6    2     -1.75      0.00
  -34    6    2     -1.63      0.00
  -32    6    2     -0.87      0.00
  -30    6    2     -0.08      0.00
  -28    6    2     -0.36      0.00
  -26    6    2     -2.08      0.00
  -24    6    2     -3.35      0.00
  -22    6    2     -1.19      0.00
  -20    6    2      4.65      0.00
  -18    6    2     10.60      0.00
  -16    6    2     12.28      0.00
  -14    6    2      7.88      0.00
  -12    6    2     -0.25      0.00
  -10    6    2     -6.27      0.00
   -8    6    2     -4.80      0.00
   -6    6    2      4.18      0.00
   -4    6    2     14.78      0.00
   -2    6    2     20.36      0.00
    0    6    2     18.03      0.00
    2    6    2      9.04      0.00
    4    6    2     -2.50      0.00
    6    6    2    -11.06      0.00
    8    6    2    -12.64      0.00
   10    6    2     -7.75      0.00
   12    6    2     -1.00      0.00
   14    6    2      2.42      0.00
   16    6    2      0.10      0.00
   18    6    2     -5.84      0.00
   20    6    2    -10.14      0.00
   22    6    2     -8.96      0.00
   24    6    2     -3.80      0.00
   26    6    2      0.44      0.00
   28    6    2      0.98      0.00
   30    6    2     -0.65      0.00
   32    6    2     -1.61      0.00
   34    6    2     -1.04      0.00
   36    6    2      0.00      0.00
  -37    7    2      0.22      0.00
  -35    7    2     -0.03      0.00
  -33    7    2     -0.17      0.00
  -31    7    2     -0.95      0.00
  -29    7    2     -1.62      0.00
  -27    7    2     -0.26      0.00
  -25    7    2      2.63      0.00
  -23    7    2      3.79      0.00
  -21    7    2      1.09      0.00
  -19    7    2     -4.02      0.00
  -17    7    2     -7.66      0.00
  -15    7    2     -6.40      0.00
  -13    7    2     -0.18      0.00
  -11    7    2      6.65      0.00
   -9    7    2      8.53      0.00
   -7    7    2      3.72      0.00
   -5    7    2     -4.46      0.00
   -3    7    2    -11.06      0.00
   -1    7    2    -12.70      0.00
    1    7    2     -8.56      0.00
    3    7    2     -0.47      0.00
    5    7    2      7.30      0.00
    7    7    2     10.46      0.00
    9    7    2      7.97      0.00
   11    7    2      2.57      0.00
   13    7    2     -1.83      0.00
   15    7    2     -2.70      0.00
   17    7    2      0.36      0.00
   19    7    2      5.17      0.00
   21    7    2      7.50      0.00
   23    7    2      4.80      0.00
   25    7    2     -0.20      0.00
   27    7    2     -2.33      0.00
   29    7    2     -0.49      0.00
   31    7    2      1.81      0.00
   33    7    2      2.15      0.00
  -34    8    2      1.07      0.00
  -32    8    2      1.55      0.00
  -30    8    2      1.48      0.00
  -28    8    2      0.11      0.00
  -26    8    2     -2.02      0.00
  -24    8    2     -3.35      0.00
  -22    8    2     -3.30      0.00
  -20    8    2     -1.91      0.00
  -18    8    2      0.77      0.00
  -16    8    2      2.88      0.00
  -14    8    2      1.38      0.00
  -12    8    2     -3.28      0.00
  -10    8    2     -6.43      0.00
   -8    8    2     -4.98      0.00
   -6    8    2     -0.86      0.00
   -4    8    2      2.66      0.00
   -2    8    2      4.44      0.00
    0    8    2      4.24      0.00
    2    8    2      1.47      0.00
    4    8    2     -3.05      0.00
    6    8    2     -6.23      0.00
    8    8    2     -5.53      0.00
   10    8    2     -1.94      0.00
   12    8    2      1.35      0.00
   14    8    2      2.60      0.00
   16    8    2      2.24      0.00
   18    8    2      0.72      0.00
   20    8    2     -1.61      0.00
   22    8    2     -2.93      0.00
   24    8    2     -1.69      0.00
   26    8    2      0.43      0.00
   28    8    2      0.58      0.00
   30    8    2     -0.99      0.00
   32    8    2     -2.00      0.00
  -33    9    2     -1.86      0.00
  -31    9    2     -1.25      0.00
  -29    9    2      0.92      0.00
  -27    9    2      2.68      0.00
  -25    9    2      2.66      0.00
  -23    9    2      2.34      0.00
  -21    9    2      3.28      0.00
  -19    9    2      3.76      0.00
  -17    9    2      1.77      0.00
  -15    9    2     -0.52      0.00
  -13    9    2      0.28      0.00
  -11    9    2      3.11      0.00
   -9    9    2      4.23      0.00
   -7    9    2      3.10      0.00
   -5    9    2      2.13      0.00
   -3    9    2      2.04      0.00
   -1    9    2      1.71      0.00
    1    9    2      1.40      0.00
    3    9    2      2.31      0.00
    5    9    2      3.61      0.00
    7    9    2      2.98      0.00
    9    9    2      0.21      0.00
   11    9    2     -2.22      0.00
   13    9    2     -2.69      0.00
   15    9    2     -2.31      0.00
   17    9    2     -2.51      0.00
   19    9    2     -2.65      0.00
   21    9    2     -1.53      0.00
   23    9    2      0.26      0.00
   25    9    2      1.19      0.00
   27    9    2      0.96      0.00
   29    9    2      0.50      0.00
  -30   10    2     -0.06      0.00
  -28   10    2     -1.53      0.00
  -26   10    2     -1.16      0.00
  -24   10    2     -0.29      0.00
  -22   10    2     -1.06      0.00
  -20   10    2     -2.88      0.00
  -18   10    2     -3.14      0.00
  -16   10    2     -1.33      0.00
  -14   10    2      0.19      0.00
  -12   10    2     -0.36      0.00
  -10   10    2     -1.97      0.00
   -8   10    2     -3.04      0.00
   -6   10    2     -3.42      0.00
   -4   10    2     -3.46      0.00
   -2   10    2     -3.06      0.00
    0   10    2     -2.65      0.00
    2   10    2     -2.99      0.00
    4   10    2     -3.35      0.00
    6   10    2     -2.05      0.00
    8   10    2      0.67      0.00
   10   10    2      2.72      0.00
   12   10    2      3.09      0.00
   14   10    2      2.71      0.00
   16   10    2      2.56      0.00
   18   10    2      2.70      0.00
   20   10    2      2.96      0.00
   22   10    2      2.79      0.00
   24   10    2      1.56      0.00
   26   10    2      0.02      0.00
   28   10    2     -0.33      0.00
  -27   11    2     -1.07      0.00
  -25   11    2     -1.73      0.00
  -23   11    2     -1.56      0.00
  -21   11    2     -0.73      0.00
  -19   11    2      0.24      0.00
  -17   11    2      0.91      0.00
  -15   11    2      0.87      0.00
  -13   11    2      0.38      0.00
  -11   11    2      0.42      0.00
   -9   11    2      1.37      0.00
   -7   11    2      2.40      0.00
   -5   11    2      2.55      0.00
   -3   11    2      2.02      0.00
   -1   11    2      1.94      0.00
    1   11    2      2.88      0.00
    3   11    2      3.76      0.00
    5   11    2      2.94      0.00
    7   11    2      0.58      0.00
    9   11    2     -1.48      0.00
   11   11    2     -2.49      0.00
   13   11    2     -3.31      0.00
   15   11    2     -3.87      0.00
   17   11    2     -3.15      0.00
   19   11    2     -1.91      0.00
   21   11    2     -2.03      0.00
   23   11    2     -2.94      0.00
  -22   12    2      1.74      0.00
  -20   12    2      1.40      0.00
  -18   12    2     -0.26      0.00
  -16   12    2     -1.84      0.00
  -14   12    2     -1.62      0.00
  -12   12    2     -0.36      0.00
  -10   12    2      0.23      0.00
   -8   12    2      0.25      0.00
   -6   12    2      0.53      0.00
   -4   12    2      0.40      0.00
   -2   12    2     -0.99      0.00
    0   12    2     -2.77      0.00
    2   12    2     -3.51      0.00
    4   12    2     -2.98      0.00
    6   12    2     -1.82      0.00
    8   12    2     -0.45      0.00
   10   12    2      1.05      0.00
   12   12    2      2.63      0.00
   14   12    2      3.83      0.00
   16   12    2      3.74      0.00
   18   12    2      2.19      0.00
   20   12    2      0.68      0.00
  -17   13    2      2.75      0.00
  -15   13    2      2.51      0.00
  -13   13    2      0.46      0.00
  -11   13    2     -0.97      0.00
   -9   13    2     -1.74      0.00
   -7   13    2     -3.09      0.00
   -5   13    2     -3.66      0.00
   -3   13    2     -1.41      0.00
   -1   13    2      1.98      0.00
    1   13    2      3.06      0.00
    3   13    2      1.86      0.00
    5   13    2      0.96      0.00
    7   13    2      0.74      0.00
    9   13    2     -0.26      0.00
   11   13    2     -1.79      0.00
   13   13    2     -2.28      0.00
   15   13    2     -1.85      0.00
   -8   14    2      1.77      0.00
   -6   14    2      3.02      0.00
   -4   14    2      2.17      0.00
   -2   14    2     -0.80      0.00
    0   14    2     -2.54      0.00
    2   14    2     -1.59      0.00
    4   14    2     -0.27      0.00
  -43    1    3     -2.00      0.00
  -41    1    3     -2.20      0.00
  -39    1    3     -2.19      0.00
  -37    1    3     -3.00      0.00
  -35    1    3     -2.83      0.00
  -33    1    3     -0.55      0.00
  -31    1    3      1.15      0.00
  -29    1    3      0.71      0.00
  -27    1    3      0.21      0.00
  -25    1    3      0.06      0.00
  -23    1    3     -1.27      0.00
  -21    1    3     -1.00      0.00
  -19    1    3      4.54      0.00
  -17    1    3     11.24      0.00
  -15    1    3     12.42      0.00
  -13    1    3      8.74      0.00
  -11    1    3      3.92      0.00
   -9    1    3      0.09      0.00
   -7    1    3      4.54      0.00
   -5    1    3     24.86      0.00
   -3    1    3     49.22      0.00
   -1    1    3     51.62      0.00
    1    1    3     26.21      0.00
    3    1    3     -3.42      0.00
    5    1    3    -15.81      0.00
    7    1    3    -12.57      0.00
    9    1    3     -4.52      0.00
   11    1    3      2.38      0.00
   13    1    3      4.25      0.00
   15    1    3     -0.70      0.00
   17    1    3     -7.12      0.00
   19    1    3     -8.21      0.00
   21    1    3     -4.77      0.00
   23    1    3     -1.83      0.00
   25    1    3     -1.03      0.00
   27    1    3     -1.07      0.00
   29    1    3     -0.89      0.00
   31    1    3     -0.03      0.00
   33    1    3      0.79      0.00
   35    1    3      0.31      0.00
   37    1    3     -0.69      0.00
   39    1    3     -0.22      0.00
  -42    2    3      2.48      0.00
  -40    2    3      2.83      0.00
  -38    2    3      4.02      0.00
  -36    2    3      4.54      0.00
  -34    2    3      1.74      0.00
  -32    2    3     -2.10      0.00
  -30    2    3     -2.41      0.00
  -28    2    3     -0.01      0.00
  -26    2    3      1.82      0.00
  -24    2    3      3.38      0.00
  -22    2    3      3.72      0.00
  -20    2    3     -2.08      0.00
  -18    2    3    -12.80      0.00
  -16    2    3    -18.51      0.00
  -14    2    3    -14.46      0.00
  -12    2    3     -5.93      0.00
  -10    2    3      1.24      0.00
   -8    2    3      0.83      0.00
   -6    2    3    -16.92      0.00
   -4    2    3    -48.86      0.00
   -2    2    3    -67.83      0.00
    0    2    3    -51.14      0.00
    2    2    3    -12.00      0.00
    4    2    3     17.51      0.00
    6    2    3     23.70      0.00
    8    2    3     14.65      0.00
   10    2    3      1.39      0.00
   12    2    3     -7.45      0.00
   14    2    3     -5.20      0.00
   16    2    3      5.25      0.00
   18    2    3     12.60      0.00
   20    2    3     11.49      0.00
   22    2    3      6.81      0.00
   24    2    3      3.53      0.00
   26    2    3      1.83      0.00
   28    2    3      0.97      0.00
   30    2    3      0.58      0.00
   32    2    3      0.02      0.00
   34    2    3     -0.38      0.00
   36    2    3     -0.09      0.00
   38    2    3     -0.21      0.00
  -41    3    3     -1.91      0.00
  -39    3    3     -3.78      0.00
  -37    3    3     -4.90      0.00
  -35    3    3     -2.69      0.00
  -33    3    3      1.91      0.00
  -31    3    3      4.40      0.00
  -29    3    3      2.56      0.00
  -27    3    3     -1.52      0.00
  -25    3    3     -5.14      0.00
  -23    3    3     -6.09      0.00
  -21    3    3     -1.32      0.00
  -19    3    3      8.90      0.00
  -17    3    3     17.16      0.00
  -15    3    3     15.73      0.00
  -13    3    3      5.90      0.00
  -11    3    3     -3.88      0.00
   -9    3    3     -5.17      0.00
   -7    3    3      7.14      0.00
   -5    3    3     30.67      0.00
   -3    3    3     51.07      0.00
   -1    3    3     51.07      0.00
    1    3    3     28.58      0.00
    3    3    3     -0.51      0.00
    5    3    3    -18.87      0.00
    7    3    3    -20.46      0.00
    9    3    3     -9.48      0.00
   11    3    3      4.04      0.00
   13    3    3      9.04      0.00
   15    3    3      2.23      0.00
   17    3    3     -8.55      0.00
   19    3    3    -13.97      0.00
   21    3    3    -12.57      0.00
   23    3    3     -8.12      0.00
   25    3    3     -3.37      0.00
   27    3    3      0.14      0.00
   29    3    3      1.10      0.00
   31    3    3      0.17      0.00
   33    3    3     -0.45      0.00
   35    3    3      0.08      0.00
   37    3    3      0.89      0.00
  -40    4    3      3.52      0.00
  -38    4    3      5.09      0.00
  -36    4    3      3.92      0.00
  -34    4    3      0.52      0.00
  -32    4    3     -2.84      0.00
  -30    4    3     -4.18      0.00
  -28    4    3     -2.32      0.00
  -26    4    3      2.22      0.00
  -24    4    3      5.63      0.00
  -22    4    3      3.29      0.00
  -20    4    3     -4.76      0.00
  -18    4    3    -12.61      0.00
  -16    4    3    -13.43      0.00
  -14    4    3     -5.23      0.00
  -12    4    3      6.57      0.00
  -10    4    3     11.72      0.00
   -8    4    3      3.29      0.00
   -6    4    3    -15.04      0.00
   -4    4    3    -31.94      0.00
   -2    4    3    -38.24      0.00
    0    4    3    -31.81      0.00
    2    4    3    -15.75      0.00
    4    4    3      2.78      0.00
    6    4    3     14.04      0.00
    8    4    3     12.18      0.00
   10    4    3      1.41      0.00
   12    4    3     -7.63      0.00
   14    4    3     -7.78      0.00
   16    4    3     -0.29      0.00
   18    4    3      8.56      0.00
   20    4    3     13.05      0.00
   22    4    3     11.30      0.00
   24    4    3      5.34      0.00
   26    4    3     -0.63      0.00
   28    4    3     -3.13      0.00
   30    4    3     -1.89      0.00
   32    4    3      0.32      0.00
   34    4    3      0.87      0.00
   36    4    3      0.02      0.00
  -39    5    3     -3.95      0.00
  -37    5    3     -3.10      0.00
  -35    5    3     -1.36      0.00
  -33    5    3      0.22      0.00
  -31    5    3      2.17      0.00
  -29    5    3      3.54      0.00
  -27    5    3      1.76      0.00
  -25    5    3     -2.32      0.00
  -23    5    3     -3.67      0.00
  -21    5    3      0.34      0.00
  -19    5    3      6.11      0.00
  -17    5    3      7.96      0.00
  -15    5    3      3.12      0.00
  -13    5    3     -6.62      0.00
  -11    5    3    -14.80      0.00
   -9    5    3    -13.83      0.00
   -7    5    3     -2.55      0.00
   -5    5    3     11.90      0.00
   -3    5    3     21.49      0.00
   -1    5    3     23.24      0.00
    1    5    3     17.51      0.00
    3    5    3      6.56      0.00
    5    5    3     -3.70      0.00
    7    5    3     -6.61      0.00
    9    5    3     -1.64      0.00
   11    5    3      5.35      0.00
   13    5    3      8.71      0.00
   15    5    3      6.73      0.00
   17    5    3      0.56      0.00
   19    5    3     -6.28      0.00
   21    5    3     -8.89      0.00
   23    5    3     -5.30      0.00
   25    5    3      0.82      0.00
   27    5    3      3.97      0.00
   29    5    3      2.70      0.00
   31    5    3     -0.13      0.00
   33    5    3     -1.59      0.00
   35    5    3     -1.46      0.00
  -38    6    3      0.54      0.00
  -36    6    3     -1.17      0.00
  -34    6    3     -1.76      0.00
  -32    6    3     -1.96      0.00
  -30    6    3     -2.57      0.00
  -28    6    3     -2.11      0.00
  -26    6    3      0.32      0.00
  -24    6    3      2.61      0.00
  -22    6    3      2.45      0.00
  -20    6    3      0.45      0.00
  -18    6    3     -0.76      0.00
  -16    6    3      0.88      0.00
  -14    6    3      5.44      0.00
  -12    6    3     10.63      0.00
  -10    6    3     12.76      0.00
   -8    6    3      9.63      0.00
   -6    6    3      2.39      0.00
   -4    6    3     -5.62      0.00
   -2    6    3    -11.01      0.00
    0    6    3    -11.59      0.00
    2    6    3     -7.59      0.00
    4    6    3     -2.42      0.00
    6    6    3     -0.22      0.00
    8    6    3     -1.90      0.00
   10    6    3     -4.89      0.00
   12    6    3     -6.75      0.00
   14    6    3     -6.96      0.00
   16    6    3     -5.37      0.00
   18    6    3     -1.73      0.00
   20    6    3      2.08      0.00
   22    6    3      2.63      0.00
   24    6    3     -0.55      0.00
   26    6    3     -3.51      0.00
   28    6    3     -2.95      0.00
   30    6    3     -0.16      0.00
   32    6    3      1.77      0.00
   34    6    3      2.04      0.00
  -37    7    3      1.71      0.00
  -35    7    3      3.26      0.00
  -33    7    3      3.72      0.00
  -31    7    3      2.87      0.00
  -29    7    3      1.01      0.00
  -27    7    3     -0.83      0.00
  -25    7    3     -1.56      0.00
  -23    7    3     -1.58      0.00
  -21    7    3     -2.11      0.00
  -19    7    3     -3.24      0.00
  -17    7    3     -4.26      0.00
  -15    7    3     -5.17      0.00
  -13    7    3     -6.07      0.00
  -11    7    3     -6.34      0.00
   -9    7    3     -5.61      0.00
   -7    7    3     -4.24      0.00
   -5    7    3     -2.25      0.00
   -3    7    3      0.65      0.00
   -1    7    3      3.65      0.00
    1    7    3      5.18      0.00
    3    7    3      5.02      0.00
    5    7    3      4.54      0.00
    7    7    3      4.83      0.00
    9    7    3      5.39      0.00
   11    7    3      5.30      0.00
   13    7    3      4.79      0.00
   15    7    3      4.77      0.00
   17    7    3      4.97      0.00
   19    7    3      3.99      0.00
   21    7    3      1.81      0.00
   23    7    3      0.34      0.00
   25    7    3      0.67      0.00
   27    7    3      1.40      0.00
   29    7    3      0.90      0.00
   31    7    3     -0.49      0.00
   33    7    3     -1.40      0.00
  -36    8    3     -1.42      0.00
  -34    8    3     -2.92      0.00
  -32    8    3     -2.69      0.00
  -30    8    3     -0.45      0.00
  -28    8    3      1.58      0.00
  -26    8    3      1.48      0.00
  -24    8    3      0.24      0.00
  -22    8    3      0.29      0.00
  -20    8    3      2.26      0.00
  -18    8    3      4.39      0.00
  -16    8    3      5.04      0.00
  -14    8    3      4.17      0.00
  -12    8    3      2.76      0.00
  -10    8    3      1.76      0.00
   -8    8    3      1.87      0.00
   -6    8    3      3.05      0.00
   -4    8    3      4.00      0.00
   -2    8    3      2.93      0.00
    0    8    3     -0.35      0.00
    2    8    3     -3.96      0.00
    4    8    3     -6.02      0.00
    6    8    3     -6.33      0.00
    8    8    3     -5.76      0.00
   10    8    3     -4.88      0.00
   12    8    3     -3.89      0.00
   14    8    3     -3.31      0.00
   16    8    3     -3.80      0.00
   18    8    3     -4.93      0.00
   20    8    3     -4.89      0.00
   22    8    3     -2.56      0.00
   24    8    3      0.44      0.00
   26    8    3      1.31      0.00
   28    8    3     -0.14      0.00
   30    8    3     -1.23      0.00
   32    8    3     -0.53      0.00
  -33    9    3      1.17      0.00
  -31    9    3      0.21      0.00
  -29    9    3     -0.62      0.00
  -27    9    3     -0.23      0.00
  -25    9    3      0.65      0.00
  -23    9    3      0.94      0.00
  -21    9    3      0.14      0.00
  -19    9    3     -1.81      0.00
  -17    9    3     -3.87      0.00
  -15    9    3     -4.11      0.00
  -13    9    3     -2.10      0.00
  -11    9    3      0.22      0.00
   -9    9    3      0.89      0.00
   -7    9    3     -0.22      0.00
   -5    9    3     -2.00      0.00
   -3    9    3     -2.94      0.00
   -1    9    3     -1.63      0.00
    1    9    3      1.79      0.00
    3    9    3      5.16      0.00
    5    9    3      6.36      0.00
    7    9    3      5.36      0.00
    9    9    3      3.75      0.00
   11    9    3      2.74      0.00
   13    9    3      2.17      0.00
   15    9    3      1.48      0.00
   17    9    3      1.24      0.00
   19    9    3      2.22      0.00
   21    9    3      3.10      0.00
   23    9    3      1.83      0.00
   25    9    3     -0.51      0.00
   27    9    3     -0.71      0.00
   29    9    3      1.19      0.00
  -30   10    3     -0.56      0.00
  -28   10    3     -2.36      0.00
  -26   10    3     -2.89      0.00
  -24   10    3     -2.18      0.00
  -22   10    3     -1.76      0.00
  -20   10    3     -1.05      0.00
  -18   10    3      1.46      0.00
  -16   10    3      4.15      0.00
  -14   10    3      3.75      0.00
  -12   10    3      0.44      0.00
  -10   10    3     -2.63      0.00
   -8   10    3     -3.59      0.00
   -6   10    3     -2.69      0.00
   -4   10    3     -0.66      0.00
   -2   10    3      0.97      0.00
    0   10    3      0.23      0.00
    2   10    3     -2.54      0.00
    4   10    3     -4.37      0.00
    6   10    3     -3.43      0.00
    8   10    3     -1.36      0.00
   10   10    3     -0.56      0.00
   12   10    3     -0.83      0.00
   14   10    3     -0.13      0.00
   16   10    3      1.87      0.00
   18   10    3      2.80      0.00
   20   10    3      1.17      0.00
   22   10    3     -1.04      0.00
   24   10    3     -1.25      0.00
   26   10    3     -0.21      0.00
  -27   11    3      3.74      0.00
  -25   11    3      2.89      0.00
  -23   11    3      1.93      0.00
  -21   11    3      1.38      0.00
  -19   11    3     -0.57      0.00
  -17   11    3     -3.72      0.00
  -15   11    3     -4.89      0.00
  -13   11    3     -2.44      0.00
  -11   11    3      1.75      0.00
   -9   11    3      5.28      0.00
   -7   11    3      6.64      0.00
   -5   11    3      4.54      0.00
   -3   11    3     -0.23      0.00
   -1   11    3     -3.47      0.00
    1   11    3     -2.27      0.00
    3   11    3      0.58      0.00
    5   11    3      0.83      0.00
    7   11    3     -0.86      0.00
    9   11    3     -1.08      0.00
   11   11    3      0.14      0.00
   13   11    3     -0.16      0.00
   15   11    3     -2.57      0.00
   17   11    3     -4.43      0.00
   19   11    3     -3.93      0.00
   21   11    3     -1.97      0.00
   23   11    3     -0.39      0.00
  -22   12    3     -0.37      0.00
  -20   12    3      1.45      0.00
  -18   12    3      3.70      0.00
  -16   12    3      4.33      0.00
  -14   12    3      2.49      0.00
  -12   12    3     -0.65      0.00
  -10   12    3     -4.09      0.00
   -8   12    3     -6.97      0.00
   -6   12    3     -6.78      0.00
   -4   12    3     -1.86      0.00
   -2   12    3      4.33      0.00
    0   12    3      6.23      0.00
    2   12    3      3.70      0.00
    4   12    3      1.50      0.00
    6   12    3      1.47      0.00
    8   12    3      0.92      0.00
   10   12    3     -0.73      0.00
   12   12    3     -0.40      0.00
   14   12    3      2.47      0.00
   16   12    3      4.26      0.00
   18   12    3      3.18      0.00
   20   12    3      1.60      0.00
  -17   13    3     -2.07      0.00
  -15   13    3     -0.93      0.00
  -13   13    3      0.50      0.00
  -11   13    3      1.86      0.00
   -9   13    3      3.35      0.00
   -7   13    3      3.85      0.00
   -5   13    3      1.55      0.00
   -3   13    3     -2.80      0.00
   -1   13    3     -5.75      0.00
    1   13    3     -5.46      0.00
    3   13    3     -3.64      0.00
    5   13    3     -2.03      0.00
    7   13    3     -0.20      0.00
    9   13    3      1.70      0.00
   11   13    3      1.51      0.00
   13   13    3     -1.21      0.00
   -8   14    3     -0.49      0.00
   -6   14    3      0.73      0.00
   -4   14    3      1.97      0.00
   -2   14    3      2.38      0.00
    0   14    3      2.48      0.00
    2   14    3      2.78      0.00
    4   14    3      2.37      0.00
  -42    0    4     -1.75      0.00
  -40    0    4     -1.92      0.00
  -38    0    4     -2.88      0.00
  -36    0    4     -2.26      0.00
  -34    0    4      0.96      0.00
  -32    0    4      2.71      0.00
  -30    0    4      0.29      0.00
  -28    0    4     -2.82      0.00
  -26    0    4     -3.75      0.00
  -24    0    4     -3.28      0.00
  -22    0    4      1.10      0.00
  -20    0    4     12.59      0.00
  -18    0    4     23.92      0.00
  -16    0    4     22.56      0.00
  -14    0    4      6.52      0.00
  -12    0    4    -15.82      0.00
  -10    0    4    -32.45      0.00
   -8    0    4    -25.21      0.00
   -6    0    4     17.75      0.00
   -4    0    4     72.48      0.00
   -2    0    4     89.32      0.00
    0    0    4     50.83      0.00
    2    0    4     -5.69      0.00
    4    0    4    -37.13      0.00
    6    0    4    -37.53      0.00
    8    0    4    -22.93      0.00
   10    0    4     -5.48      0.00
   12    0    4      5.14      0.00
   14    0    4      1.25      0.00
   16    0    4    -11.36      0.00
   18    0    4    -18.21      0.00
   20    0    4    -14.52      0.00
   22    0    4     -6.78      0.00
   24    0    4     -0.53      0.00
   26    0    4      2.69      0.00
   28    0    4      2.33      0.00
   30    0    4     -0.12      0.00
   32    0    4     -1.80      0.00
   34    0    4     -2.26      0.00
   36    0    4     -2.41      0.00
   38    0    4     -1.67      0.00
  -43    1    4      1.18      0.00
  -41    1    4      1.22      0.00
  -39    1    4      1.90      0.00
  -37    1    4      1.86      0.00
  -35    1    4     -0.39      0.00
  -33    1    4     -2.91      0.00
  -31    1    4     -2.28      0.00
  -29    1    4      1.02      0.00
  -27    1    4      3.79      0.00
  -25    1    4      4.63      0.00
  -23    1    4      2.15      0.00
  -21    1    4     -6.10      0.00
  -19    1    4    -17.15      0.00
  -17    1    4    -21.14      0.00
  -15    1    4    -12.04      0.00
  -13    1    4      6.22      0.00
  -11    1    4     24.02      0.00
   -9    1    4     27.80      0.00
   -7    1    4      4.29      0.00
   -5    1    4    -40.24      0.00
   -3    1    4    -71.94      0.00
   -1    1    4    -61.59      0.00
    1    1    4    -19.84      0.00
    3    1    4     17.54      0.00
    5    1    4     30.62      0.00
    7    1    4     24.42      0.00
    9    1    4      9.96      0.00
   11    1    4     -3.51      0.00
   13    1    4     -6.80      0.00
   15    1    4      1.62      0.00
   17    1    4     11.69      0.00
   19    1    4     14.11      0.00
   21    1    4      9.86      0.00
   23    1    4      3.99      0.00
   25    1    4     -0.80      0.00
   27    1    4     -2.72      0.00
   29    1    4     -0.96      0.00
   31    1    4      1.99      0.00
   33    1    4      3.03      0.00
   35    1    4      2.19      0.00
   37    1    4      1.01      0.00
  -42    2    4     -0.15      0.00
  -40    2    4     -0.84      0.00
  -38    2    4     -0.53      0.00
  -36    2    4      1.35      0.00
  -34    2    4      3.10      0.00
  -32    2    4      3.32      0.00
  -30    2    4      1.93      0.00
  -28    2    4     -1.12      0.00
  -26    2    4     -4.62      0.00
  -24    2    4     -4.61      0.00
  -22    2    4      1.36      0.00
  -20    2    4      9.53      0.00
  -18    2    4     13.21      0.00
  -16    2    4      9.04      0.00
  -14    2    4     -1.74      0.00
  -12    2    4    -13.86      0.00
  -10    2    4    -17.89      0.00
   -8    2    4     -5.97      0.00
   -6    2    4     17.92      0.00
   -4    2    4     38.14      0.00
   -2    2    4     41.56      0.00
    0    2    4     28.78      0.00
    2    2    4     10.14      0.00
    4    2    4     -4.34      0.00
    6    2    4     -9.45      0.00
    8    2    4     -5.04      0.00
   10    2    4      3.86      0.00
   12    2    4      9.66      0.00
   14    2    4      8.15      0.00
   16    2    4      1.65      0.00
   18    2    4     -4.58      0.00
   20    2    4     -7.37      0.00
   22    2    4     -6.35      0.00
   24    2    4     -2.49      0.00
   26    2    4      1.62      0.00
   28    2    4      2.41      0.00
   30    2    4     -0.74      0.00
   32    2    4     -3.78      0.00
   34    2    4     -3.10      0.00
   36    2    4     -0.33      0.00
   38    2    4      0.81      0.00
  -41    3    4      0.79      0.00
  -39    3    4      0.33      0.00
  -37    3    4     -1.46      0.00
  -35    3    4     -2.28      0.00
  -33    3    4     -1.78      0.00
  -31    3    4     -2.26      0.00
  -29    3    4     -2.77      0.00
  -27    3    4     -0.15      0.00
  -25    3    4      3.14      0.00
  -23    3    4      1.44      0.00
  -21    3    4     -3.94      0.00
  -19    3    4     -6.22      0.00
  -17    3    4     -3.29      0.00
  -15    3    4      2.08      0.00
  -13    3    4      7.32      0.00
  -11    3    4      8.45      0.00
   -9    3    4      0.80      0.00
   -7    3    4    -12.23      0.00
   -5    3    4    -20.48      0.00
   -3    3    4    -20.91      0.00
   -1    3    4    -19.88      0.00
    1    3    4    -20.21      0.00
    3    3    4    -17.90      0.00
    5    3    4    -12.51      0.00
    7    3    4     -9.08      0.00
    9    3    4     -9.55      0.00
   11    3    4    -11.09      0.00
   13    3    4    -11.81      0.00
   15    3    4    -11.16      0.00
   17    3    4     -7.83      0.00
   19    3    4     -2.01      0.00
   21    3    4      2.76      0.00
   23    3    4      3.15      0.00
   25    3    4     -0.01      0.00
   27    3    4     -2.70      0.00
   29    3    4     -1.80      0.00
   31    3    4      1.39      0.00
   33    3    4      2.70      0.00
   35    3    4      0.93      0.00
   37    3    4     -0.62      0.00
  -42    4    4     -1.29      0.00
  -40    4    4     -0.40      0.00
  -38    4    4      1.58      0.00
  -36    4    4      1.97      0.00
  -34    4    4      0.31      0.00
  -32    4    4      0.14      0.00
  -30    4    4      2.76      0.00
  -28    4    4      4.03      0.00
  -26    4    4      1.60      0.00
  -24    4    4     -0.68      0.00
  -22    4    4      0.03      0.00
  -20    4    4      0.50      0.00
  -18    4    4     -2.05      0.00
  -16    4    4     -5.13      0.00
  -14    4    4     -5.52      0.00
  -12    4    4     -2.80      0.00
  -10    4    4      2.37      0.00
   -8    4    4      7.80      0.00
   -6    4    4      9.45      0.00
   -4    4    4      7.07      0.00
   -2    4    4      6.44      0.00
    0    4    4     11.39      0.00
    2    4    4     18.19      0.00
    4    4    4     21.79      0.00
    6    4    4     21.67      0.00
    8    4    4     19.06      0.00
   10    4    4     14.94      0.00
   12    4    4     11.97      0.00
   14    4    4     12.46      0.00
   16    4    4     13.79      0.00
   18    4    4     11.34      0.00
   20    4    4      5.49      0.00
   22    4    4      0.96      0.00
   24    4    4      0.36      0.00
   26    4    4      1.76      0.00
   28    4    4      2.18      0.00
   30    4    4      0.94      0.00
   32    4    4     -0.33      0.00
   34    4    4     -0.35      0.00
   36    4    4      0.15      0.00
  -41    5    4      0.00      0.00
  -39    5    4     -2.13      0.00
  -37    5    4     -3.00      0.00
  -35    5    4     -1.76      0.00
  -33    5    4     -0.80      0.00
  -31    5    4     -1.96      0.00
  -29    5    4     -3.61      0.00
  -27    5    4     -3.37      0.00
  -25    5    4     -1.44      0.00
  -23    5    4      0.74      0.00
  -21    5    4      3.22      0.00
  -19    5    4      6.41      0.00
  -17    5    4      8.63      0.00
  -15    5    4      6.87      0.00
  -13    5    4      0.62      0.00
  -11    5    4     -6.34      0.00
   -9    5    4     -8.72      0.00
   -7    5    4     -4.84      0.00
   -5    5    4      1.38      0.00
   -3    5    4      4.14      0.00
   -1    5    4      0.86      0.00
    1    5    4     -6.79      0.00
    3    5    4    -15.41      0.00
    5    5    4    -21.52      0.00
    7    5    4    -22.19      0.00
    9    5    4    -17.09      0.00
   11    5    4    -10.31      0.00
   13    5    4     -7.36      0.00
   15    5    4     -9.36      0.00
   17    5    4    -11.87      0.00
   19    5    4    -10.52      0.00
   21    5    4     -5.98      0.00
   23    5    4     -2.06      0.00
   25    5    4     -0.74      0.00
   27    5    4     -0.96      0.00
   29    5    4     -1.20      0.00
   31    5    4     -1.11      0.00
   33    5    4     -0.81      0.00
   35    5    4     -0.41      0.00
  -38    6    4      1.84      0.00
  -36    6    4      1.72      0.00
  -34    6    4      2.01      0.00
  -32    6    4      2.68      0.00
  -30    6    4      2.75      0.00
  -28    6    4      2.43      0.00
  -26    6    4      2.34      0.00
  -24    6    4      1.52      0.00
  -22    6    4     -1.53      0.00
  -20    6    4     -6.14      0.00
  -18    6    4     -9.35      0.00
  -16    6    4     -8.12      0.00
  -14    6    4     -1.71      0.00
  -12    6    4      6.69      0.00
  -10    6    4     11.07      0.00
   -8    6    4      7.76      0.00
   -6    6    4     -0.47      0.00
   -4    6    4     -7.07      0.00
   -2    6    4     -7.64      0.00
    0    6    4     -2.30      0.00
    2    6    4      6.07      0.00
    4    6    4     13.51      0.00
    6    6    4     16.32      0.00
    8    6    4     13.26      0.00
   10    6    4      6.75      0.00
   12    6    4      1.45      0.00
   14    6    4      0.82      0.00
   16    6    4      4.38      0.00
   18    6    4      7.92      0.00
   20    6    4      7.37      0.00
   22    6    4      3.09      0.00
   24    6    4     -0.80      0.00
   26    6    4     -1.34      0.00
   28    6    4      0.48      0.00
   30    6    4      1.87      0.00
   32    6    4      1.69      0.00
   34    6    4      0.84      0.00
  -37    7    4      1.00      0.00
  -35    7    4      0.47      0.00
  -33    7    4     -0.65      0.00
  -31    7    4     -0.84      0.00
  -29    7    4     -0.73      0.00
  -27    7    4     -1.81      0.00
  -25    7    4     -3.24      0.00
  -23    7    4     -2.56      0.00
  -21    7    4      1.07      0.00
  -19    7    4      5.41      0.00
  -17    7    4      6.70      0.00
  -15    7    4      2.92      0.00
  -13    7    4     -3.67      0.00
  -11    7    4     -8.13      0.00
   -9    7    4     -7.25      0.00
   -7    7    4     -1.94      0.00
   -5    7    4      4.34      0.00
   -3    7    4      7.92      0.00
   -1    7    4      6.49      0.00
    1    7    4      0.67      0.00
    3    7    4     -5.85      0.00
    5    7    4     -8.96      0.00
    7    7    4     -7.41      0.00
    9    7    4     -3.05      0.00
   11    7    4      1.29      0.00
   13    7    4      3.37      0.00
   15    7    4      2.03      0.00
   17    7    4     -1.82      0.00
   19    7    4     -4.78      0.00
   21    7    4     -3.62      0.00
   23    7    4      0.62      0.00
   25    7    4      3.17      0.00
   27    7    4      1.48      0.00
   29    7    4     -1.60      0.00
   31    7    4     -2.44      0.00
   33    7    4     -1.32      0.00
  -36    8    4     -1.96      0.00
  -34    8    4     -2.36      0.00
  -32    8    4     -2.54      0.00
  -30    8    4     -1.79      0.00
  -28    8    4      0.33      0.00
  -26    8    4      2.58      0.00
  -24    8    4      3.53      0.00
  -22    8    4      2.62      0.00
  -20    8    4     -0.16      0.00
  -18    8    4     -3.10      0.00
  -16    8    4     -2.81      0.00
  -14    8    4      1.40      0.00
  -12    8    4      5.35      0.00
  -10    8    4      5.24      0.00
   -8    8    4      2.21      0.00
   -6    8    4     -0.83      0.00
   -4    8    4     -3.00      0.00
   -2    8    4     -3.94      0.00
    0    8    4     -2.31      0.00
    2    8    4      1.50      0.00
    4    8    4      4.27      0.00
    6    8    4      3.53      0.00
    8    8    4      0.34      0.00
   10    8    4     -2.55      0.00
   12    8    4     -3.89      0.00
   14    8    4     -3.94      0.00
   16    8    4     -2.70      0.00
   18    8    4     -0.26      0.00
   20    8    4      1.62      0.00
   22    8    4      0.80      0.00
   24    8    4     -1.61      0.00
   26    8    4     -2.16      0.00
   28    8    4     -0.13      0.00
   30    8    4      1.63      0.00
  -33    9    4      3.70      0.00
  -31    9    4      3.17      0.00
  -29    9    4      0.60      0.00
  -27    9    4     -1.71      0.00
  -25    9    4     -2.55      0.00
  -23    9    4     -2.89      0.00
  -21    9    4     -2.67      0.00
  -19    9    4     -0.70      0.00
  -17    9    4      1.42      0.00
  -15    9    4      0.32      0.00
  -13    9    4     -3.22      0.00
  -11    9    4     -4.86      0.00
   -9    9    4     -3.43      0.00
   -7    9    4     -1.90      0.00
   -5    9    4     -1.61      0.00
   -3    9    4     -1.11      0.00
   -1    9    4     -0.41      0.00
    1    9    4     -1.14      0.00
    3    9    4     -2.48      0.00
    5    9    4     -1.70      0.00
    7    9    4      1.31      0.00
    9    9    4      3.71      0.00
   11    9    4      4.07      0.00
   13    9    4      3.81      0.00
   15    9    4      4.03      0.00
   17    9    4      3.81      0.00
   19    9    4      2.42      0.00
   21    9    4      0.94      0.00
   23    9    4      0.56      0.00
   25    9    4      0.84      0.00
   27    9    4      0.76      0.00
   29    9    4      0.22      0.00
  -30   10    4     -1.00      0.00
  -28   10    4      0.75      0.00
  -26   10    4      1.23      0.00
  -24   10    4      1.36      0.00
  -22   10    4      1.94      0.00
  -20   10    4      1.79      0.00
  -18   10    4      0.28      0.00
  -16   10    4     -0.55      0.00
  -14   10    4      0.91      0.00
  -12   10    4      3.01      0.00
  -10   10    4      3.54      0.00
   -8   10    4      3.07      0.00
   -6   10    4      2.93      0.00
   -4   10    4      2.58      0.00
   -2   10    4      1.58      0.00
    0   10    4      1.30      0.00
    2   10    4      2.05      0.00
    4   10    4      1.54      0.00
    6   10    4     -1.12      0.00
    8   10    4     -3.40      0.00
   10   10    4     -3.53      0.00
   12   10    4     -3.03      0.00
   14   10    4     -3.26      0.00
   16   10    4     -3.30      0.00
   18   10    4     -2.57      0.00
   20   10    4     -2.03      0.00
   22   10    4     -1.83      0.00
   24   10    4     -1.16      0.00
   26   10    4     -0.41      0.00
  -27   11    4      0.82      0.00
  -25   11    4      0.90      0.00
  -23   11    4      0.79      0.00
  -21   11    4      0.45      0.00
  -19   11    4      0.04      0.00
  -17   11    4     -0.31      0.00
  -15   11    4     -0.72      0.00
  -13   11    4     -1.29      0.00
  -11   11    4     -1.76      0.00
   -9   11    4     -1.90      0.00
   -7   11    4     -1.84      0.00
   -5   11    4     -1.72      0.00
   -3   11    4     -1.48      0.00
   -1   11    4     -1.45      0.00
    1   11    4     -1.87      0.00
    3   11    4     -1.86      0.00
    5   11    4     -0.57      0.00
    7   11    4      1.11      0.00
    9   11    4      2.06      0.00
   11   11    4      2.78      0.00
   13   11    4      3.54      0.00
   15   11    4      2.86      0.00
   17   11    4      0.51      0.00
   19   11    4     -0.79      0.00
   21   11    4      0.40      0.00
   23   11    4      1.65      0.00
  -24   12    4     -1.75      0.00
  -22   12    4     -1.71      0.00
  -20   12    4     -0.47      0.00
  -18   12    4      1.33      0.00
  -16   12    4      1.85      0.00
  -14   12    4      0.90      0.00
  -12   12    4     -0.08      0.00
  -10   12    4     -0.76      0.00
   -8   12    4     -1.60      0.00
   -6   12    4     -1.61      0.00
   -4   12    4      0.34      0.00
   -2   12    4      2.81      0.00
    0   12    4      3.34      0.00
    2   12    4      2.11      0.00
    4   12    4      1.15      0.00
    6   12    4      0.82      0.00
    8   12    4     -0.43      0.00
   10   12    4     -3.09      0.00
   12   12    4     -5.27      0.00
   14   12    4     -4.72      0.00
   16   12    4     -1.55      0.00
   18   12    4      1.42      0.00
  -17   13    4     -2.78      0.00
  -15   13    4     -1.05      0.00
  -13   13    4      0.90      0.00
  -11   13    4      1.89      0.00
   -9   13    4      3.26      0.00
   -7   13    4      4.44      0.00
   -5   13    4      2.28      0.00
   -3   13    4     -2.90      0.00
   -1   13    4     -5.89      0.00
    1   13    4     -4.12      0.00
    3   13    4     -1.34      0.00
    5   13    4     -0.82      0.00
    7   13    4     -0.38      0.00
    9   13    4      2.49      0.00
   11   13    4      5.58      0.00
   13   13    4      5.52      0.00
   -8   14    4     -2.54      0.00
   -6   14    4     -2.10      0.00
   -4   14    4      1.78      0.00
   -2   14    4      5.88      0.00
    0   14    4      5.96      0.00
    2   14    4      3.10      0.00
  -43    1    5      1.69      0.00
  -41    1    5      0.65      0.00
  -39    1    5      0.17      0.00
  -37    1    5     -0.04      0.00
  -35    1    5     -2.07      0.00
  -33    1    5     -4.67      0.00
  -31    1    5     -4.93      0.00
  -29    1    5     -3.98      0.00
  -27    1    5     -3.87      0.00
  -25    1    5     -2.72      0.00
  -23    1    5     -0.19      0.00
  -21    1    5     -0.89      0.00
  -19    1    5     -5.42      0.00
  -17    1    5     -6.90      0.00
  -15    1    5     -1.87      0.00
  -13    1    5      5.65      0.00
  -11    1    5     12.38      0.00
   -9    1    5     16.22      0.00
   -7    1    5     11.52      0.00
   -5    1    5     -1.29      0.00
   -3    1    5     -7.35      0.00
   -1    1    5      5.31      0.00
    1    1    5     26.77      0.00
    3    1    5     38.02      0.00
    5    1    5     34.03      0.00
    7    1    5     22.58      0.00
    9    1    5     10.75      0.00
   11    1    5      2.93      0.00
   13    1    5      2.38      0.00
   15    1    5      6.65      0.00
   17    1    5      8.79      0.00
   19    1    5      6.14      0.00
   21    1    5      2.08      0.00
   23    1    5     -0.14      0.00
   25    1    5     -0.41      0.00
   27    1    5     -0.10      0.00
   29    1    5     -0.64      0.00
   31    1    5     -1.56      0.00
   33    1    5     -0.66      0.00
   35    1    5      1.88      0.00
   37    1    5      2.70      0.00
  -42    2    5     -1.44      0.00
  -40    2    5     -0.89      0.00
  -38    2    5     -0.73      0.00
  -36    2    5      1.50      0.00
  -34    2    5      5.91      0.00
  -32    2    5      8.09      0.00
  -30    2    5      6.43      0.00
  -28    2    5      4.43      0.00
  -26    2    5      3.09      0.00
  -24    2    5      0.74      0.00
  -22    2    5      0.52      0.00
  -20    2    5      5.95      0.00
  -18    2    5     10.89      0.00
  -16    2    5      6.53      0.00
  -14    2    5     -5.55      0.00
  -12    2    5    -17.44      0.00
  -10    2    5    -24.28      0.00
   -8    2    5    -21.66      0.00
   -6    2    5     -7.49      0.00
   -4    2    5      6.42      0.00
   -2    2    5      1.08      0.00
    0    2    5    -24.13      0.00
    2    2    5    -48.23      0.00
    4    2    5    -54.16      0.00
    6    2    5    -43.03      0.00
    8    2    5    -24.28      0.00
   10    2    5     -7.28      0.00
   12    2    5     -0.46      0.00
   14    2    5     -5.07      0.00
   16    2    5    -12.05      0.00
   18    2    5    -12.66      0.00
   20    2    5     -7.82      0.00
   22    2    5     -2.88      0.00
   24    2    5     -0.21      0.00
   26    2    5      0.60      0.00
   28    2    5      0.68      0.00
   30    2    5      0.91      0.00
   32    2    5      0.45      0.00
   34    2    5     -1.56      0.00
   36    2    5     -2.91      0.00
  -43    3    5      0.67      0.00
  -41    3    5      1.63      0.00
  -39    3    5      2.37      0.00
  -37    3    5      0.90      0.00
  -35    3    5     -3.16      0.00
  -33    3    5     -6.71      0.00
  -31    3    5     -6.79      0.00
  -29    3    5     -4.15      0.00
  -27    3    5     -0.99      0.00
  -25    3    5      1.40      0.00
  -23    3    5      0.96      0.00
  -21    3    5     -4.24      0.00
  -19    3    5    -10.53      0.00
  -17    3    5     -9.76      0.00
  -15    3    5      1.18      0.00
  -13    3    5     15.91      0.00
  -11    3    5     24.86      0.00
   -9    3    5     22.36      0.00
   -7    3    5      9.59      0.00
   -5    3    5     -4.46      0.00
   -3    3    5     -7.24      0.00
   -1    3    5      6.25      0.00
    1    3    5     27.75      0.00
    3    3    5     43.39      0.00
    5    3    5     44.55      0.00
    7    3    5     31.47      0.00
    9    3    5     12.29      0.00
   11    3    5     -0.87      0.00
   13    3    5     -1.10      0.00
   15    3    5      6.86      0.00
   17    3    5     12.87      0.00
   19    3    5     12.45      0.00
   21    3    5      8.03      0.00
   23    3    5      2.96      0.00
   25    3    5     -0.96      0.00
   27    3    5     -2.56      0.00
   29    3    5     -1.72      0.00
   31    3    5      0.19      0.00
   33    3    5      1.73      0.00
   35    3    5      2.15      0.00
  -42    4    5     -1.43      0.00
  -40    4    5     -3.42      0.00
  -38    4    5     -3.38      0.00
  -36    4    5     -1.30      0.00
  -34    4    5      1.14      0.00
  -32    4    5      2.94      0.00
  -30    4    5      3.42      0.00
  -28    4    5      1.39      0.00
  -26    4    5     -2.15      0.00
  -24    4    5     -2.98      0.00
  -22    4    5      1.43      0.00
  -20    4    5      7.84      0.00
  -18    4    5      9.90      0.00
  -16    4    5      3.58      0.00
  -14    4    5     -9.32      0.00
  -12    4    5    -20.77      0.00
  -10    4    5    -21.53      0.00
   -8    4    5    -10.14      0.00
   -6    4    5      4.59      0.00
   -4    4    5     12.25      0.00
   -2    4    5      9.23      0.00
    0    4    5     -1.98      0.00
    2    4    5    -16.04      0.00
    4    4    5    -25.33      0.00
    6    4    5    -23.19      0.00
    8    4    5    -10.82      0.00
   10    4    5      2.25      0.00
   12    4    5      7.08      0.00
   14    4    5      2.79      0.00
   16    4    5     -4.92      0.00
   18    4    5    -10.05      0.00
   20    4    5     -9.90      0.00
   22    4    5     -5.31      0.00
   24    4    5      0.67      0.00
   26    4    5      4.47      0.00
   28    4    5      4.32      0.00
   30    4    5      1.63      0.00
   32    4    5     -0.62      0.00
   34    4    5     -1.07      0.00
   36    4    5     -0.75      0.00
  -41    5    5      2.26      0.00
  -39    5    5      2.53      0.00
  -37    5    5      1.97      0.00
  -35    5    5      1.93      0.00
  -33    5    5      1.37      0.00
  -31    5    5     -0.74      0.00
  -29    5    5     -1.92      0.00
  -27    5    5      0.20      0.00
  -25    5    5      2.77      0.00
  -23    5    5      1.33      0.00
  -21    5    5     -3.46      0.00
  -19    5    5     -6.70      0.00
  -17    5    5     -4.68      0.00
  -15    5    5      2.77      0.00
  -13    5    5     12.04      0.00
  -11    5    5     16.59      0.00
   -9    5    5     11.83      0.00
   -7    5    5      0.37      0.00
   -5    5    5    -10.22      0.00
   -3    5    5    -14.47      0.00
   -1    5    5    -11.45      0.00
    1    5    5     -3.50      0.00
    3    5    5      4.31      0.00
    5    5    5      6.18      0.00
    7    5    5      0.90      0.00
    9    5    5     -6.69      0.00
   11    5    5    -10.93      0.00
   13    5    5     -9.88      0.00
   15    5    5     -4.67      0.00
   17    5    5      2.00      0.00
   19    5    5      6.12      0.00
   21    5    5      4.71      0.00
   23    5    5     -0.78      0.00
   25    5    5     -5.27      0.00
   27    5    5     -5.43      0.00
   29    5    5     -2.74      0.00
   31    5    5     -0.72      0.00
   33    5    5     -0.47      0.00
   35    5    5     -0.53      0.00
  -40    6    5     -0.28      0.00
  -38    6    5      0.69      0.00
  -36    6    5      0.59      0.00
  -34    6    5      0.15      0.00
  -32    6    5      1.03      0.00
  -30    6    5      2.08      0.00
  -28    6    5      1.02      0.00
  -26    6    5     -1.35      0.00
  -24    6    5     -2.08      0.00
  -22    6    5     -0.29      0.00
  -20    6    5      1.90      0.00
  -18    6    5      2.05      0.00
  -16    6    5     -0.54      0.00
  -14    6    5     -4.44      0.00
  -12    6    5     -7.01      0.00
  -10    6    5     -6.20      0.00
   -8    6    5     -1.82      0.00
   -6    6    5      4.70      0.00
   -4    6    5     10.63      0.00
   -2    6    5     12.78      0.00
    0    6    5     10.22      0.00
    2    6    5      6.11      0.00
    4    6    5      4.90      0.00
    6    6    5      7.37      0.00
    8    6    5     10.34      0.00
   10    6    5     11.06      0.00
   12    6    5      9.66      0.00
   14    6    5      7.08      0.00
   16    6    5      3.26      0.00
   18    6    5     -0.92      0.00
   20    6    5     -2.47      0.00
   22    6    5      0.29      0.00
   24    6    5      4.34      0.00
   26    6    5      5.07      0.00
   28    6    5      2.35      0.00
   30    6    5      0.04      0.00
   32    6    5      0.11      0.00
  -37    7    5     -1.37      0.00
  -35    7    5     -2.62      0.00
  -33    7    5     -4.10      0.00
  -31    7    5     -4.29      0.00
  -29    7    5     -2.35      0.00
  -27    7    5     -0.08      0.00
  -25    7    5      0.63      0.00
  -23    7    5      0.28      0.00
  -21    7    5      0.11      0.00
  -19    7    5      0.35      0.00
  -17    7    5      0.90      0.00
  -15    7    5      1.58      0.00
  -13    7    5      1.53      0.00
  -11    7    5      0.27      0.00
   -9    7    5     -1.28      0.00
   -7    7    5     -2.55      0.00
   -5    7    5     -4.28      0.00
   -3    7    5     -6.60      0.00
   -1    7    5     -8.08      0.00
    1    7    5     -8.16      0.00
    3    7    5     -8.31      0.00
    5    7    5     -9.50      0.00
    7    7    5    -10.34      0.00
    9    7    5     -9.05      0.00
   11    7    5     -6.20      0.00
   13    7    5     -3.93      0.00
   15    7    5     -3.00      0.00
   17    7    5     -2.13      0.00
   19    7    5     -0.66      0.00
   21    7    5     -0.03      0.00
   23    7    5     -1.21      0.00
   25    7    5     -2.51      0.00
   27    7    5     -1.88      0.00
   29    7    5     -0.06      0.00
   31    7    5      0.79      0.00
  -36    8    5      0.30      0.00
  -34    8    5      2.90      0.00
  -32    8    5      4.13      0.00
  -30    8    5      2.72      0.00
  -28    8    5      0.66      0.00
  -26    8    5      0.24      0.00
  -24    8    5      0.88      0.00
  -22    8    5      0.69      0.00
  -20    8    5     -0.43      0.00
  -18    8    5     -1.07      0.00
  -16    8    5     -0.68      0.00
  -14    8    5      0.18      0.00
  -12    8    5      1.09      0.00
  -10    8    5      1.73      0.00
   -8    8    5      1.42      0.00
   -6    8    5      0.29      0.00
   -4    8    5      0.02      0.00
   -2    8    5      1.96      0.00
    0    8    5      5.25      0.00
    2    8    5      7.98      0.00
    4    8    5      9.28      0.00
    6    8    5      9.16      0.00
    8    8    5      7.45      0.00
   10    8    5      4.49      0.00
   12    8    5      1.99      0.00
   14    8    5      1.61      0.00
   16    8    5      2.88      0.00
   18    8    5      3.71      0.00
   20    8    5      2.65      0.00
   22    8    5      0.53      0.00
   24    8    5     -0.59      0.00
   26    8    5     -0.05      0.00
   28    8    5      0.66      0.00
   30    8    5      0.21      0.00
  -33    9    5     -0.32      0.00
  -31    9    5     -0.51      0.00
  -29    9    5     -0.14      0.00
  -27    9    5     -0.11      0.00
  -25    9    5     -0.71      0.00
  -23    9    5     -1.26      0.00
  -21    9    5     -0.77      0.00
  -19    9    5      0.48      0.00
  -17    9    5      0.81      0.00
  -15    9    5     -0.43      0.00
  -13    9    5     -1.74      0.00
  -11    9    5     -1.79      0.00
   -9    9    5     -0.84      0.00
   -7    9    5      0.53      0.00
   -5    9    5      1.77      0.00
   -3    9    5      1.38      0.00
   -1    9    5     -1.68      0.00
    1    9    5     -5.75      0.00
    3    9    5     -7.98      0.00
    5    9    5     -7.47      0.00
    7    9    5     -5.37      0.00
    9    9    5     -3.08      0.00
   11    9    5     -1.43      0.00
   13    9    5     -0.85      0.00
   15    9    5     -1.36      0.00
   17    9    5     -2.60      0.00
   19    9    5     -3.44      0.00
   21    9    5     -2.41      0.00
   23    9    5      0.08      0.00
   25    9    5      1.41      0.00
   27    9    5      0.37      0.00
  -32   10    5     -1.44      0.00
  -30   10    5      0.17      0.00
  -28   10    5      1.41      0.00
  -26   10    5      1.72      0.00
  -24   10    5      2.20      0.00
  -22   10    5      2.73      0.00
  -20   10    5      1.57      0.00
  -18   10    5     -0.73      0.00
  -16   10    5     -1.33      0.00
  -14   10    5      0.25      0.00
  -12   10    5      1.53      0.00
  -10   10    5      1.34      0.00
   -8   10    5      0.54      0.00
   -6   10    5     -0.69      0.00
   -4   10    5     -2.08      0.00
   -2   10    5     -1.52      0.00
    0   10    5      1.87      0.00
    2   10    5      5.03      0.00
    4   10    5      4.69      0.00
    6   10    5      2.05      0.00
    8   10    5      0.60      0.00
   10   10    5      1.12      0.00
   12   10    5      1.49      0.00
   14   10    5      0.44      0.00
   16   10    5     -0.72      0.00
   18   10    5     -0.30      0.00
   20   10    5      0.97      0.00
   22   10    5      1.05      0.00
   24   10    5     -0.13      0.00
  -27   11    5     -2.93      0.00
  -25   11    5     -2.88      0.00
  -23   11    5     -3.31      0.00
  -21   11    5     -2.69      0.00
  -19   11    5      0.09      0.00
  -17   11    5      2.62      0.00
  -15   11    5      2.47      0.00
  -13   11    5      0.74      0.00
  -11   11    5     -0.75      0.00
   -9   11    5     -1.89      0.00
   -7   11    5     -1.86      0.00
   -5   11    5      0.88      0.00
   -3   11    5      4.26      0.00
   -1   11    5      3.82      0.00
    1   11    5      0.08      0.00
    3   11    5     -1.56      0.00
    5   11    5      0.42      0.00
    7   11    5      1.37      0.00
    9   11    5     -1.28      0.00
   11   11    5     -3.83      0.00
   13   11    5     -2.67      0.00
   15   11    5      0.41      0.00
   17   11    5      1.82      0.00
   19   11    5      1.04      0.00
   21   11    5     -0.21      0.00
  -24   12    5      1.81      0.00
  -22   12    5      1.40      0.00
  -20   12    5     -0.42      0.00
  -18   12    5     -2.50      0.00
  -16   12    5     -3.07      0.00
  -14   12    5     -2.30      0.00
  -12   12    5     -1.10      0.00
  -10   12    5      0.86      0.00
   -8   12    5      2.81      0.00
   -6   12    5      1.61      0.00
   -4   12    5     -3.24      0.00
   -2   12    5     -6.83      0.00
    0   12    5     -5.45      0.00
    2   12    5     -2.29      0.00
    4   12    5     -1.60      0.00
    6   12    5     -1.54      0.00
    8   12    5      1.27      0.00
   10   12    5      4.62      0.00
   12   12    5      4.29      0.00
   14   12    5      1.32      0.00
   16   12    5     -0.28      0.00
   18   12    5      0.07      0.00
  -17   13    5      1.44      0.00
  -15   13    5      1.86      0.00
  -13   13    5      2.25      0.00
  -11   13    5      1.91      0.00
   -9   13    5      0.58      0.00
   -7   13    5     -0.05      0.00
   -5   13    5      1.77      0.00
   -3   13    5      4.77      0.00
   -1   13    5      6.13      0.00
    1   13    5      5.23      0.00
    3   13    5      3.57      0.00
    5   13    5      1.59      0.00
    7   13    5     -1.10      0.00
    9   13    5     -3.15      0.00
   11   13    5     -2.69      0.00
   -6   14    5     -2.22      0.00
   -4   14    5     -1.57      0.00
   -2   14    5     -1.50      0.00
    0   14    5     -2.81      0.00
  -44    0    6      1.38      0.00
  -42    0    6      0.42      0.00
  -40    0    6     -0.72      0.00
  -38    0    6     -1.75      0.00
  -36    0    6     -4.25      0.00
  -34    0    6     -6.95      0.00
  -32    0    6     -6.36      0.00
  -30    0    6     -3.40      0.00
  -28    0    6     -1.78      0.00
  -26    0    6     -1.39      0.00
  -24    0    6     -1.98      0.00
  -22    0    6     -7.69      0.00
  -20    0    6    -17.75      0.00
  -18    0    6    -20.58      0.00
  -16    0    6     -7.25      0.00
  -14    0    6     17.38      0.00
  -12    0    6     41.48      0.00
  -10    0    6     53.24      0.00
   -8    0    6     43.16      0.00
   -6    0    6     16.60      0.00
   -4    0    6     -0.38      0.00
   -2    0    6     12.43      0.00
    0    0    6     42.53      0.00
    2    0    6     61.50      0.00
    4    0    6     58.27      0.00
    6    0    6     40.43      0.00
    8    0    6     17.57      0.00
   10    0    6     -0.68      0.00
   12    0    6     -4.41      0.00
   14    0    6      5.00      0.00
   16    0    6     13.74      0.00
   18    0    6     12.43      0.00
   20    0    6      4.49      0.00
   22    0    6     -3.08      0.00
   24    0    6     -6.82      0.00
   26    0    6     -6.13      0.00
   28    0    6     -3.11      0.00
   30    0    6     -0.74      0.00
   32    0    6      1.32      0.00
   34    0    6      4.49      0.00
   36    0    6      6.41      0.00
  -43    1    6     -0.63      0.00
  -41    1    6      0.02      0.00
  -39    1    6      0.98      0.00
  -37    1    6      2.84      0.00
  -35    1    6      5.36      0.00
  -33    1    6      6.20      0.00
  -31    1    6      4.23      0.00
  -29    1    6      1.52      0.00
  -27    1    6     -0.02      0.00
  -25    1    6      0.21      0.00
  -23    1    6      4.27      0.00
  -21    1    6     12.71      0.00
  -19    1    6     18.73      0.00
  -17    1    6     13.04      0.00
  -15    1    6     -5.10      0.00
  -13    1    6    -27.13      0.00
  -11    1    6    -41.92      0.00
   -9    1    6    -40.26      0.00
   -7    1    6    -21.83      0.00
   -5    1    6     -2.19      0.00
   -3    1    6     -1.41      0.00
   -1    1    6    -20.85      0.00
    1    1    6    -41.88      0.00
    3    1    6    -48.57      0.00
    5    1    6    -39.97      0.00
    7    1    6    -22.21      0.00
    9    1    6     -3.15      0.00
   11    1    6      6.90      0.00
   13    1    6      3.06      0.00
   15    1    6     -6.75      0.00
   17    1    6    -11.03      0.00
   19    1    6     -7.48      0.00
   21    1    6     -1.04      0.00
   23    1    6      4.12      0.00
   25    1    6      6.01      0.00
   27    1    6      4.07      0.00
   29    1    6      0.43      0.00
   31    1    6     -2.26      0.00
   33    1    6     -3.83      0.00
   35    1    6     -4.69      0.00
  -44    2    6     -0.28      0.00
  -42    2    6      0.28      0.00
  -40    2    6      0.13      0.00
  -38    2    6     -1.44      0.00
  -36    2    6     -3.00      0.00
  -34    2    6     -3.38      0.00
  -32    2    6     -3.02      0.00
  -30    2    6     -1.64      0.00
  -28    2    6      1.34      0.00
  -26    2    6      3.19      0.00
  -24    2    6     -0.25      0.00
  -22    2    6     -7.91      0.00
  -20    2    6    -13.23      0.00
  -18    2    6    -11.06      0.00
  -16    2    6     -1.33      0.00
  -14    2    6     12.02      0.00
  -12    2    6     21.67      0.00
  -10    2    6     20.22      0.00
   -8    2    6      8.17      0.00
   -6    2    6     -4.10      0.00
   -4    2    6     -6.95      0.00
   -2    2    6     -0.66      0.00
    0    2    6      8.37      0.00
    2    2    6     15.27      0.00
    4    2    6     17.10      0.00
    6    2    6     11.53      0.00
    8    2    6      0.36      0.00
   10    2    6     -8.98      0.00
   12    2    6    -10.15      0.00
   14    2    6     -4.53      0.00
   16    2    6      1.56      0.00
   18    2    6      4.12      0.00
   20    2    6      3.29      0.00
   22    2    6      0.36      0.00
   24    2    6     -3.06      0.00
   26    2    6     -4.11      0.00
   28    2    6     -0.96      0.00
   30    2    6      3.83      0.00
   32    2    6      5.75      0.00
   34    2    6      4.01      0.00
   36    2    6      1.73      0.00
  -43    3    6     -0.12      0.00
  -41    3    6     -0.55      0.00
  -39    3    6      0.23      0.00
  -37    3    6      0.69      0.00
  -35    3    6     -0.38      0.00
  -33    3    6     -0.56      0.00
  -31    3    6      1.20      0.00
  -29    3    6      1.01      0.00
  -27    3    6     -2.20      0.00
  -25    3    6     -2.55      0.00
  -23    3    6      2.85      0.00
  -21    3    6      7.87      0.00
  -19    3    6      6.91      0.00
  -17    3    6      1.96      0.00
  -15    3    6     -2.91      0.00
  -13    3    6     -5.12      0.00
  -11    3    6     -1.52      0.00
   -9    3    6      7.85      0.00
   -7    3    6     15.84      0.00
   -5    3    6     16.67      0.00
   -3    3    6     14.11      0.00
   -1    3    6     13.84      0.00
    1    3    6     14.32      0.00
    3    3    6     12.36      0.00
    5    3    6     10.22      0.00
    7    3    6     10.97      0.00
    9    3    6     12.96      0.00
   11    3    6     13.39      0.00
   13    3    6     11.95      0.00
   15    3    6      9.09      0.00
   17    3    6      4.85      0.00
   19    3    6      0.57      0.00
   21    3    6     -1.30      0.00
   23    3    6      0.15      0.00
   25    3    6      2.55      0.00
   27    3    6      2.10      0.00
   29    3    6     -1.80      0.00
   31    3    6     -4.94      0.00
   33    3    6     -3.92      0.00
   35    3    6     -1.12      0.00
  -42    4    6      0.24      0.00
  -40    4    6     -0.78      0.00
  -38    4    6     -0.61      0.00
  -36    4    6      1.62      0.00
  -34    4    6      2.91      0.00
  -32    4    6      0.43      0.00
  -30    4    6     -2.89      0.00
  -28    4    6     -2.53      0.00
  -26    4    6     -0.26      0.00
  -24    4    6     -0.91      0.00
  -22    4    6     -3.53      0.00
  -20    4    6     -3.30      0.00
  -18    4    6     -0.27      0.00
  -16    4    6      0.78      0.00
  -14    4    6     -2.74      0.00
  -12    4    6     -9.38      0.00
  -10    4    6    -16.09      0.00
   -8    4    6    -19.70      0.00
   -6    4    6    -19.10      0.00
   -4    4    6    -17.48      0.00
   -2    4    6    -18.88      0.00
    0    4    6    -22.82      0.00
    2    4    6    -25.90      0.00
    4    4    6    -26.41      0.00
    6    4    6    -24.41      0.00
    8    4    6    -20.11      0.00
   10    4    6    -15.39      0.00
   12    4    6    -13.18      0.00
   14    4    6    -13.24      0.00
   16    4    6    -11.82      0.00
   18    4    6     -7.21      0.00
   20    4    6     -2.24      0.00
   22    4    6     -0.27      0.00
   24    4    6     -0.97      0.00
   26    4    6     -1.31      0.00
   28    4    6      0.27      0.00
   30    4    6      2.02      0.00
   32    4    6      1.69      0.00
   34    4    6      0.08      0.00
  -41    5    6      1.50      0.00
  -39    5    6      1.96      0.00
  -37    5    6      0.29      0.00
  -35    5    6     -0.99      0.00
  -33    5    6      0.52      0.00
  -31    5    6      3.34      0.00
  -29    5    6      4.43      0.00
  -27    5    6      3.45      0.00
  -25    5    6      2.37      0.00
  -23    5    6      1.87      0.00
  -21    5    6      0.64      0.00
  -19    5    6     -1.64      0.00
  -17    5    6     -2.18      0.00
  -15    5    6      2.43      0.00
  -13    5    6     11.37      0.00
  -11    5    6     18.84      0.00
   -9    5    6     19.89      0.00
   -7    5    6     15.93      0.00
   -5    5    6     12.55      0.00
   -3    5    6     13.05      0.00
   -1    5    6     16.59      0.00
    1    5    6     21.21      0.00
    3    5    6     25.26      0.00
    5    5    6     26.23      0.00
    7    5    6     22.09      0.00
    9    5    6     14.66      0.00
   11    5    6      9.00      0.00
   13    5    6      8.07      0.00
   15    5    6      9.43      0.00
   17    5    6      8.71      0.00
   19    5    6      5.08      0.00
   21    5    6      1.52      0.00
   23    5    6      0.21      0.00
   25    5    6      0.11      0.00
   27    5    6     -0.39      0.00
   29    5    6     -0.90      0.00
   31    5    6     -0.43      0.00
   33    5    6      0.50      0.00
  -40    6    6     -0.83      0.00
  -38    6    6     -0.16      0.00
  -36    6    6     -0.55      0.00
  -34    6    6     -2.77      0.00
  -32    6    6     -4.69      0.00
  -30    6    6     -4.75      0.00
  -28    6    6     -4.11      0.00
  -26    6    6     -3.85      0.00
  -24    6    6     -3.02      0.00
  -22    6    6     -0.66      0.00
  -20    6    6      2.20      0.00
  -18    6    6      3.29      0.00
  -16    6    6      0.41      0.00
  -14    6    6     -6.59      0.00
  -12    6    6    -14.03      0.00
  -10    6    6    -16.62      0.00
   -8    6    6    -13.00      0.00
   -6    6    6     -7.38      0.00
   -4    6    6     -4.78      0.00
   -2    6    6     -6.55      0.00
    0    6    6    -10.87      0.00
    2    6    6    -15.26      0.00
    4    6    6    -17.31      0.00
    6    6    6    -15.35      0.00
    8    6    6     -9.71      0.00
   10    6    6     -3.40      0.00
   12    6    6     -0.16      0.00
   14    6    6     -1.20      0.00
   16    6    6     -3.79      0.00
   18    6    6     -4.14      0.00
   20    6    6     -1.60      0.00
   22    6    6      1.07      0.00
   24    6    6      1.54      0.00
   26    6    6      0.41      0.00
   28    6    6     -0.51      0.00
   30    6    6     -0.50      0.00
   32    6    6     -0.12      0.00
  -39    7    6     -2.00      0.00
  -37    7    6     -1.59      0.00
  -35    7    6      0.86      0.00
  -33    7    6      2.89      0.00
  -31    7    6      3.09      0.00
  -29    7    6      2.91      0.00
  -27    7    6      3.57      0.00
  -25    7    6      3.88      0.00
  -23    7    6      2.19      0.00
  -21    7    6     -1.04      0.00
  -19    7    6     -3.14      0.00
  -17    7    6     -1.70      0.00
  -15    7    6      2.82      0.00
  -13    7    6      7.36      0.00
  -11    7    6      9.13      0.00
   -9    7    6      7.60      0.00
   -7    7    6      3.92      0.00
   -5    7    6      0.26      0.00
   -3    7    6     -0.66      0.00
   -1    7    6      2.19      0.00
    1    7    6      6.50      0.00
    3    7    6      8.75      0.00
    5    7    6      7.63      0.00
    7    7    6      4.23      0.00
    9    7    6      0.21      0.00
   11    7    6     -2.72      0.00
   13    7    6     -2.90      0.00
   15    7    6     -0.37      0.00
   17    7    6      2.23      0.00
   19    7    6      1.93      0.00
   21    7    6     -1.02      0.00
   23    7    6     -3.13      0.00
   25    7    6     -1.81      0.00
   27    7    6      1.25      0.00
   29    7    6      2.42      0.00
   31    7    6      1.06      0.00
  -36    8    6      1.59      0.00
  -34    8    6      1.52      0.00
  -32    8    6      1.72      0.00
  -30    8    6      0.87      0.00
  -28    8    6     -0.97      0.00
  -26    8    6     -2.26      0.00
  -24    8    6     -2.00      0.00
  -22    8    6     -0.06      0.00
  -20    8    6      2.39      0.00
  -18    8    6      2.44      0.00
  -16    8    6     -1.26      0.00
  -14    8    6     -5.47      0.00
  -12    8    6     -6.17      0.00
  -10    8    6     -3.93      0.00
   -8    8    6     -1.66      0.00
   -6    8    6      0.10      0.00
   -4    8    6      1.70      0.00
   -2    8    6      1.52      0.00
    0    8    6     -1.19      0.00
    2    8    6     -3.62      0.00
    4    8    6     -2.92      0.00
    6    8    6      0.00      0.00
    8    8    6      2.38      0.00
   10    8    6      3.05      0.00
   12    8    6      2.41      0.00
   14    8    6      0.91      0.00
   16    8    6     -0.94      0.00
   18    8    6     -1.79      0.00
   20    8    6     -0.39      0.00
   22    8    6      2.13      0.00
   24    8    6      2.75      0.00
   26    8    6      0.48      0.00
   28    8    6     -1.89      0.00
  -35    9    6     -2.09      0.00
  -33    9    6     -3.90      0.00
  -31    9    6     -3.37      0.00
  -29    9    6     -0.96      0.00
  -27    9    6      0.88      0.00
  -25    9    6      1.38      0.00
  -23    9    6      0.99      0.00
  -21    9    6     -0.53      0.00
  -19    9    6     -2.08      0.00
  -17    9    6     -0.66      0.00
  -15    9    6      3.62      0.00
  -13    9    6      6.22      0.00
  -11    9    6      4.71      0.00
   -9    9    6      1.99      0.00
   -7    9    6      0.65      0.00
   -5    9    6     -0.44      0.00
   -3    9    6     -1.74      0.00
   -1    9    6     -1.29      0.00
    1    9    6      0.63      0.00
    3    9    6      0.48      0.00
    5    9    6     -2.71      0.00
    7    9    6     -5.26      0.00
    9    9    6     -4.44      0.00
   11    9    6     -1.87      0.00
   13    9    6     -0.17      0.00
   15    9    6      0.46      0.00
   17    9    6      0.74      0.00
   19    9    6      0.39      0.00
   21    9    6     -0.73      0.00
   23    9    6     -1.50      0.00
   25    9    6     -1.06      0.00
   27    9    6     -0.06      0.00
  -32   10    6      2.40      0.00
  -30   10    6      0.89      0.00
  -28   10    6     -0.67      0.00
  -26   10    6     -1.13      0.00
  -24   10    6     -1.02      0.00
  -22   10    6     -0.40      0.00
  -20   10    6      1.00      0.00
  -18   10    6      1.58      0.00
  -16   10    6     -0.46      0.00
  -14   10    6     -3.52      0.00
  -12   10    6     -4.43      0.00
  -10   10    6     -3.11      0.00
   -8   10    6     -1.74      0.00
   -6   10    6     -0.51      0.00
   -4   10    6      1.49      0.00
   -2   10    6      2.66      0.00
    0   10    6      1.39      0.00
    2   10    6      0.19      0.00
    4   10    6      2.10      0.00
    6   10    6      4.95      0.00
    8   10    6      4.65      0.00
   10   10    6      1.69      0.00
   12   10    6     -0.55      0.00
   14   10    6     -1.36      0.00
   16   10    6     -1.92      0.00
   18   10    6     -1.84      0.00
   20   10    6     -0.64      0.00
   22   10    6      0.27      0.00
   24   10    6     -0.02      0.00
  -29   11    6     -0.44      0.00
  -27   11    6     -0.36      0.00
  -25   11    6     -0.82      0.00
  -23   11    6     -1.54      0.00
  -21   11    6     -2.07      0.00
  -19   11    6     -2.03      0.00
  -17   11    6     -1.10      0.00
  -15   11    6      0.51      0.00
  -13   11    6      1.84      0.00
  -11   11    6      2.16      0.00
   -9   11    6      1.87      0.00
   -7   11    6      1.41      0.00
   -5   11    6      0.36      0.00
   -3   11    6     -1.04      0.00
   -1   11    6     -1.34      0.00
    1   11    6     -0.30      0.00
    3   11    6      0.12      0.00
    5   11    6     -0.98      0.00
    7   11    6     -1.99      0.00
    9   11    6     -1.86      0.00
   11   11    6     -1.32      0.00
   13   11    6     -0.16      0.00
   15   11    6      2.38      0.00
   17   11    6      4.53      0.00
   19   11    6      3.73      0.00
   21   11    6      1.19      0.00
  -24   12    6      2.33      0.00
  -22   12    6      2.64      0.00
  -20   12    6      1.75      0.00
  -18   12    6      0.73      0.00
  -16   12    6      0.47      0.00
  -14   12    6      0.44      0.00
  -12   12    6      0.32      0.00
  -10   12    6      0.66      0.00
   -8   12    6      0.92      0.00
   -6   12    6     -0.24      0.00
   -4   12    6     -2.12      0.00
   -2   12    6     -2.44      0.00
    0   12    6     -1.19      0.00
    2   12    6     -0.78      0.00
    4   12    6     -1.78      0.00
    6   12    6     -1.69      0.00
    8   12    6      1.20      0.00
   10   12    6      4.79      0.00
   12   12    6      5.42      0.00
   14   12    6      2.04      0.00
   16   12    6     -2.38      0.00
  -19   13    6      0.70      0.00
  -17   13    6      0.15      0.00
  -15   13    6     -1.00      0.00
  -13   13    6     -1.35      0.00
  -11   13    6     -1.91      0.00
   -9   13    6     -3.26      0.00
   -7   13    6     -2.59      0.00
   -5   13    6      1.79      0.00
   -3   13    6      5.83      0.00
   -1   13    6      5.07      0.00
    1   13    6      1.89      0.00
    3   13    6      1.44      0.00
    5   13    6      2.77      0.00
    7   13    6      0.78      0.00
    9   13    6     -4.58      0.00
   11   13    6     -7.77      0.00
  -45    1    7     -2.05      0.00
  -43    1    7     -0.93      0.00
  -41    1    7      0.73      0.00
  -39    1    7      1.30      0.00
  -37    1    7      2.40      0.00
  -35    1    7      4.96      0.00
  -33    1    7      6.39      0.00
  -31    1    7      5.82      0.00
  -29    1    7      5.73      0.00
  -27    1    7      5.77      0.00
  -25    1    7      3.21      0.00
  -23    1    7      0.35      0.00
  -21    1    7      1.45      0.00
  -19    1    7      3.46      0.00
  -17    1    7     -0.08      0.00
  -15    1    7     -8.65      0.00
  -13    1    7    -17.18      0.00
  -11    1    7    -23.05      0.00
   -9    1    7    -24.02      0.00
   -7    1    7    -18.18      0.00
   -5    1    7    -11.78      0.00
   -3    1    7    -15.63      0.00
   -1    1    7    -29.31      0.00
    1    1    7    -39.87      0.00
    3    1    7    -38.29      0.00
    5    1    7    -27.24      0.00
    7    1    7    -13.48      0.00
    9    1    7     -2.50      0.00
   11    1    7      1.67      0.00
   13    1    7     -0.66      0.00
   15    1    7     -4.05      0.00
   17    1    7     -4.05      0.00
   19    1    7     -1.25      0.00
   21    1    7      1.58      0.00
   23    1    7      2.52      0.00
   25    1    7      1.42      0.00
   27    1    7      0.33      0.00
   29    1    7      0.83      0.00
   31    1    7      0.88      0.00
   33    1    7     -1.63      0.00
   35    1    7     -4.08      0.00
  -44    2    7      1.80      0.00
  -42    2    7      0.33      0.00
  -40    2    7     -0.84      0.00
  -38    2    7     -2.27      0.00
  -36    2    7     -5.72      0.00
  -34    2    7     -9.03      0.00
  -32    2    7     -9.01      0.00
  -30    2    7     -7.43      0.00
  -28    2    7     -6.83      0.00
  -26    2    7     -5.25      0.00
  -24    2    7     -2.20      0.00
  -22    2    7     -2.26      0.00
  -20    2    7     -5.45      0.00
  -18    2    7     -3.50      0.00
  -16    2    7      7.98      0.00
  -14    2    7     22.94      0.00
  -12    2    7     33.67      0.00
  -10    2    7     36.68      0.00
   -8    2    7     30.91      0.00
   -6    2    7     21.37      0.00
   -4    2    7     20.46      0.00
   -2    2    7     34.54      0.00
    0    2    7     53.22      0.00
    2    2    7     60.54      0.00
    4    2    7     51.18      0.00
    6    2    7     30.93      0.00
    8    2    7      9.59      0.00
   10    2    7     -3.09      0.00
   12    2    7     -3.18      0.00
   14    2    7      3.32      0.00
   16    2    7      7.06      0.00
   18    2    7      5.12      0.00
   20    2    7      0.54      0.00
   22    2    7     -3.14      0.00
   24    2    7     -4.02      0.00
   26    2    7     -2.52      0.00
   28    2    7     -1.02      0.00
   30    2    7     -0.13      0.00
   32    2    7      1.98      0.00
   34    2    7      4.57      0.00
  -43    3    7     -0.65      0.00
  -41    3    7     -0.94      0.00
  -39    3    7      0.01      0.00
  -37    3    7      2.89      0.00
  -35    3    7      6.22      0.00
  -33    3    7      7.51      0.00
  -31    3    7      6.35      0.00
  -29    3    7      4.22      0.00
  -27    3    7      2.04      0.00
  -25    3    7      0.64      0.00
  -23    3    7      1.94      0.00
  -21    3    7      5.65      0.00
  -19    3    7      6.30      0.00
  -17    3    7     -1.90      0.00
  -15    3    7    -17.33      0.00
  -13    3    7    -31.33      0.00
  -11    3    7    -35.85      0.00
   -9    3    7    -29.84      0.00
   -7    3    7    -19.93      0.00
   -5    3    7    -16.03      0.00
   -3    3    7    -23.62      0.00
   -1    3    7    -38.93      0.00
    1    3    7    -51.77      0.00
    3    3    7    -52.83      0.00
    5    3    7    -39.32      0.00
    7    3    7    -17.23      0.00
    9    3    7      1.25      0.00
   11    3    7      6.93      0.00
   13    3    7      1.53      0.00
   15    3    7     -5.55      0.00
   17    3    7     -7.59      0.00
   19    3    7     -4.63      0.00
   21    3    7      0.36      0.00
   23    3    7      4.64      0.00
   25    3    7      6.17      0.00
   27    3    7      4.42      0.00
   29    3    7      0.84      0.00
   31    3    7     -2.60      0.00
   33    3    7     -4.39      0.00
  -42    4    7      1.30      0.00
  -40    4    7      1.94      0.00
  -38    4    7      0.76      0.00
  -36    4    7     -0.79      0.00
  -34    4    7     -1.95      0.00
  -32    4    7     -3.03      0.00
  -30    4    7     -2.93      0.00
  -28    4    7     -0.55      0.00
  -26    4    7      1.70      0.00
  -24    4    7      0.26      0.00
  -22    4    7     -4.25      0.00
  -20    4    7     -7.10      0.00
  -18    4    7     -3.92      0.00
  -16    4    7      6.21      0.00
  -14    4    7     19.07      0.00
  -12    4    7     26.36      0.00
  -10    4    7     22.73      0.00
   -8    4    7     12.47      0.00
   -6    4    7      5.37      0.00
   -4    4    7      6.82      0.00
   -2    4    7     15.10      0.00
    0    4    7     25.40      0.00
    2    4    7     31.75      0.00
    4    4    7     28.41      0.00
    6    4    7     15.04      0.00
    8    4    7     -0.60      0.00
   10    4    7     -9.02      0.00
   12    4    7     -7.45      0.00
   14    4    7     -0.58      0.00
   16    4    7      5.17      0.00
   18    4    7      6.30      0.00
   20    4    7      2.92      0.00
   22    4    7     -2.59      0.00
   24    4    7     -6.99      0.00
   26    4    7     -7.65      0.00
   28    4    7     -4.38      0.00
   30    4    7      0.03      0.00
   32    4    7      2.44      0.00
   34    4    7      2.29      0.00
  -41    5    7     -1.03      0.00
  -39    5    7     -1.09      0.00
  -37    5    7     -1.67      0.00
  -35    5    7     -2.36      0.00
  -33    5    7     -1.18      0.00
  -31    5    7      1.13      0.00
  -29    5    7      1.31      0.00
  -27    5    7     -0.70      0.00
  -25    5    7     -0.98      0.00
  -23    5    7      2.22      0.00
  -21    5    7      5.88      0.00
  -19    5    7      6.20      0.00
  -17    5    7      1.97      0.00
  -15    5    7     -5.33      0.00
  -13    5    7    -11.57      0.00
  -11    5    7    -12.02      0.00
   -9    5    7     -6.01      0.00
   -7    5    7      1.68      0.00
   -5    5    7      5.44      0.00
   -3    5    7      3.35      0.00
   -1    5    7     -2.66      0.00
    1    5    7     -8.19      0.00
    3    5    7     -8.62      0.00
    5    5    7     -2.84      0.00
    7    5    7      5.35      0.00
    9    5    7     10.70      0.00
   11    5    7     10.79      0.00
   13    5    7      6.42      0.00
   15    5    7      0.25      0.00
   17    5    7     -4.11      0.00
   19    5    7     -3.84      0.00
   21    5    7      0.56      0.00
   23    5    7      5.32      0.00
   25    5    7      6.74      0.00
   27    5    7      4.57      0.00
   29    5    7      1.66      0.00
   31    5    7      0.38      0.00
   33    5    7      0.35      0.00
  -40    6    7     -0.58      0.00
  -38    6    7      0.11      0.00
  -36    6    7      1.31      0.00
  -34    6    7      0.96      0.00
  -32    6    7     -0.69      0.00
  -30    6    7     -1.24      0.00
  -28    6    7     -0.19      0.00
  -26    6    7      0.33      0.00
  -24    6    7     -1.18      0.00
  -22    6    7     -3.79      0.00
  -20    6    7     -5.38      0.00
  -18    6    7     -4.54      0.00
  -16    6    7     -1.81      0.00
  -14    6    7      0.53      0.00
  -12    6    7      0.62      0.00
  -10    6    7     -1.57      0.00
   -8    6    7     -5.13      0.00
   -6    6    7     -8.78      0.00
   -4    6    7    -10.33      0.00
   -2    6    7     -8.27      0.00
    0    6    7     -4.65      0.00
    2    6    7     -3.65      0.00
    4    6    7     -6.37      0.00
    6    6    7     -9.74      0.00
    8    6    7    -10.66      0.00
   10    6    7     -8.92      0.00
   12    6    7     -5.70      0.00
   14    6    7     -1.70      0.00
   16    6    7      2.06      0.00
   18    6    7      3.35      0.00
   20    6    7      0.83      0.00
   22    6    7     -3.28      0.00
   24    6    7     -4.71      0.00
   26    6    7     -2.31      0.00
   28    6    7      0.46      0.00
   30    6    7      0.58      0.00
  -39    7    7     -0.21      0.00
  -37    7    7      0.07      0.00
  -35    7    7      2.01      0.00
  -33    7    7      4.03      0.00
  -31    7    7      3.56      0.00
  -29    7    7      1.43      0.00
  -27    7    7      0.54      0.00
  -25    7    7      1.48      0.00
  -23    7    7      2.80      0.00
  -21    7    7      3.78      0.00
  -19    7    7      4.21      0.00
  -17    7    7      3.63      0.00
  -15    7    7      2.82      0.00
  -13    7    7      3.45      0.00
  -11    7    7      5.31      0.00
   -9    7    7      6.67      0.00
   -7    7    7      7.28      0.00
   -5    7    7      8.01      0.00
   -3    7    7      8.43      0.00
   -1    7    7      7.89      0.00
    1    7    7      7.62      0.00
    3    7    7      8.95      0.00
    5    7    7     10.53      0.00
    7    7    7      9.63      0.00
    9    7    7      5.85      0.00
   11    7    7      1.52      0.00
   13    7    7     -1.20      0.00
   15    7    7     -2.23      0.00
   17    7    7     -2.33      0.00
   19    7    7     -1.34      0.00
   21    7    7      0.80      0.00
   23    7    7      2.31      0.00
   25    7    7      1.35      0.00
   27    7    7     -1.02      0.00
   29    7    7     -2.03      0.00
  -36    8    7     -0.77      0.00
  -34    8    7     -4.31      0.00
  -32    8    7     -5.10      0.00
  -30    8    7     -2.93      0.00
  -28    8    7     -1.08      0.00
  -26    8    7     -1.23      0.00
  -24    8    7     -1.91      0.00
  -22    8    7     -2.02      0.00
  -20    8    7     -2.38      0.00
  -18    8    7     -3.30      0.00
  -16    8    7     -3.77      0.00
  -14    8    7     -3.67      0.00
  -12    8    7     -3.97      0.00
  -10    8    7     -4.60      0.00
   -8    8    7     -4.42      0.00
   -6    8    7     -3.70      0.00
   -4    8    7     -4.04      0.00
   -2    8    7     -5.78      0.00
    0    8    7     -7.71      0.00
    2    8    7     -9.17      0.00
    4    8    7    -10.03      0.00
    6    8    7     -9.09      0.00
    8    8    7     -5.26      0.00
   10    8    7     -0.21      0.00
   12    8    7      2.67      0.00
   14    8    7      2.21      0.00
   16    8    7      0.45      0.00
   18    8    7     -0.40      0.00
   20    8    7     -0.06      0.00
   22    8    7      0.46      0.00
   24    8    7      0.54      0.00
   26    8    7      0.43      0.00
   28    8    7      0.69      0.00
  -35    9    7      0.24      0.00
  -33    9    7      1.91      0.00
  -31    9    7      1.78      0.00
  -29    9    7      0.72      0.00
  -27    9    7      0.29      0.00
  -25    9    7      0.72      0.00
  -23    9    7      1.00      0.00
  -21    9    7      0.93      0.00
  -19    9    7      1.64      0.00
  -17    9    7      3.37      0.00
  -15    9    7      4.38      0.00
  -13    9    7      3.62      0.00
  -11    9    7      2.25      0.00
   -9    9    7      1.37      0.00
   -7    9    7      0.73      0.00
   -5    9    7      0.73      0.00
   -3    9    7      2.66      0.00
   -1    9    7      5.94      0.00
    1    9    7      8.18      0.00
    3    9    7      8.29      0.00
    5    9    7      6.78      0.00
    7    9    7      3.91      0.00
    9    9    7      0.36      0.00
   11    9    7     -1.84      0.00
   13    9    7     -1.39      0.00
   15    9    7      0.48      0.00
   17    9    7      1.61      0.00
   19    9    7      0.97      0.00
   21    9    7     -0.89      0.00
   23    9    7     -2.21      0.00
   25    9    7     -1.68      0.00
  -32   10    7     -0.29      0.00
  -30   10    7     -1.28      0.00
  -28   10    7     -1.42      0.00
  -26   10    7     -1.65      0.00
  -24   10    7     -2.54      0.00
  -22   10    7     -2.79      0.00
  -20   10    7     -1.94      0.00
  -18   10    7     -1.77      0.00
  -16   10    7     -2.80      0.00
  -14   10    7     -2.85      0.00
  -12   10    7     -1.05      0.00
  -10   10    7      0.66      0.00
   -8   10    7      1.29      0.00
   -6   10    7      1.60      0.00
   -4   10    7      0.82      0.00
   -2   10    7     -2.38      0.00
    0   10    7     -5.98      0.00
    2   10    7     -6.26      0.00
    4   10    7     -3.23      0.00
    6   10    7     -0.35      0.00
    8   10    7      0.29      0.00
   10   10    7     -0.45      0.00
   12   10    7     -1.17      0.00
   14   10    7     -1.39      0.00
   16   10    7     -1.22      0.00
   18   10    7     -0.75      0.00
   20   10    7      0.03      0.00
   22   10    7      0.95      0.00
  -29   11    7      2.71      0.00
  -27   11    7      2.81      0.00
  -25   11    7      3.49      0.00
  -23   11    7      4.20      0.00
  -21   11    7      3.13      0.00
  -19   11    7      1.00      0.00
  -17   11    7     -0.01      0.00
  -15   11    7     -0.22      0.00
  -13   11    7     -1.08      0.00
  -11   11    7     -1.68      0.00
   -9   11    7     -1.03      0.00
   -7   11    7     -1.01      0.00
   -5   11    7     -2.47      0.00
   -3   11    7     -2.07      0.00
   -1   11    7      1.81      0.00
    1   11    7      4.55      0.00
    3   11    7      2.17      0.00
    5   11    7     -1.68      0.00
    7   11    7     -1.19      0.00
    9   11    7      2.89      0.00
   11   11    7      5.52      0.00
   13   11    7      4.86      0.00
   15   11    7      3.02      0.00
   17   11    7      1.72      0.00
   19   11    7      1.10      0.00
  -24   12    7     -2.21      0.00
  -22   12    7     -1.76      0.00
  -20   12    7     -0.11      0.00
  -18   12    7      1.43      0.00
  -16   12    7      2.45      0.00
  -14   12    7      3.46      0.00
  -12   12    7      3.46      0.00
  -10   12    7      1.16      0.00
   -8   12    7     -1.18      0.00
   -6   12    7     -0.15      0.00
   -4   12    7      2.52      0.00
   -2   12    7      1.96      0.00
    0   12    7     -1.45      0.00
    2   12    7     -2.32      0.00
    4   12    7      0.23      0.00
    6   12    7      0.92      0.00
    8   12    7     -2.57      0.00
   10   12    7     -6.12      0.00
   12   12    7     -6.33      0.00
   14   12    7     -4.78      0.00
  -17   13    7     -2.07      0.00
  -15   13    7     -3.71      0.00
  -13   13    7     -4.81      0.00
  -11   13    7     -3.73      0.00
   -9   13    7     -0.92      0.00
   -7   13    7      0.77      0.00
   -5   13    7     -0.07      0.00
   -3   13    7     -1.33      0.00
   -1   13    7     -0.84      0.00
    1   13    7      0.47      0.00
    3   13    7      0.90      0.00
    5   13    7      0.97      0.00
    7   13    7      1.74      0.00
    9   13    7      2.62      0.00
  -44    0    8     -1.77      0.00
  -42    0    8      0.03      0.00
  -40    0    8      1.91      0.00
  -38    0    8      3.94      0.00
  -36    0    8      6.72      0.00
  -34    0    8      7.73      0.00
  -32    0    8      5.34      0.00
  -30    0    8      2.66      0.00
  -28    0    8      1.99      0.00
  -26    0    8      1.95      0.00
  -24    0    8      3.72      0.00
  -22    0    8     10.34      0.00
  -20    0    8     16.78      0.00
  -18    0    8     12.15      0.00
  -16    0    8     -5.88      0.00
  -14    0    8    -28.05      0.00
  -12    0    8    -43.40      0.00
  -10    0    8    -45.27      0.00
   -8    0    8    -34.18      0.00
   -6    0    8    -22.09      0.00
   -4    0    8    -24.20      0.00
   -2    0    8    -40.79      0.00
    0    0    8    -55.92      0.00
    2    0    8    -55.94      0.00
    4    0    8    -39.64      0.00
    6    0    8    -13.75      0.00
    8    0    8     10.17      0.00
   10    0    8     19.36      0.00
   12    0    8     11.72      0.00
   14    0    8     -0.54      0.00
   16    0    8     -5.20      0.00
   18    0    8     -1.49      0.00
   20    0    8      5.03      0.00
   22    0    8      9.65      0.00
   24    0    8      9.68      0.00
   26    0    8      6.15      0.00
   28    0    8      3.19      0.00
   30    0    8      1.62      0.00
   32    0    8     -1.70      0.00
   34    0    8     -5.96      0.00
  -45    1    8      1.53      0.00
  -43    1    8      1.34      0.00
  -41    1    8     -0.10      0.00
  -39    1    8     -2.20      0.00
  -37    1    8     -4.72      0.00
  -35    1    8     -6.50      0.00
  -33    1    8     -5.73      0.00
  -31    1    8     -3.05      0.00
  -29    1    8     -0.90      0.00
  -27    1    8     -0.37      0.00
  -25    1    8     -2.08      0.00
  -23    1    8     -7.40      0.00
  -21    1    8    -14.04      0.00
  -19    1    8    -14.29      0.00
  -17    1    8     -2.94      0.00
  -15    1    8     15.73      0.00
  -13    1    8     31.73      0.00
  -11    1    8     37.19      0.00
   -9    1    8     30.88      0.00
   -7    1    8     20.25      0.00
   -5    1    8     17.36      0.00
   -3    1    8     27.06      0.00
   -1    1    8     41.30      0.00
    1    1    8     48.01      0.00
    3    1    8     41.32      0.00
    5    1    8     22.52      0.00
    7    1    8     -0.85      0.00
    9    1    8    -16.35      0.00
   11    1    8    -15.98      0.00
   13    1    8     -5.38      0.00
   15    1    8      2.94      0.00
   17    1    8      3.34      0.00
   19    1    8     -1.22      0.00
   21    1    8     -6.39      0.00
   23    1    8     -9.17      0.00
   25    1    8     -7.88      0.00
   27    1    8     -4.02      0.00
   29    1    8     -0.67      0.00
   31    1    8      1.73      0.00
   33    1    8      4.05      0.00
  -44    2    8     -1.16      0.00
  -42    2    8     -1.92      0.00
  -40    2    8     -0.59      0.00
  -38    2    8      1.73      0.00
  -36    2    8      2.90      0.00
  -34    2    8      2.95      0.00
  -32    2    8      2.36      0.00
  -30    2    8      0.28      0.00
  -28    2    8     -2.39      0.00
  -26    2    8     -1.52      0.00
  -24    2    8      4.50      0.00
  -22    2    8     11.04      0.00
  -20    2    8     12.06      0.00
  -18    2    8      5.90      0.00
  -16    2    8     -4.83      0.00
  -14    2    8    -14.74      0.00
  -12    2    8    -17.57      0.00
  -10    2    8    -11.98      0.00
   -8    2    8     -4.84      0.00
   -4    2    8    -10.02      0.00
   -2    2    8    -17.29      0.00
    0    2    8    -22.29      0.00
    2    2    8    -23.09      0.00
    4    2    8    -16.79      0.00
    6    2    8     -3.51      0.00
    8    2    8      9.49      0.00
   10    2    8     13.77      0.00
   12    2    8      8.90      0.00
   14    2    8      1.82      0.00
   16    2    8     -1.67      0.00
   18    2    8     -1.20      0.00
   20    2    8      1.36      0.00
   22    2    8      4.73      0.00
   24    2    8      6.91      0.00
   26    2    8      5.28      0.00
   28    2    8      0.16      0.00
   30    2    8     -4.31      0.00
   32    2    8     -4.91      0.00
   34    2    8     -2.86      0.00
  -43    3    8      1.39      0.00
  -41    3    8      1.79      0.00
  -39    3    8      0.99      0.00
  -37    3    8      0.99      0.00
  -35    3    8      1.41      0.00
  -33    3    8      0.03      0.00
  -31    3    8     -1.40      0.00
  -29    3    8      0.36      0.00
  -27    3    8      2.29      0.00
  -25    3    8     -1.06      0.00
  -23    3    8     -7.41      0.00
  -21    3    8     -9.53      0.00
  -19    3    8     -5.93      0.00
  -17    3    8     -1.06      0.00
  -15    3    8      1.45      0.00
  -13    3    8     -0.30      0.00
  -11    3    8     -6.52      0.00
   -9    3    8    -12.65      0.00
   -7    3    8    -12.67      0.00
   -5    3    8     -7.59      0.00
   -3    3    8     -3.73      0.00
   -1    3    8     -3.08      0.00
    1    3    8     -2.72      0.00
    3    3    8     -2.15      0.00
    5    3    8     -3.68      0.00
    7    3    8     -6.86      0.00
    9    3    8     -8.58      0.00
   11    3    8     -7.53      0.00
   13    3    8     -4.89      0.00
   15    3    8     -2.06      0.00
   17    3    8      0.20      0.00
   19    3    8      1.21      0.00
   21    3    8      0.24      0.00
   23    3    8     -2.26      0.00
   25    3    8     -3.46      0.00
   27    3    8     -0.71      0.00
   29    3    8      3.89      0.00
   31    3    8      5.29      0.00
   33    3    8      2.70      0.00
  -42    4    8     -0.30      0.00
  -40    4    8     -0.79      0.00
  -38    4    8     -2.50      0.00
  -36    4    8     -4.04      0.00
  -34    4    8     -2.71      0.00
  -32    4    8      0.92      0.00
  -30    4    8      2.79      0.00
  -28    4    8      1.76      0.00
  -26    4    8      1.76      0.00
  -24    4    8      4.69      0.00
  -22    4    8      6.84      0.00
  -20    4    8      5.18      0.00
  -18    4    8      2.55      0.00
  -16    4    8      3.72      0.00
  -14    4    8      9.54      0.00
  -12    4    8     16.78      0.00
  -10    4    8     21.23      0.00
   -8    4    8     20.88      0.00
   -6    4    8     17.73      0.00
   -4    4    8     15.70      0.00
   -2    4    8     16.39      0.00
    0    4    8     18.02      0.00
    2    4    8     18.30      0.00
    4    4    8     16.22      0.00
    6    4    8     11.99      0.00
    8    4    8      7.38      0.00
   10    4    8      4.81      0.00
   12    4    8      4.63      0.00
   14    4    8      4.49      0.00
   16    4    8      2.57      0.00
   18    4    8     -0.20      0.00
   20    4    8     -1.71      0.00
   22    4    8     -1.41      0.00
   24    4    8     -0.91      0.00
   26    4    8     -1.98      0.00
   28    4    8     -3.82      0.00
   30    4    8     -3.82      0.00
   32    4    8     -1.55      0.00
  -41    5    8     -0.80      0.00
  -39    5    8      1.22      0.00
  -37    5    8      3.13      0.00
  -35    5    8      2.38      0.00
  -33    5    8     -0.32      0.00
  -31    5    8     -2.36      0.00
  -29    5    8     -2.90      0.00
  -27    5    8     -3.09      0.00
  -25    5    8     -3.77      0.00
  -23    5    8     -4.29      0.00
  -21    5    8     -3.48      0.00
  -19    5    8     -1.89      0.00
  -17    5    8     -2.75      0.00
  -15    5    8     -8.67      0.00
  -13    5    8    -17.05      0.00
  -11    5    8    -21.77      0.00
   -9    5    8    -20.51      0.00
   -7    5    8    -17.15      0.00
   -5    5    8    -15.97      0.00
   -3    5    8    -17.16      0.00
   -1    5    8    -18.98      0.00
    1    5    8    -20.24      0.00
    3    5    8    -19.52      0.00
    5    5    8    -15.25      0.00
    7    5    8     -8.44      0.00
    9    5    8     -2.86      0.00
   11    5    8     -1.20      0.00
   13    5    8     -2.27      0.00
   15    5    8     -2.80      0.00
   17    5    8     -1.39      0.00
   19    5    8      0.49      0.00
   21    5    8      1.39      0.00
   23    5    8      2.13      0.00
   25    5    8      3.84      0.00
   27    5    8      5.25      0.00
   29    5    8      4.32      0.00
   31    5    8      1.64      0.00
  -40    6    8     -0.91      0.00
  -38    6    8     -1.63      0.00
  -36    6    8      0.13      0.00
  -34    6    8      2.65      0.00
  -32    6    8      3.29      0.00
  -30    6    8      2.65      0.00
  -28    6    8      2.72      0.00
  -26    6    8      3.28      0.00
  -24    6    8      2.96      0.00
  -22    6    8      1.74      0.00
  -20    6    8      0.61      0.00
  -18    6    8      0.88      0.00
  -16    6    8      4.06      0.00
  -14    6    8      9.91      0.00
  -12    6    8     14.83      0.00
  -10    6    8     15.27      0.00
   -8    6    8     12.22      0.00
   -6    6    8      9.84      0.00
   -4    6    8     10.38      0.00
   -2    6    8     12.60      0.00
    0    6    8     14.28      0.00
    2    6    8     14.20      0.00
    4    6    8     11.90      0.00
    6    6    8      7.48      0.00
    8    6    8      2.20      0.00
   10    6    8     -1.52      0.00
   12    6    8     -1.96      0.00
   14    6    8     -0.19      0.00
   16    6    8      0.96      0.00
   18    6    8      0.31      0.00
   20    6    8     -0.77      0.00
   22    6    8     -1.24      0.00
   24    6    8     -1.71      0.00
   26    6    8     -2.54      0.00
   28    6    8     -2.82      0.00
   30    6    8     -2.05      0.00
  -39    7    8      2.05      0.00
  -37    7    8     -0.34      0.00
  -35    7    8     -3.34      0.00
  -33    7    8     -4.26      0.00
  -31    7    8     -3.44      0.00
  -29    7    8     -2.88      0.00
  -27    7    8     -2.91      0.00
  -25    7    8     -2.26      0.00
  -23    7    8     -0.47      0.00
  -21    7    8      1.20      0.00
  -19    7    8      1.01      0.00
  -17    7    8     -1.44      0.00
  -15    7    8     -4.63      0.00
  -13    7    8     -6.80      0.00
  -11    7    8     -7.34      0.00
   -9    7    8     -6.35      0.00
   -7    7    8     -4.44      0.00
   -5    7    8     -3.44      0.00
   -3    7    8     -4.83      0.00
   -1    7    8     -7.38      0.00
    1    7    8     -8.39      0.00
    3    7    8     -7.18      0.00
    5    7    8     -4.88      0.00
    7    7    8     -2.07      0.00
    9    7    8      0.87      0.00
   11    7    8      2.26      0.00
   13    7    8      1.11      0.00
   15    7    8     -0.79      0.00
   17    7    8     -0.88      0.00
   19    7    8      0.82      0.00
   21    7    8      2.02      0.00
   23    7    8      1.16      0.00
   25    7    8     -0.83      0.00
   27    7    8     -1.75      0.00
   29    7    8     -0.82      0.00
  -38    8    8     -0.35      0.00
  -36    8    8      1.02      0.00
  -34    8    8      1.15      0.00
  -32    8    8      0.97      0.00
  -30    8    8      1.33      0.00
  -28    8    8      1.46      0.00
  -26    8    8      0.71      0.00
  -24    8    8     -0.85      0.00
  -22    8    8     -2.79      0.00
  -20    8    8     -3.46      0.00
  -18    8    8     -1.05      0.00
  -16    8    8      2.92      0.00
  -14    8    8      4.64      0.00
  -12    8    8      3.44      0.00
  -10    8    8      1.91      0.00
   -8    8    8      1.01      0.00
   -6    8    8     -0.13      0.00
   -4    8    8     -0.53      0.00
   -2    8    8      1.21      0.00
    0    8    8      3.33      0.00
    2    8    8      3.08      0.00
    4    8    8      0.81      0.00
    6    8    8     -1.13      0.00
    8    8    8     -1.71      0.00
   10    8    8     -1.04      0.00
   12    8    8      0.67      0.00
   14    8    8      2.33      0.00
   16    8    8      2.22      0.00
   18    8    8     -0.05      0.00
   20    8    8     -2.54      0.00
   22    8    8     -2.69      0.00
   24    8    8     -0.12      0.00
   26    8    8      2.63      0.00
  -35    9    8      0.90      0.00
  -33    9    8      1.80      0.00
  -31    9    8      0.88      0.00
  -29    9    8     -0.10      0.00
  -27    9    8      0.26      0.00
  -25    9    8      1.22      0.00
  -23    9    8      2.42      0.00
  -21    9    8      3.75      0.00
  -19    9    8      3.28      0.00
  -17    9    8     -0.20      0.00
  -15    9    8     -3.62      0.00
  -13    9    8     -3.51      0.00
  -11    9    8     -1.14      0.00
   -9    9    8      0.55      0.00
   -7    9    8      1.84      0.00
   -5    9    8      3.49      0.00
   -3    9    8      3.47      0.00
   -1    9    8      0.96      0.00
    1    9    8     -0.44      0.00
    3    9    8      2.00      0.00
    5    9    8      5.47      0.00
    7    9    8      5.63      0.00
    9    9    8      2.35      0.00
   11    9    8     -1.42      0.00
   13    9    8     -3.63      0.00
   15    9    8     -3.72      0.00
   17    9    8     -1.75      0.00
   19    9    8      0.97      0.00
   21    9    8      2.16      0.00
   23    9    8      0.97      0.00
   25    9    8     -0.89      0.00
  -32   10    8     -0.96      0.00
  -30   10    8     -0.05      0.00
  -28   10    8     -0.21      0.00
  -26   10    8     -1.28      0.00
  -24   10    8     -2.31      0.00
  -22   10    8     -3.35      0.00
  -20   10    8     -3.98      0.00
  -18   10    8     -2.70      0.00
  -16   10    8      0.21      0.00
  -14   10    8      2.10      0.00
  -12   10    8      1.78      0.00
  -10   10    8      0.69      0.00
   -8   10    8     -0.70      0.00
   -6   10    8     -3.36      0.00
   -4   10    8     -5.59      0.00
   -2   10    8     -4.17      0.00
    0   10    8     -0.68      0.00
    2   10    8     -0.51      0.00
    4   10    8     -4.26      0.00
    6   10    8     -6.40      0.00
    8   10    8     -3.77      0.00
   10   10    8      0.67      0.00
   12   10    8      3.61      0.00
   14   10    8      4.89      0.00
   16   10    8      4.62      0.00
   18   10    8      2.58      0.00
   20   10    8      0.45      0.00
   22   10    8      0.24      0.00
  -29   11    8      0.87      0.00
  -27   11    8      2.04      0.00
  -25   11    8      3.78      0.00
  -23   11    8      5.10      0.00
  -21   11    8      5.32      0.00
  -19   11    8      4.36      0.00
  -17   11    8      2.56      0.00
  -15   11    8      0.57      0.00
  -13   11    8     -0.97      0.00
  -11   11    8     -1.97      0.00
   -9   11    8     -2.12      0.00
   -7   11    8     -0.44      0.00
   -5   11    8      2.64      0.00
   -3   11    8      4.03      0.00
   -1   11    8      1.77      0.00
    1   11    8     -1.24      0.00
    3   11    8     -1.10      0.00
    5   11    8      1.34      0.00
    7   11    8      2.49      0.00
    9   11    8      1.50      0.00
   11   11    8     -0.36      0.00
   13   11    8     -2.88      0.00
   15   11    8     -5.43      0.00
   17   11    8     -5.70      0.00
   19   11    8     -3.26      0.00
  -24   12    8     -4.25      0.00
  -22   12    8     -4.73      0.00
  -20   12    8     -3.81      0.00
  -18   12    8     -2.63      0.00
  -16   12    8     -1.63      0.00
  -14   12    8     -0.39      0.00
  -12   12    8      0.80      0.00
  -10   12    8      1.34      0.00
   -8   12    8      1.36      0.00
   -6   12    8      1.03      0.00
   -4   12    8      0.13      0.00
   -2   12    8     -0.55      0.00
    0   12    8      0.61      0.00
    2   12    8      3.22      0.00
    4   12    8      4.33      0.00
    6   12    8      1.98      0.00
    8   12    8     -2.16      0.00
   10   12    8     -4.43      0.00
   12   12    8     -2.82      0.00
   14   12    8      1.19      0.00
  -17   13    8      0.81      0.00
  -15   13    8      0.31      0.00
  -13   13    8     -0.37      0.00
  -11   13    8      0.19      0.00
   -9   13    8      1.09      0.00
   -7   13    8     -0.07      0.00
   -5   13    8     -2.46      0.00
   -3   13    8     -2.69      0.00
   -1   13    8     -0.93      0.00
    1   13    8     -1.29      0.00
    3   13    8     -4.38      0.00
    5   13    8     -5.26      0.00
    7   13    8     -1.07      0.00
  -45    1    9      0.72      0.00
  -43    1    9     -1.24      0.00
  -41    1    9     -1.70      0.00
  -39    1    9     -0.86      0.00
  -37    1    9     -1.42      0.00
  -35    1    9     -2.94      0.00
  -33    1    9     -2.96      0.00
  -31    1    9     -2.45      0.00
  -29    1    9     -3.21      0.00
  -27    1    9     -3.05      0.00
  -25    1    9     -0.49      0.00
  -23    1    9      0.94      0.00
  -21    1    9     -0.60      0.00
  -19    1    9     -0.66      0.00
  -17    1    9      4.23      0.00
  -15    1    9     11.56      0.00
  -13    1    9     17.78      0.00
  -11    1    9     20.83      0.00
   -9    1    9     18.57      0.00
   -7    1    9     12.40      0.00
   -5    1    9      9.84      0.00
   -3    1    9     15.77      0.00
   -1    1    9     24.38      0.00
    1    1    9     26.15      0.00
    3    1    9     18.45      0.00
    5    1    9      5.70      0.00
    7    1    9     -5.82      0.00
    9    1    9    -11.09      0.00
   11    1    9     -9.22      0.00
   13    1    9     -4.28      0.00
   15    1    9     -1.02      0.00
   17    1    9     -0.90      0.00
   19    1    9     -2.88      0.00
   21    1    9     -4.63      0.00
   23    1    9     -3.61      0.00
   25    1    9     -0.47      0.00
   27    1    9      1.10      0.00
   29    1    9      0.33      0.00
   31    1    9      0.59      0.00
   33    1    9      2.63      0.00
  -44    2    9     -0.31      0.00
  -42    2    9      1.10      0.00
  -40    2    9      1.15      0.00
  -38    2    9      1.75      0.00
  -36    2    9      3.90      0.00
  -34    2    9      4.90      0.00
  -32    2    9      3.73      0.00
  -30    2    9      3.12      0.00
  -28    2    9      3.43      0.00
  -26    2    9      2.05      0.00
  -24    2    9      0.11      0.00
  -22    2    9      0.94      0.00
  -20    2    9      1.86      0.00
  -18    2    9     -3.24      0.00
  -16    2    9    -14.21      0.00
  -14    2    9    -24.98      0.00
  -12    2    9    -30.65      0.00
  -10    2    9    -29.27      0.00
   -8    2    9    -22.22      0.00
   -6    2    9    -16.78      0.00
   -4    2    9    -21.09      0.00
   -2    2    9    -33.39      0.00
    0    2    9    -42.03      0.00
    2    2    9    -37.43      0.00
    4    2    9    -20.08      0.00
    6    2    9      1.28      0.00
    8    2    9     15.72      0.00
   10    2    9     17.51      0.00
   12    2    9     10.46      0.00
   14    2    9      3.09      0.00
   16    2    9      0.39      0.00
   18    2    9      2.17      0.00
   20    2    9      5.89      0.00
   22    2    9      7.71      0.00
   24    2    9      5.24      0.00
   26    2    9      0.92      0.00
   28    2    9     -1.45      0.00
   30    2    9     -2.41      0.00
   32    2    9     -3.86      0.00
  -43    3    9      0.98      0.00
  -41    3    9      0.64      0.00
  -39    3    9     -0.73      0.00
  -37    3    9     -2.71      0.00
  -35    3    9     -4.02      0.00
  -33    3    9     -3.82      0.00
  -31    3    9     -2.61      0.00
  -29    3    9     -1.31      0.00
  -27    3    9     -0.44      0.00
  -25    3    9     -0.66      0.00
  -23    3    9     -2.40      0.00
  -21    3    9     -3.77      0.00
  -19    3    9     -0.67      0.00
  -17    3    9      8.81      0.00
  -15    3    9     20.83      0.00
  -13    3    9     28.32      0.00
  -11    3    9     27.28      0.00
   -9    3    9     20.53      0.00
   -7    3    9     15.43      0.00
   -5    3    9     17.93      0.00
   -3    3    9     27.82      0.00
   -1    3    9     38.52      0.00
    1    3    9     41.03      0.00
    3    3    9     30.03      0.00
    5    3    9      9.07      0.00
    7    3    9    -10.42      0.00
    9    3    9    -18.17      0.00
   11    3    9    -13.74      0.00
   13    3    9     -5.03      0.00
   15    3    9      0.51      0.00
   17    3    9      0.79      0.00
   19    3    9     -2.69      0.00
   21    3    9     -7.05      0.00
   23    3    9     -8.97      0.00
   25    3    9     -6.73      0.00
   27    3    9     -1.69      0.00
   29    3    9      3.24      0.00
   31    3    9      5.80      0.00
   33    3    9      5.05      0.00
  -44    4    9     -0.78      0.00
  -42    4    9     -1.67      0.00
  -40    4    9     -0.83      0.00
  -38    4    9      0.56      0.00
  -36    4    9      1.20      0.00
  -34    4    9      1.91      0.00
  -32    4    9      2.84      0.00
  -30    4    9      2.34      0.00
  -28    4    9      0.61      0.00
  -26    4    9      0.63      0.00
  -24    4    9      3.47      0.00
  -22    4    9      6.29      0.00
  -20    4    9      5.69      0.00
  -18    4    9      0.19      0.00
  -16    4    9     -9.03      0.00
  -14    4    9    -17.12      0.00
  -12    4    9    -18.24      0.00
  -10    4    9    -12.41      0.00
   -8    4    9     -6.62      0.00
   -6    4    9     -7.16      0.00
   -4    4    9    -13.97      0.00
   -2    4    9    -22.64      0.00
    0    4    9    -27.77      0.00
    2    4    9    -24.50      0.00
    4    4    9    -12.14      0.00
    6    4    9      3.16      0.00
    8    4    9     12.67      0.00
   10    4    9     12.64      0.00
   12    4    9      6.27      0.00
   14    4    9     -0.50      0.00
   16    4    9     -3.55      0.00
   18    4    9     -2.12      0.00
   20    4    9      2.06      0.00
   22    4    9      6.40      0.00
   24    4    9      8.22      0.00
   26    4    9      5.78      0.00
   28    4    9      0.26      0.00
   30    4    9     -4.27      0.00
   32    4    9     -4.85      0.00
  -43    5    9      0.42      0.00
  -41    5    9      0.37      0.00
  -39    5    9      0.43      0.00
  -37    5    9      1.22      0.00
  -35    5    9      1.38      0.00
  -33    5    9     -0.24      0.00
  -31    5    9     -1.89      0.00
  -29    5    9     -1.83      0.00
  -27    5    9     -1.66      0.00
  -25    5    9     -3.68      0.00
  -23    5    9     -7.06      0.00
  -21    5    9     -8.81      0.00
  -19    5    9     -6.99      0.00
  -17    5    9     -1.85      0.00
  -15    5    9      3.98      0.00
  -13    5    9      6.56      0.00
  -11    5    9      4.07      0.00
   -9    5    9     -0.66      0.00
   -7    5    9     -2.78      0.00
   -5    5    9      0.05      0.00
   -3    5    9      6.12      0.00
   -1    5    9     11.18      0.00
    1    5    9     11.35      0.00
    3    5    9      6.09      0.00
    5    5    9     -1.44      0.00
    7    5    9     -7.17      0.00
    9    5    9     -8.84      0.00
   11    5    9     -6.19      0.00
   13    5    9     -0.88      0.00
   15    5    9      3.72      0.00
   17    5    9      4.68      0.00
   19    5    9      2.02      0.00
   21    5    9     -1.74      0.00
   23    5    9     -3.93      0.00
   25    5    9     -3.38      0.00
   27    5    9     -0.85      0.00
   29    5    9      1.47      0.00
   31    5    9      2.13      0.00
  -40    6    9      0.29      0.00
  -38    6    9     -1.22      0.00
  -36    6    9     -2.12      0.00
  -34    6    9     -1.86      0.00
  -32    6    9     -1.46      0.00
  -30    6    9     -1.23      0.00
  -28    6    9     -0.17      0.00
  -26    6    9      2.19      0.00
  -24    6    9      5.38      0.00
  -22    6    9      8.37      0.00
  -20    6    9      9.42      0.00
  -18    6    9      7.35      0.00
  -16    6    9      3.79      0.00
  -14    6    9      1.89      0.00
  -12    6    9      2.66      0.00
  -10    6    9      4.63      0.00
   -8    6    9      6.27      0.00
   -6    6    9      6.29      0.00
   -4    6    9      3.72      0.00
   -2    6    9     -0.14      0.00
    0    6    9     -1.93      0.00
    2    6    9     -0.32      0.00
    4    6    9      2.43      0.00
    6    6    9      3.96      0.00
    8    6    9      4.05      0.00
   10    6    9      2.84      0.00
   12    6    9      0.09      0.00
   14    6    9     -3.17      0.00
   16    6    9     -4.49      0.00
   18    6    9     -2.69      0.00
   20    6    9      0.43      0.00
   22    6    9      1.66      0.00
   24    6    9     -0.15      0.00
   26    6    9     -2.64      0.00
   28    6    9     -2.95      0.00
  -39    7    9      0.60      0.00
  -37    7    9      0.09      0.00
  -35    7    9     -1.10      0.00
  -33    7    9     -0.42      0.00
  -31    7    9      1.71      0.00
  -29    7    9      2.05      0.00
  -27    7    9     -0.25      0.00
  -25    7    9     -3.17      0.00
  -23    7    9     -5.77      0.00
  -21    7    9     -8.09      0.00
  -19    7    9     -8.66      0.00
  -17    7    9     -6.73      0.00
  -15    7    9     -4.68      0.00
  -13    7    9     -4.76      0.00
  -11    7    9     -5.83      0.00
   -9    7    9     -6.11      0.00
   -7    7    9     -5.81      0.00
   -5    7    9     -5.39      0.00
   -3    7    9     -4.39      0.00
   -1    7    9     -3.21      0.00
    1    7    9     -3.16      0.00
    3    7    9     -4.05      0.00
    5    7    9     -4.09      0.00
    7    7    9     -2.30      0.00
    9    7    9      0.51      0.00
   11    7    9      2.99      0.00
   13    7    9      4.30      0.00
   15    7    9      4.07      0.00
   17    7    9      2.20      0.00
   19    7    9     -0.51      0.00
   21    7    9     -1.95      0.00
   23    7    9     -0.55      0.00
   25    7    9      2.33      0.00
   27    7    9      3.54      0.00
  -38    8    9      0.06      0.00
  -36    8    9      3.09      0.00
  -34    8    9      4.40      0.00
  -32    8    9      2.40      0.00
  -30    8    9      0.06      0.00
  -28    8    9      0.16      0.00
  -26    8    9      1.60      0.00
  -24    8    9      2.64      0.00
  -22    8    9      3.87      0.00
  -20    8    9      5.77      0.00
  -18    8    9      6.70      0.00
  -16    8    9      5.71      0.00
  -14    8    9      4.46      0.00
  -12    8    9      4.31      0.00
  -10    8    9      4.28      0.00
   -8    8    9      3.47      0.00
   -6    8    9      3.03      0.00
   -4    8    9      3.80      0.00
   -2    8    9      4.71      0.00
    0    8    9      5.00      0.00
    2    8    9      5.41      0.00
    4    8    9      5.71      0.00
    6    8    9      3.98      0.00
    8    8    9     -0.17      0.00
   10    8    9     -3.95      0.00
   12    8    9     -4.85      0.00
   14    8    9     -3.46      0.00
   16    8    9     -1.72      0.00
   18    8    9     -0.44      0.00
   20    8    9      0.27      0.00
   22    8    9      0.21      0.00
   24    8    9     -0.35      0.00
   26    8    9     -0.70      0.00
  -35    9    9     -3.25      0.00
  -33    9    9     -3.67      0.00
  -31    9    9     -2.40      0.00
  -29    9    9     -1.21      0.00
  -27    9    9     -0.95      0.00
  -25    9    9     -0.91      0.00
  -23    9    9     -0.72      0.00
  -21    9    9     -1.43      0.00
  -19    9    9     -3.49      0.00
  -17    9    9     -5.16      0.00
  -15    9    9     -4.63      0.00
  -13    9    9     -2.71      0.00
  -11    9    9     -1.11      0.00
   -9    9    9     -0.11      0.00
   -7    9    9      0.22      0.00
   -5    9    9     -1.04      0.00
   -3    9    9     -3.47      0.00
   -1    9    9     -4.94      0.00
    1    9    9     -4.86      0.00
    3    9    9     -4.40      0.00
    5    9    9     -3.26      0.00
    7    9    9     -0.26      0.00
    9    9    9      3.03      0.00
   11    9    9      3.75      0.00
   13    9    9      2.15      0.00
   15    9    9      0.99      0.00
   17    9    9      1.33      0.00
   19    9    9      2.11      0.00
   21    9    9      2.24      0.00
   23    9    9      1.37      0.00
  -32   10    9      3.13      0.00
  -30   10    9      2.95      0.00
  -28   10    9      2.04      0.00
  -26   10    9      1.68      0.00
  -24   10    9      1.64      0.00
  -22   10    9      1.18      0.00
  -20   10    9      1.26      0.00
  -18   10    9      2.59      0.00
  -16   10    9      3.23      0.00
  -14   10    9      1.36      0.00
  -12   10    9     -1.55      0.00
  -10   10    9     -3.21      0.00
   -8   10    9     -3.38      0.00
   -6   10    9     -2.13      0.00
   -4   10    9      1.05      0.00
   -2   10    9      4.63      0.00
    0   10    9      5.48      0.00
    2   10    9      3.13      0.00
    4   10    9      0.20      0.00
    6   10    9     -1.46      0.00
    8   10    9     -1.88      0.00
   10   10    9     -1.19      0.00
   12   10    9      0.09      0.00
   14   10    9      0.41      0.00
   16   10    9     -0.93      0.00
   18   10    9     -2.51      0.00
   20   10    9     -2.77      0.00
  -29   11    9     -2.62      0.00
  -27   11    9     -1.79      0.00
  -25   11    9     -1.84      0.00
  -23   11    9     -1.75      0.00
  -21   11    9     -0.89      0.00
  -19   11    9     -0.40      0.00
  -17   11    9     -0.32      0.00
  -15   11    9      0.93      0.00
  -13   11    9      3.00      0.00
  -11   11    9      3.65      0.00
   -9   11    9      2.85      0.00
   -7   11    9      2.27      0.00
   -5   11    9      0.96      0.00
   -3   11    9     -2.93      0.00
   -1   11    9     -6.71      0.00
    1   11    9     -5.63      0.00
    3   11    9     -0.58      0.00
    5   11    9      2.61      0.00
    7   11    9      1.25      0.00
    9   11    9     -1.81      0.00
   11   11    9     -3.40      0.00
   13   11    9     -3.11      0.00
   15   11    9     -1.57      0.00
   17   11    9      0.30      0.00
  -24   12    9     -0.31      0.00
  -22   12    9     -0.72      0.00
  -20   12    9     -1.12      0.00
  -18   12    9     -1.59      0.00
  -16   12    9     -2.89      0.00
  -14   12    9     -4.33      0.00
  -12   12    9     -3.55      0.00
  -10   12    9     -0.58      0.00
   -8   12    9      1.15      0.00
   -6   12    9      0.44      0.00
   -4   12    9      0.96      0.00
   -2   12    9      4.63      0.00
    0   12    9      7.01      0.00
    2   12    9      4.13      0.00
    4   12    9     -0.55      0.00
    6   12    9     -1.37      0.00
    8   12    9      1.43      0.00
   10   12    9      3.75      0.00
   12   12    9      4.07      0.00
  -17   13    9      2.26      0.00
  -15   13    9      3.99      0.00
  -13   13    9      4.18      0.00
  -11   13    9      1.58      0.00
   -9   13    9     -1.50      0.00
   -7   13    9     -2.19      0.00
   -5   13    9     -1.40      0.00
   -3   13    9     -2.14      0.00
   -1   13    9     -4.39      0.00
    1   13    9     -5.07      0.00
    3   13    9     -3.06      0.00
    5   13    9     -0.67      0.00
  -46    0   10      1.43      0.00
  -44    0   10      0.21      0.00
  -42    0   10     -1.64      0.00
  -40    0   10     -2.70      0.00
  -38    0   10     -4.10      0.00
  -36    0   10     -5.37      0.00
  -34    0   10     -3.53      0.00
  -32    0   10      0.72      0.00
  -30    0   10      3.04      0.00
  -28    0   10      2.47      0.00
  -26    0   10      0.97      0.00
  -24    0   10     -2.46      0.00
  -22    0   10     -8.37      0.00
  -20    0   10    -11.17      0.00
  -18    0   10     -5.13      0.00
  -16    0   10      7.18      0.00
  -14    0   10     18.05      0.00
  -12    0   10     21.94      0.00
  -10    0   10     17.64      0.00
   -8    0   10      9.72      0.00
   -6    0   10      7.78      0.00
   -4    0   10     17.38      0.00
   -2    0   10     32.00      0.00
    0    0   10     38.40      0.00
    2    0   10     28.15      0.00
    4    0   10      3.48      0.00
    6    0   10    -23.04      0.00
    8    0   10    -35.66      0.00
   10    0   10    -29.13      0.00
   12    0   10    -13.80      0.00
   14    0   10     -3.09      0.00
   16    0   10     -0.88      0.00
   18    0   10     -4.12      0.00
   20    0   10     -9.02      0.00
   22    0   10    -11.38      0.00
   24    0   10     -8.95      0.00
   26    0   10     -5.02      0.00
   28    0   10     -3.23      0.00
   30    0   10     -1.57      0.00
   32    0   10      2.09      0.00
  -45    1   10     -2.34      0.00
  -43    1   10     -1.54      0.00
  -41    1   10      0.39      0.00
  -39    1   10      2.63      0.00
  -37    1   10      4.52      0.00
  -35    1   10      4.41      0.00
  -33    1   10      1.55      0.00
  -31    1   10     -1.80      0.00
  -29    1   10     -2.94      0.00
  -27    1   10     -1.59      0.00
  -25    1   10      1.87      0.00
  -23    1   10      7.02      0.00
  -21    1   10     10.69      0.00
  -19    1   10      8.06      0.00
  -17    1   10     -1.29      0.00
  -15    1   10    -11.70      0.00
  -13    1   10    -16.80      0.00
  -11    1   10    -14.51      0.00
   -9    1   10     -8.22      0.00
   -7    1   10     -5.01      0.00
   -5    1   10    -10.29      0.00
   -3    1   10    -22.27      0.00
   -1    1   10    -32.33      0.00
    1    1   10    -31.25      0.00
    3    1   10    -15.50      0.00
    5    1   10      8.67      0.00
    7    1   10     27.17      0.00
    9    1   10     29.24      0.00
   11    1   10     18.02      0.00
   13    1   10      5.86      0.00
   15    1   10      0.54      0.00
   17    1   10      1.37      0.00
   19    1   10      5.22      0.00
   21    1   10      9.19      0.00
   23    1   10     10.12      0.00
   25    1   10      7.29      0.00
   27    1   10      3.58      0.00
   29    1   10      0.93      0.00
   31    1   10     -1.37      0.00
  -44    2   10      5.19      0.00
  -42    2   10      4.78      0.00
  -40    2   10      1.32      0.00
  -38    2   10     -1.84      0.00
  -36    2   10     -2.66      0.00
  -34    2   10     -2.08      0.00
  -32    2   10     -0.70      0.00
  -30    2   10      1.46      0.00
  -28    2   10      2.05      0.00
  -26    2   10     -1.65      0.00
  -24    2   10     -7.76      0.00
  -22    2   10    -11.17      0.00
  -20    2   10     -9.13      0.00
  -18    2   10     -2.90      0.00
  -16    2   10      3.95      0.00
  -14    2   10      6.83      0.00
  -12    2   10      3.44      0.00
  -10    2   10     -2.32      0.00
   -8    2   10     -3.53      0.00
   -6    2   10      1.91      0.00
   -4    2   10     10.36      0.00
   -2    2   10     17.71      0.00
    0    2   10     20.94      0.00
    2    2   10     16.54      0.00
    4    2   10      3.88      0.00
    6    2   10    -10.34      0.00
    8    2   10    -16.76      0.00
   10    2   10    -13.00      0.00
   12    2   10     -5.17      0.00
   14    2   10     -0.03      0.00
   16    2   10      0.92      0.00
   18    2   10     -0.55      0.00
   20    2   10     -3.37      0.00
   22    2   10     -6.66      0.00
   24    2   10     -7.89      0.00
   26    2   10     -4.92      0.00
   28    2   10      0.33      0.00
   30    2   10      3.46      0.00
   32    2   10      2.89      0.00
  -45    3   10     -3.77      0.00
  -43    3   10     -6.00      0.00
  -41    3   10     -4.88      0.00
  -39    3   10     -2.08      0.00
  -37    3   10     -0.66      0.00
  -35    3   10      0.14      0.00
  -33    3   10      1.80      0.00
  -31    3   10      2.33      0.00
  -29    3   10      1.06      0.00
  -27    3   10      2.00      0.00
  -25    3   10      7.03      0.00
  -23    3   10     11.42      0.00
  -21    3   10     10.70      0.00
  -19    3   10      6.37      0.00
  -17    3   10      2.59      0.00
  -15    3   10      2.25      0.00
  -13    3   10      6.34      0.00
  -11    3   10     12.07      0.00
   -9    3   10     13.58      0.00
   -7    3   10      8.62      0.00
   -5    3   10      1.57      0.00
   -3    3   10     -2.93      0.00
   -1    3   10     -4.85      0.00
    1    3   10     -5.40      0.00
    3    3   10     -4.07      0.00
    5    3   10     -1.08      0.00
    7    3   10      1.41      0.00
    9    3   10      1.69      0.00
   11    3   10      0.21      0.00
   13    3   10     -1.52      0.00
   15    3   10     -2.42      0.00
   17    3   10     -2.49      0.00
   19    3   10     -1.88      0.00
   21    3   10      0.04      0.00
   23    3   10      2.68      0.00
   25    3   10      2.97      0.00
   27    3   10     -0.48      0.00
   29    3   10     -3.90      0.00
   31    3   10     -3.40      0.00
  -44    4   10      2.47      0.00
  -42    4   10      3.44      0.00
  -40    4   10      3.66      0.00
  -38    4   10      3.40      0.00
  -36    4   10      2.38      0.00
  -34    4   10     -0.03      0.00
  -32    4   10     -2.71      0.00
  -30    4   10     -3.79      0.00
  -28    4   10     -4.02      0.00
  -26    4   10     -5.79      0.00
  -24    4   10     -8.73      0.00
  -22    4   10     -9.67      0.00
  -20    4   10     -7.50      0.00
  -18    4   10     -5.17      0.00
  -16    4   10     -6.18      0.00
  -14    4   10    -10.64      0.00
  -12    4   10    -15.23      0.00
  -10    4   10    -16.41      0.00
   -8    4   10    -13.70      0.00
   -6    4   10     -9.68      0.00
   -4    4   10     -7.16      0.00
   -2    4   10     -6.58      0.00
    0    4   10     -6.17      0.00
    2    4   10     -3.70      0.00
    4    4   10      1.06      0.00
    6    4   10      5.57      0.00
    8    4   10      6.92      0.00
   10    4   10      5.23      0.00
   12    4   10      3.22      0.00
   14    4   10      2.67      0.00
   16    4   10      3.14      0.00
   18    4   10      3.60      0.00
   20    4   10      3.61      0.00
   22    4   10      3.35      0.00
   24    4   10      3.61      0.00
   26    4   10      4.52      0.00
   28    4   10      4.54      0.00
   30    4   10      2.51      0.00
  -43    5   10     -0.29      0.00
  -41    5   10     -2.07      0.00
  -39    5   10     -3.64      0.00
  -37    5   10     -3.22      0.00
  -35    5   10     -1.57      0.00
  -33    5   10     -0.33      0.00
  -31    5   10      0.57      0.00
  -29    5   10      1.82      0.00
  -27    5   10      3.19      0.00
  -25    5   10      4.42      0.00
  -23    5   10      5.37      0.00
  -21    5   10      5.20      0.00
  -19    5   10      4.00      0.00
  -17    5   10      4.49      0.00
  -15    5   10      8.39      0.00
  -13    5   10     12.70      0.00
  -11    5   10     13.41      0.00
   -9    5   10     11.13      0.00
   -7    5   10      9.40      0.00
   -5    5   10      9.58      0.00
   -3    5   10     10.44      0.00
   -1    5   10     10.43      0.00
    1    5   10      8.02      0.00
    3    5   10      2.40      0.00
    5    5   10     -4.42      0.00
    7    5   10     -8.48      0.00
    9    5   10     -8.01      0.00
   11    5   10     -5.05      0.00
   13    5   10     -2.72      0.00
   15    5   10     -2.13      0.00
   17    5   10     -2.27      0.00
   19    5   10     -2.34      0.00
   21    5   10     -3.25      0.00
   23    5   10     -5.99      0.00
   25    5   10     -8.69      0.00
   27    5   10     -8.07      0.00
   29    5   10     -4.07      0.00
  -42    6   10      0.78      0.00
  -40    6   10      2.28      0.00
  -38    6   10      1.53      0.00
  -36    6   10     -0.54      0.00
  -34    6   10     -0.93      0.00
  -32    6   10      0.29      0.00
  -30    6   10      0.59      0.00
  -28    6   10     -0.52      0.00
  -26    6   10     -1.44      0.00
  -24    6   10     -1.73      0.00
  -22    6   10     -1.86      0.00
  -20    6   10     -1.71      0.00
  -18    6   10     -1.80      0.00
  -16    6   10     -3.66      0.00
  -14    6   10     -6.79      0.00
  -12    6   10     -8.25      0.00
  -10    6   10     -6.82      0.00
   -8    6   10     -5.07      0.00
   -6    6   10     -5.78      0.00
   -4    6   10     -8.34      0.00
   -2    6   10     -9.88      0.00
    0    6   10     -8.40      0.00
    2    6   10     -4.30      0.00
    4    6   10      0.52      0.00
    6    6   10      4.34      0.00
    8    6   10      6.14      0.00
   10    6   10      5.59      0.00
   12    6   10      3.52      0.00
   14    6   10      1.77      0.00
   16    6   10      1.13      0.00
   18    6   10      0.77      0.00
   20    6   10      0.60      0.00
   22    6   10      2.14      0.00
   24    6   10      5.28      0.00
   26    6   10      6.96      0.00
   28    6   10      5.30      0.00
  -39    7   10     -0.11      0.00
  -37    7   10      2.72      0.00
  -35    7   10      4.19      0.00
  -33    7   10      3.50      0.00
  -31    7   10      2.27      0.00
  -29    7   10      1.65      0.00
  -27    7   10      1.21      0.00
  -25    7   10      0.38      0.00
  -23    7   10     -0.67      0.00
  -21    7   10     -1.26      0.00
  -19    7   10     -0.75      0.00
  -17    7   10      0.68      0.00
  -15    7   10      2.19      0.00
  -13    7   10      3.04      0.00
  -11    7   10      2.86      0.00
   -9    7   10      1.80      0.00
   -7    7   10      1.32      0.00
   -5    7   10      3.04      0.00
   -3    7   10      5.85      0.00
   -1    7   10      6.65      0.00
    1    7   10      4.70      0.00
    3    7   10      2.25      0.00
    5    7   10      0.56      0.00
    7    7   10     -1.13      0.00
    9    7   10     -2.45      0.00
   11    7   10     -2.07      0.00
   13    7   10     -0.76      0.00
   15    7   10     -0.58      0.00
   17    7   10     -1.44      0.00
   19    7   10     -1.63      0.00
   21    7   10     -0.92      0.00
   23    7   10     -0.51      0.00
   25    7   10     -0.87      0.00
   27    7   10     -1.42      0.00
  -38    8   10     -1.86      0.00
  -36    8   10     -2.86      0.00
  -34    8   10     -3.13      0.00
  -32    8   10     -3.28      0.00
  -30    8   10     -2.68      0.00
  -28    8   10     -1.03      0.00
  -26    8   10      0.79      0.00
  -24    8   10      2.48      0.00
  -22    8   10      4.06      0.00
  -20    8   10      4.18      0.00
  -18    8   10      2.10      0.00
  -16    8   10     -0.09      0.00
  -14    8   10     -0.40      0.00
  -12    8   10      0.31      0.00
  -10    8   10      0.91      0.00
   -8    8   10      1.64      0.00
   -6    8   10      1.79      0.00
   -4    8   10      0.00      0.00
   -2    8   10     -2.41      0.00
    0    8   10     -2.78      0.00
    2    8   10     -1.34      0.00
    4    8   10     -0.24      0.00
    6    8   10      0.01      0.00
    8    8   10     -0.07      0.00
   10    8   10     -0.86      0.00
   12    8   10     -1.99      0.00
   14    8   10     -1.51      0.00
   16    8   10      1.12      0.00
   18    8   10      3.56      0.00
   20    8   10      3.44      0.00
   22    8   10      1.03      0.00
   24    8   10     -1.42      0.00
  -35    9   10     -0.05      0.00
  -33    9   10      0.70      0.00
  -31    9   10      1.25      0.00
  -29    9   10     -0.12      0.00
  -27    9   10     -2.23      0.00
  -25    9   10     -3.51      0.00
  -23    9   10     -4.53      0.00
  -21    9   10     -5.37      0.00
  -19    9   10     -4.37      0.00
  -17    9   10     -1.82      0.00
  -15    9   10     -0.46      0.00
  -13    9   10     -1.10      0.00
  -11    9   10     -2.00      0.00
   -9    9   10     -2.76      0.00
   -7    9   10     -3.96      0.00
   -5    9   10     -3.97      0.00
   -3    9   10     -1.21      0.00
   -1    9   10      1.73      0.00
    1    9   10      1.24      0.00
    3    9   10     -1.72      0.00
    5    9   10     -3.17      0.00
    7    9   10     -1.66      0.00
    9    9   10      1.10      0.00
   11    9   10      3.16      0.00
   13    9   10      3.34      0.00
   15    9   10      1.15      0.00
   17    9   10     -2.08      0.00
   19    9   10     -3.56      0.00
   21    9   10     -2.06      0.00
  -32   10   10      0.00      0.00
  -30   10   10      0.79      0.00
  -28   10   10      3.01      0.00
  -26   10   10      4.76      0.00
  -24   10   10      5.24      0.00
  -22   10   10      5.21      0.00
  -20   10   10      4.70      0.00
  -18   10   10      3.21      0.00
  -16   10   10      1.48      0.00
  -14   10   10      0.47      0.00
  -12   10   10     -0.13      0.00
  -10   10   10     -0.18      0.00
   -8   10   10      1.62      0.00
   -6   10   10      4.18      0.00
   -4   10   10      3.42      0.00
   -2   10   10     -1.24      0.00
    0   10   10     -4.22      0.00
    2   10   10     -1.62      0.00
    4   10   10      2.69      0.00
    6   10   10      3.25      0.00
    8   10   10      0.47      0.00
   10   10   10     -1.98      0.00
   12   10   10     -2.96      0.00
   14   10   10     -2.90      0.00
   16   10   10     -1.54      0.00
   18   10   10      0.34      0.00
   20   10   10      0.63      0.00
  -29   11   10     -2.86      0.00
  -27   11   10     -5.20      0.00
  -25   11   10     -6.88      0.00
  -23   11   10     -6.81      0.00
  -21   11   10     -5.39      0.00
  -19   11   10     -3.78      0.00
  -17   11   10     -2.41      0.00
  -15   11   10     -0.71      0.00
  -13   11   10      1.79      0.00
  -11   11   10      3.94      0.00
   -9   11   10      3.26      0.00
   -7   11   10     -0.70      0.00
   -5   11   10     -3.89      0.00
   -3   11   10     -1.93      0.00
   -1   11   10      3.21      0.00
    1   11   10      5.20      0.00
    3   11   10      2.27      0.00
    5   11   10     -1.09      0.00
    7   11   10     -1.59      0.00
    9   11   10     -0.58      0.00
   11   11   10      0.56      0.00
   13   11   10      2.23      0.00
   15   11   10      3.56      0.00
  -24   12   10      5.33      0.00
  -22   12   10      4.66      0.00
  -20   12   10      3.07      0.00
  -18   12   10      1.97      0.00
  -16   12   10      0.94      0.00
  -14   12   10     -1.05      0.00
  -12   12   10     -3.34      0.00
  -10   12   10     -3.90      0.00
   -8   12   10     -1.65      0.00
   -6   12   10      1.93      0.00
   -4   12   10      3.59      0.00
   -2   12   10      1.42      0.00
    0   12   10     -2.64      0.00
    2   12   10     -4.70      0.00
    4   12   10     -3.13      0.00
    6   12   10      0.13      0.00
    8   12   10      2.39      0.00
   10   12   10      2.40      0.00
  -17   13   10      0.02      0.00
  -15   13   10      1.16      0.00
  -13   13   10      2.05      0.00
  -11   13   10      1.65      0.00
   -9   13   10      0.44      0.00
   -7   13   10     -0.59      0.00
   -5   13   10     -1.57      0.00
   -3   13   10     -2.36      0.00
   -1   13   10     -1.34      0.00
    1   13   10      1.88      0.00
    3   13   10      4.31      0.00
  -45    1   11      3.91      0.00
  -43    1   11      4.60      0.00
  -41    1   11      1.92      0.00
  -39    1   11     -0.81      0.00
  -37    1   11     -0.80      0.00
  -35    1   11     -0.31      0.00
  -33    1   11     -1.27      0.00
  -31    1   11     -1.58      0.00
  -29    1   11     -0.34      0.00
  -27    1   11     -0.14      0.00
  -25    1   11     -1.45      0.00
  -23    1   11     -1.56      0.00
  -21    1   11     -0.34      0.00
  -19    1   11     -0.62      0.00
  -17    1   11     -3.08      0.00
  -15    1   11     -6.12      0.00
  -13    1   11     -8.51      0.00
  -11    1   11     -8.56      0.00
   -9    1   11     -4.87      0.00
   -7    1   11     -0.50      0.00
   -5    1   11     -0.86      0.00
   -3    1   11     -5.91      0.00
   -1    1   11     -9.23      0.00
    1    1   11     -5.74      0.00
    3    1   11      3.54      0.00
    5    1   11     13.39      0.00
    7    1   11     18.37      0.00
    9    1   11     16.51      0.00
   11    1   11     10.65      0.00
   13    1   11      5.24      0.00
   15    1   11      2.63      0.00
   17    1   11      3.22      0.00
   19    1   11      5.68      0.00
   21    1   11      6.41      0.00
   23    1   11      3.25      0.00
   25    1   11     -0.65      0.00
   27    1   11     -1.35      0.00
   29    1   11     -0.28      0.00
   31    1   11     -0.66      0.00
  -44    2   11     -4.19      0.00
  -42    2   11     -3.46      0.00
  -40    2   11     -0.73      0.00
  -38    2   11      0.41      0.00
  -36    2   11     -0.08      0.00
  -34    2   11      0.73      0.00
  -32    2   11      2.34      0.00
  -30    2   11      2.02      0.00
  -28    2   11      0.58      0.00
  -26    2   11      0.54      0.00
  -24    2   11      1.07      0.00
  -22    2   11      0.63      0.00
  -20    2   11      1.09      0.00
  -18    2   11      4.41      0.00
  -16    2   11      9.05      0.00
  -14    2   11     12.25      0.00
  -12    2   11     12.25      0.00
  -10    2   11      8.23      0.00
   -8    2   11      2.47      0.00
   -6    2   11      0.93      0.00
   -4    2   11      6.73      0.00
   -2    2   11     14.43      0.00
    0    2   11     14.71      0.00
    2    2   11      3.69      0.00
    4    2   11    -13.35      0.00
    6    2   11    -26.20      0.00
    8    2   11    -27.99      0.00
   10    2   11    -20.46      0.00
   12    2   11    -10.81      0.00
   14    2   11     -4.44      0.00
   16    2   11     -2.97      0.00
   18    2   11     -5.72      0.00
   20    2   11     -9.15      0.00
   22    2   11     -8.43      0.00
   24    2   11     -3.36      0.00
   26    2   11      1.13      0.00
   28    2   11      2.43      0.00
   30    2   11      2.59      0.00
  -45    3   11      0.31      0.00
  -43    3   11      0.54      0.00
  -41    3   11      0.72      0.00
  -39    3   11      0.70      0.00
  -37    3   11      0.47      0.00
  -35    3   11     -0.11      0.00
  -33    3   11     -1.08      0.00
  -31    3   11     -1.87      0.00
  -29    3   11     -1.57      0.00
  -27    3   11     -0.13      0.00
  -25    3   11      1.50      0.00
  -23    3   11      2.27      0.00
  -21    3   11      1.31      0.00
  -19    3   11     -2.08      0.00
  -17    3   11     -7.22      0.00
  -15    3   11    -11.11      0.00
  -13    3   11    -10.57      0.00
  -11    3   11     -5.74      0.00
   -9    3   11     -0.59      0.00
   -7    3   11      0.23      0.00
   -5    3   11     -5.09      0.00
   -3    3   11    -13.60      0.00
   -1    3   11    -18.19      0.00
    1    3   11    -12.27      0.00
    3    3   11      3.49      0.00
    5    3   11     19.85      0.00
    7    3   11     26.82      0.00
    9    3   11     22.49      0.00
   11    3   11     12.85      0.00
   13    3   11      4.64      0.00
   15    3   11      0.97      0.00
   17    3   11      1.89      0.00
   19    3   11      5.46      0.00
   21    3   11      8.26      0.00
   23    3   11      7.47      0.00
   25    3   11      3.17      0.00
   27    3   11     -2.08      0.00
   29    3   11     -5.40      0.00
  -44    4   11      1.34      0.00
  -42    4   11      0.65      0.00
  -40    4   11     -0.90      0.00
  -38    4   11     -1.08      0.00
  -36    4   11     -0.25      0.00
  -34    4   11     -0.38      0.00
  -32    4   11     -1.11      0.00
  -30    4   11     -1.13      0.00
  -28    4   11     -1.51      0.00
  -26    4   11     -3.66      0.00
  -24    4   11     -6.12      0.00
  -22    4   11     -6.53      0.00
  -20    4   11     -4.14      0.00
  -18    4   11      0.44      0.00
  -16    4   11      5.10      0.00
  -14    4   11      6.05      0.00
  -12    4   11      1.75      0.00
  -10    4   11     -3.80      0.00
   -8    4   11     -4.79      0.00
   -6    4   11      0.47      0.00
   -4    4   11      8.81      0.00
   -2    4   11     14.93      0.00
    0    4   11     13.87      0.00
    2    4   11      4.58      0.00
    4    4   11     -7.90      0.00
    6    4   11    -16.05      0.00
    8    4   11    -16.30      0.00
   10    4   11    -10.59      0.00
   12    4   11     -3.32      0.00
   14    4   11      1.62      0.00
   16    4   11      2.63      0.00
   18    4   11      0.70      0.00
   20    4   11     -2.30      0.00
   22    4   11     -4.83      0.00
   24    4   11     -4.92      0.00
   26    4   11     -1.29      0.00
   28    4   11      3.80      0.00
   30    4   11      5.85      0.00
  -43    5   11      0.01      0.00
  -41    5   11      0.87      0.00
  -39    5   11      1.04      0.00
  -37    5   11      0.03      0.00
  -35    5   11     -0.52      0.00
  -33    5   11      0.38      0.00
  -31    5   11      1.67      0.00
  -29    5   11      2.66      0.00
  -27    5   11      4.25      0.00
  -25    5   11      6.89      0.00
  -23    5   11      9.28      0.00
  -21    5   11      9.46      0.00
  -19    5   11      6.50      0.00
  -17    5   11      1.91      0.00
  -15    5   11     -0.81      0.00
  -13    5   11      0.77      0.00
  -11    5   11      5.00      0.00
   -9    5   11      7.41      0.00
   -7    5   11      4.76      0.00
   -5    5   11     -2.13      0.00
   -3    5   11     -8.88      0.00
   -1    5   11    -10.82      0.00
    1    5   11     -7.08      0.00
    3    5   11     -0.94      0.00
    5    5   11      4.03      0.00
    7    5   11      6.44      0.00
    9    5   11      5.75      0.00
   11    5   11      1.98      0.00
   13    5   11     -2.66      0.00
   15    5   11     -5.00      0.00
   17    5   11     -4.38      0.00
   19    5   11     -2.59      0.00
   21    5   11     -0.87      0.00
   23    5   11      0.34      0.00
   25    5   11      0.16      0.00
   27    5   11     -1.49      0.00
   29    5   11     -2.88      0.00
  -42    6   11     -0.96      0.00
  -40    6   11     -0.38      0.00
  -38    6   11      0.45      0.00
  -36    6   11      1.60      0.00
  -34    6   11      3.12      0.00
  -32    6   11      3.78      0.00
  -30    6   11      2.28      0.00
  -28    6   11     -0.73      0.00
  -26    6   11     -4.01      0.00
  -24    6   11     -7.54      0.00
  -22    6   11    -10.55      0.00
  -20    6   11    -10.48      0.00
  -18    6   11     -6.79      0.00
  -16    6   11     -2.99      0.00
  -14    6   11     -2.28      0.00
  -12    6   11     -4.02      0.00
  -10    6   11     -5.77      0.00
   -8    6   11     -5.67      0.00
   -6    6   11     -2.69      0.00
   -4    6   11      2.19      0.00
   -2    6   11      5.74      0.00
    0    6   11      6.06      0.00
    2    6   11      4.79      0.00
    4    6   11      3.71      0.00
    6    6   11      2.36      0.00
    8    6   11      0.79      0.00
   10    6   11      0.92      0.00
   12    6   11      3.10      0.00
   14    6   11      4.79      0.00
   16    6   11      4.11      0.00
   18    6   11      2.24      0.00
   20    6   11      1.45      0.00
   22    6   11      2.38      0.00
   24    6   11      3.61      0.00
   26    6   11      3.36      0.00
  -39    7   11     -0.11      0.00
  -37    7   11      0.50      0.00
  -35    7   11     -1.00      0.00
  -33    7   11     -4.36      0.00
  -31    7   11     -5.58      0.00
  -29    7   11     -2.95      0.00
  -27    7   11      0.93      0.00
  -25    7   11      4.38      0.00
  -23    7   11      8.02      0.00
  -21    7   11     10.57      0.00
  -19    7   11      9.40      0.00
  -17    7   11      5.67      0.00
  -15    7   11      3.39      0.00
  -13    7   11      3.58      0.00
  -11    7   11      4.12      0.00
   -9    7   11      3.88      0.00
   -7    7   11      3.23      0.00
   -5    7   11      2.06      0.00
   -3    7   11      0.23      0.00
   -1    7   11     -1.57      0.00
    1    7   11     -2.90      0.00
    3    7   11     -3.97      0.00
    5    7   11     -4.67      0.00
    7    7   11     -4.75      0.00
    9    7   11     -4.72      0.00
   11    7   11     -4.99      0.00
   13    7   11     -4.82      0.00
   15    7   11     -3.23      0.00
   17    7   11     -0.62      0.00
   19    7   11      1.09      0.00
   21    7   11      0.25      0.00
   23    7   11     -2.26      0.00
   25    7   11     -3.45      0.00
  -38    8   11     -2.11      0.00
  -36    8   11     -3.31      0.00
  -34    8   11     -1.26      0.00
  -32    8   11      1.56      0.00
  -30    8   11      1.67      0.00
  -28    8   11     -0.37      0.00
  -26    8   11     -2.08      0.00
  -24    8   11     -3.49      0.00
  -22    8   11     -5.58      0.00
  -20    8   11     -7.00      0.00
  -18    8   11     -6.08      0.00
  -16    8   11     -4.09      0.00
  -14    8   11     -3.16      0.00
  -12    8   11     -2.90      0.00
  -10    8   11     -1.89      0.00
   -8    8   11     -0.86      0.00
   -6    8   11     -1.21      0.00
   -4    8   11     -2.06      0.00
   -2    8   11     -1.62      0.00
    0    8   11     -0.25      0.00
    2    8   11      0.59      0.00
    4    8   11      1.25      0.00
    6    8   11      2.93      0.00
    8    8   11      4.89      0.00
   10    8   11      5.33      0.00
   12    8   11      4.19      0.00
   14    8   11      2.65      0.00
   16    8   11      1.11      0.00
   18    8   11     -0.41      0.00
   20    8   11     -1.05      0.00
   22    8   11     -0.45      0.00
   24    8   11      0.16      0.00
  -35    9   11      3.32      0.00
  -33    9   11      2.42      0.00
  -31    9   11      1.36      0.00
  -29    9   11      1.04      0.00
  -27    9   11      0.85      0.00
  -25    9   11      0.19      0.00
  -23    9   11     -0.17      0.00
  -21    9   11      0.81      0.00
  -19    9   11      2.44      0.00
  -17    9   11      3.00      0.00
  -15    9   11      2.04      0.00
  -13    9   11      0.33      0.00
  -11    9   11     -1.65      0.00
   -9    9   11     -3.18      0.00
   -7    9   11     -2.70      0.00
   -5    9   11     -0.25      0.00
   -3    9   11      1.40      0.00
   -1    9   11      0.83      0.00
    1    9   11      0.04      0.00
    3    9   11      0.18      0.00
    5    9   11     -0.54      0.00
    7    9   11     -2.58      0.00
    9    9   11     -3.34      0.00
   11    9   11     -1.93      0.00
   13    9   11     -0.88      0.00
   15    9   11     -1.54      0.00
   17    9   11     -2.24      0.00
   19    9   11     -1.72      0.00
   21    9   11     -0.51      0.00
  -32   10   11     -3.15      0.00
  -30   10   11     -2.12      0.00
  -28   10   11     -0.73      0.00
  -26   10   11      0.24      0.00
  -24   10   11      1.16      0.00
  -22   10   11      1.71      0.00
  -20   10   11      0.74      0.00
  -18   10   11     -1.00      0.00
  -16   10   11     -1.06      0.00
  -14   10   11      1.31      0.00
  -12   10   11      4.33      0.00
  -10   10   11      6.12      0.00
   -8   10   11      5.47      0.00
   -6   10   11      2.03      0.00
   -4   10   11     -2.15      0.00
   -2   10   11     -3.71      0.00
    0   10   11     -2.17      0.00
    2   10   11     -0.24      0.00
    4   10   11      0.61      0.00
    6   10   11      1.10      0.00
    8   10   11      1.14      0.00
   10   10   11      0.15      0.00
   12   10   11     -0.46      0.00
   14   10   11      1.04      0.00
   16   10   11      3.34      0.00
   18   10   11      3.77      0.00
  -29   11   11      0.43      0.00
  -27   11   11     -0.94      0.00
  -25   11   11     -1.29      0.00
  -23   11   11     -1.32      0.00
  -21   11   11     -0.88      0.00
  -19   11   11      0.23      0.00
  -17   11   11      0.59      0.00
  -15   11   11     -0.94      0.00
  -13   11   11     -3.09      0.00
  -11   11   11     -4.05      0.00
   -9   11   11     -3.55      0.00
   -7   11   11     -1.42      0.00
   -5   11   11      2.86      0.00
   -3   11   11      7.30      0.00
   -1   11   11      7.97      0.00
    1   11   11      4.36      0.00
    3   11   11      0.52      0.00
    5   11   11     -0.38      0.00
    7   11   11      0.64      0.00
    9   11   11      1.35      0.00
   11   11   11      1.03      0.00
   13   11   11     -0.28      0.00
   15   11   11     -2.19      0.00
  -24   12   11      2.35      0.00
  -22   12   11      1.31      0.00
  -20   12   11      0.02      0.00
  -18   12   11     -0.14      0.00
  -16   12   11      1.09      0.00
  -14   12   11      1.91      0.00
  -12   12   11      0.87      0.00
  -10   12   11     -0.67      0.00
   -8   12   11     -0.98      0.00
   -6   12   11     -1.73      0.00
   -4   12   11     -5.18      0.00
   -2   12   11     -8.87      0.00
    0   12   11     -8.21      0.00
    2   12   11     -3.68      0.00
    4   12   11     -0.35      0.00
    6   12   11     -0.45      0.00
    8   12   11     -1.40      0.00
   10   12   11     -1.12      0.00
  -15   13   11     -2.17      0.00
  -13   13   11     -1.20      0.00
  -11   13   11      1.17      0.00
   -9   13   11      1.95      0.00
   -7   13   11      0.91      0.00
   -5   13   11      1.18      0.00
   -3   13   11      3.99      0.00
   -1   13   11      6.26      0.00
    1   13   11      5.12      0.00
  -46    0   12      1.27      0.00
  -44    0   12      2.78      0.00
  -42    0   12      2.92      0.00
  -40    0   12      2.50      0.00
  -38    0   12      3.16      0.00
  -36    0   12      2.54      0.00
  -34    0   12     -1.81      0.00
  -32    0   12     -6.54      0.00
  -30    0   12     -7.11      0.00
  -28    0   12     -4.47      0.00
  -26    0   12     -1.52      0.00
  -24    0   12      1.86      0.00
  -22    0   12      5.56      0.00
  -20    0   12      6.83      0.00
  -18    0   12      4.80      0.00
  -16    0   12      2.50      0.00
  -14    0   12      3.01      0.00
  -12    0   12      7.08      0.00
  -10    0   12     13.08      0.00
   -6    0   12     10.73      0.00
   -4    0   12     -2.17      0.00
   -2    0   12    -12.79      0.00
    0    0   12    -10.33      0.00
    2    0   12      7.22      0.00
    4    0   12     29.78      0.00
    6    0   12     41.85      0.00
    8    0   12     35.99      0.00
   10    0   12     19.62      0.00
   12    0   12      5.52      0.00
   14    0   12     -0.86      0.00
   16    0   12     -1.09      0.00
   18    0   12      2.65      0.00
   20    0   12      7.28      0.00
   22    0   12      8.46      0.00
   24    0   12      5.95      0.00
   26    0   12      3.74      0.00
   28    0   12      2.86      0.00
   30    0   12      0.92      0.00
  -45    1   12      1.57      0.00
  -43    1   12      0.31      0.00
  -41    1   12     -1.44      0.00
  -39    1   12     -3.04      0.00
  -37    1   12     -3.35      0.00
  -35    1   12     -0.85      0.00
  -33    1   12      3.45      0.00
  -31    1   12      5.94      0.00
  -29    1   12      4.79      0.00
  -27    1   12      1.46      0.00
  -25    1   12     -2.30      0.00
  -23    1   12     -5.62      0.00
  -21    1   12     -6.97      0.00
  -19    1   12     -5.36      0.00
  -17    1   12     -2.64      0.00
  -15    1   12     -2.31      0.00
  -13    1   12     -5.94      0.00
  -11    1   12    -11.80      0.00
   -9    1   12    -15.80      0.00
   -7    1   12    -13.50      0.00
   -5    1   12     -3.83      0.00
   -3    1   12      7.97      0.00
   -1    1   12     12.56      0.00
    1    1   12      3.60      0.00
    3    1   12    -15.43      0.00
    5    1   12    -31.86      0.00
    7    1   12    -34.28      0.00
    9    1   12    -23.32      0.00
   11    1   12     -9.43      0.00
   13    1   12     -0.88      0.00
   15    1   12      1.64      0.00
   17    1   12      0.19      0.00
   19    1   12     -3.67      0.00
   21    1   12     -7.13      0.00
   23    1   12     -7.37      0.00
   25    1   12     -5.03      0.00
   27    1   12     -2.57      0.00
   29    1   12     -0.62      0.00
  -46    2   12     -6.55      0.00
  -44    2   12     -7.95      0.00
  -42    2   12     -4.45      0.00
  -40    2   12      0.69      0.00
  -38    2   12      2.73      0.00
  -36    2   12      1.47      0.00
  -34    2   12     -0.40      0.00
  -32    2   12     -1.78      0.00
  -30    2   12     -2.25      0.00
  -28    2   12     -0.20      0.00
  -26    2   12      4.43      0.00
  -24    2   12      8.55      0.00
  -22    2   12      9.31      0.00
  -20    2   12      6.89      0.00
  -18    2   12      3.57      0.00
  -16    2   12      2.45      0.00
  -14    2   12      5.86      0.00
  -12    2   12     12.22      0.00
  -10    2   12     16.17      0.00
   -8    2   12     13.85      0.00
   -6    2   12      6.27      0.00
   -4    2   12     -2.80      0.00
   -2    2   12     -9.06      0.00
    0    2   12     -8.22      0.00
    2    2   12      0.78      0.00
    4    2   12     12.37      0.00
    6    2   12     18.15      0.00
    8    2   12     15.08      0.00
   10    2   12      7.57      0.00
   12    2   12      1.50      0.00
   14    2   12     -1.09      0.00
   16    2   12     -1.40      0.00
   18    2   12     -0.33      0.00
   20    2   12      2.28      0.00
   22    2   12      5.31      0.00
   24    2   12      5.79      0.00
   26    2   12      2.56      0.00
   28    2   12     -1.36      0.00
   30    2   12     -2.40      0.00
  -45    3   12      8.99      0.00
  -43    3   12      9.07      0.00
  -41    3   12      4.22      0.00
  -39    3   12     -0.12      0.00
  -37    3   12     -0.81      0.00
  -35    3   12     -0.73      0.00
  -33    3   12     -2.02      0.00
  -31    3   12     -2.96      0.00
  -29    3   12     -3.34      0.00
  -27    3   12     -5.65      0.00
  -25    3   12     -9.65      0.00
  -23    3   12    -11.67      0.00
  -21    3   12     -9.95      0.00
  -19    3   12     -6.45      0.00
  -17    3   12     -4.37      0.00
  -15    3   12     -6.04      0.00
  -13    3   12    -11.00      0.00
  -11    3   12    -14.93      0.00
   -9    3   12    -13.43      0.00
   -7    3   12     -7.07      0.00
   -5    3   12     -0.12      0.00
   -3    3   12      4.33      0.00
   -1    3   12      5.76      0.00
    1    3   12      4.77      0.00
    3    3   12      2.66      0.00
    5    3   12      0.96      0.00
    7    3   12      0.29      0.00
    9    3   12      0.44      0.00
   11    3   12      1.00      0.00
   13    3   12      1.40      0.00
   15    3   12      1.46      0.00
   17    3   12      1.64      0.00
   19    3   12      1.48      0.00
   21    3   12     -0.18      0.00
   23    3   12     -2.06      0.00
   25    3   12     -1.13      0.00
   27    3   12      2.07      0.00
   29    3   12      3.36      0.00
  -44    4   12     -5.77      0.00
  -42    4   12     -5.36      0.00
  -40    4   12     -2.62      0.00
  -38    4   12     -0.22      0.00
  -36    4   12      1.03      0.00
  -34    4   12      2.67      0.00
  -32    4   12      4.94      0.00
  -30    4   12      6.34      0.00
  -28    4   12      6.75      0.00
  -26    4   12      7.80      0.00
  -24    4   12      9.52      0.00
  -22    4   12      9.68      0.00
  -20    4   12      7.41      0.00
  -18    4   12      5.05      0.00
  -16    4   12      5.31      0.00
  -14    4   12      7.90      0.00
  -12    4   12     10.01      0.00
  -10    4   12      9.35      0.00
   -8    4   12      5.96      0.00
   -6    4   12      1.83      0.00
   -4    4   12     -0.78      0.00
   -2    4   12     -1.62      0.00
    0    4   12     -3.09      0.00
    2    4   12     -7.07      0.00
    4    4   12    -11.53      0.00
    6    4   12    -12.43      0.00
    8    4   12     -9.18      0.00
   10    4   12     -5.10      0.00
   12    4   12     -2.83      0.00
   14    4   12     -2.08      0.00
   16    4   12     -1.86      0.00
   18    4   12     -2.03      0.00
   20    4   12     -2.49      0.00
   22    4   12     -3.16      0.00
   24    4   12     -4.07      0.00
   26    4   12     -4.44      0.00
   28    4   12     -3.07      0.00
  -43    5   12      2.60      0.00
  -41    5   12      3.30      0.00
  -39    5   12      1.77      0.00
  -37    5   12     -0.34      0.00
  -35    5   12     -1.07      0.00
  -33    5   12     -1.37      0.00
  -31    5   12     -2.71      0.00
  -29    5   12     -4.09      0.00
  -27    5   12     -4.45      0.00
  -25    5   12     -4.90      0.00
  -23    5   12     -5.76      0.00
  -21    5   12     -5.22      0.00
  -19    5   12     -3.24      0.00
  -17    5   12     -2.55      0.00
  -15    5   12     -3.84      0.00
  -13    5   12     -4.49      0.00
  -11    5   12     -3.11      0.00
   -9    5   12     -1.34      0.00
   -7    5   12     -0.75      0.00
   -5    5   12     -1.24      0.00
   -3    5   12     -1.75      0.00
   -1    5   12     -0.20      0.00
    1    5   12      5.11      0.00
    3    5   12     12.12      0.00
    5    5   12     15.73      0.00
    7    5   12     13.61      0.00
    9    5   12      8.55      0.00
   11    5   12      4.47      0.00
   13    5   12      2.57      0.00
   15    5   12      1.70      0.00
   17    5   12      0.85      0.00
   19    5   12      0.84      0.00
   21    5   12      3.27      0.00
   23    5   12      7.23      0.00
   25    5   12      8.69      0.00
   27    5   12      5.58      0.00
  -42    6   12     -2.36      0.00
  -40    6   12     -2.08      0.00
  -38    6   12      0.19      0.00
  -36    6   12      1.31      0.00
  -34    6   12      0.25      0.00
  -32    6   12     -0.53      0.00
  -30    6   12      0.33      0.00
  -28    6   12      1.42      0.00
  -26    6   12      1.97      0.00
  -24    6   12      2.57      0.00
  -22    6   12      2.72      0.00
  -20    6   12      1.56      0.00
  -18    6   12      0.36      0.00
  -16    6   12      0.65      0.00
  -14    6   12      1.19      0.00
  -12    6   12      0.00      0.00
  -10    6   12     -2.04      0.00
   -8    6   12     -2.16      0.00
   -6    6   12      0.57      0.00
   -4    6   12      3.77      0.00
   -2    6   12      3.87      0.00
    0    6   12     -0.37      0.00
    2    6   12     -6.45      0.00
    4    6   12    -10.54      0.00
    6    6   12    -11.01      0.00
    8    6   12     -8.74      0.00
   10    6   12     -5.49      0.00
   12    6   12     -2.89      0.00
   14    6   12     -1.52      0.00
   16    6   12     -0.34      0.00
   18    6   12      0.97      0.00
   20    6   12      0.25      0.00
   22    6   12     -3.77      0.00
   24    6   12     -7.69      0.00
   26    6   12     -7.27      0.00
  -39    7   12     -0.83      0.00
  -37    7   12     -2.45      0.00
  -35    7   12     -2.51      0.00
  -33    7   12     -1.77      0.00
  -31    7   12     -1.28      0.00
  -29    7   12     -1.06      0.00
  -27    7   12     -0.95      0.00
  -25    7   12     -0.80      0.00
  -23    7   12     -0.22      0.00
  -21    7   12      0.74      0.00
  -19    7   12      1.29      0.00
  -17    7   12      0.98      0.00
  -15    7   12      0.36      0.00
  -13    7   12      0.50      0.00
  -11    7   12      1.90      0.00
   -9    7   12      3.23      0.00
   -7    7   12      1.94      0.00
   -5    7   12     -1.99      0.00
   -3    7   12     -4.69      0.00
   -1    7   12     -3.28      0.00
    1    7   12      0.21      0.00
    3    7   12      2.47      0.00
    5    7   12      3.19      0.00
    7    7   12      3.29      0.00
    9    7   12      2.38      0.00
   11    7   12      0.75      0.00
   13    7   12      0.13      0.00
   15    7   12      0.56      0.00
   17    7   12      0.28      0.00
   19    7   12     -0.53      0.00
   21    7   12      0.18      0.00
   23    7   12      2.38      0.00
  -38    8   12      1.17      0.00
  -36    8   12      1.40      0.00
  -34    8   12      2.07      0.00
  -32    8   12      2.18      0.00
  -30    8   12      0.81      0.00
  -28    8   12     -0.79      0.00
  -26    8   12     -1.56      0.00
  -24    8   12     -2.48      0.00
  -22    8   12     -3.87      0.00
  -20    8   12     -4.14      0.00
  -18    8   12     -2.85      0.00
  -16    8   12     -1.55      0.00
  -14    8   12     -1.24      0.00
  -12    8   12     -1.84      0.00
  -10    8   12     -3.15      0.00
   -8    8   12     -3.79      0.00
   -6    8   12     -1.81      0.00
   -4    8   12      1.63      0.00
   -2    8   12      2.96      0.00
    0    8   12      1.66      0.00
    2    8   12      0.70      0.00
    4    8   12      1.34      0.00
    6    8   12      2.28      0.00
    8    8   12      3.07      0.00
   10    8   12      3.90      0.00
   12    8   12      3.49      0.00
   14    8   12      1.04      0.00
   16    8   12     -1.46      0.00
   18    8   12     -1.90      0.00
   20    8   12     -0.87      0.00
   22    8   12     -0.09      0.00
  -35    9   12      0.45      0.00
  -33    9   12     -0.59      0.00
  -31    9   12      0.38      0.00
  -29    9   12      2.75      0.00
  -27    9   12      3.86      0.00
  -25    9   12      3.70      0.00
  -23    9   12      4.04      0.00
  -21    9   12      4.49      0.00
  -19    9   12      3.54      0.00
  -17    9   12      1.87      0.00
  -15    9   12      1.06      0.00
  -13    9   12      1.15      0.00
  -11    9   12      1.78      0.00
   -9    9   12      2.81      0.00
   -7    9   12      2.71      0.00
   -5    9   12     -0.01      0.00
   -3    9   12     -3.32      0.00
   -1    9   12     -3.72      0.00
    1    9   12     -1.60      0.00
    3    9   12     -0.57      0.00
    5    9   12     -2.11      0.00
    7    9   12     -4.34      0.00
    9    9   12     -5.34      0.00
   11    9   12     -4.61      0.00
   13    9   12     -2.21      0.00
   15    9   12      0.86      0.00
   17    9   12      2.57      0.00
   19    9   12      1.90      0.00
  -32   10   12     -0.62      0.00
  -30   10   12     -2.78      0.00
  -28   10   12     -4.70      0.00
  -26   10   12     -4.52      0.00
  -24   10   12     -3.05      0.00
  -22   10   12     -1.95      0.00
  -20   10   12     -1.35      0.00
  -18   10   12     -0.61      0.00
  -16   10   12      0.45      0.00
  -14   10   12      1.79      0.00
  -12   10   12      2.83      0.00
  -10   10   12      2.19      0.00
   -8   10   12      0.22      0.00
   -6   10   12      0.20      0.00
   -4   10   12      3.89      0.00
   -2   10   12      7.37      0.00
    0   10   12      6.09      0.00
    2   10   12      1.99      0.00
    4   10   12      0.48      0.00
    6   10   12      2.18      0.00
    8   10   12      3.23      0.00
   10   10   12      2.04      0.00
   12   10   12      0.38      0.00
   14   10   12     -0.70      0.00
   16   10   12     -1.45      0.00
  -29   11   12      3.69      0.00
  -27   11   12      4.92      0.00
  -25   11   12      4.18      0.00
  -23   11   12      1.88      0.00
  -21   11   12      0.03      0.00
  -19   11   12     -0.31      0.00
  -17   11   12     -0.47      0.00
  -15   11   12     -2.39      0.00
  -13   11   12     -5.55      0.00
  -11   11   12     -6.68      0.00
   -9   11   12     -3.65      0.00
   -7   11   12      0.55      0.00
   -5   11   12      0.49      0.00
   -3   11   12     -4.06      0.00
   -1   11   12     -7.12      0.00
    1   11   12     -5.01      0.00
    3   11   12     -1.35      0.00
    5   11   12     -0.41      0.00
    7   11   12     -0.88      0.00
    9   11   12      0.00      0.00
   11   11   12      1.20      0.00
   13   11   12      0.88      0.00
  -24   12   12     -2.27      0.00
  -22   12   12     -0.55      0.00
  -20   12   12      0.14      0.00
  -18   12   12     -0.47      0.00
  -16   12   12     -0.07      0.00
  -14   12   12      2.50      0.00
  -12   12   12      4.77      0.00
  -10   12   12      3.29      0.00
   -8   12   12     -1.52      0.00
   -6   12   12     -5.02      0.00
   -4   12   12     -3.64      0.00
   -2   12   12      0.67      0.00
    0   12   12      3.11      0.00
    2   12   12      2.05      0.00
    4   12   12     -0.01      0.00
    6   12   12     -0.95      0.00
    8   12   12     -1.17      0.00
  -15   13   12     -0.19      0.00
  -13   13   12     -1.14      0.00
  -11   13   12     -0.65      0.00
   -9   13   12      1.65      0.00
   -7   13   12      4.18      0.00
   -5   13   12      5.06      0.00
   -3   13   12      3.69      0.00
   -1   13   12      1.17      0.00
  -45    1   13     -6.64      0.00
  -43    1   13     -3.95      0.00
  -41    1   13      0.82      0.00
  -39    1   13      2.56      0.00
  -37    1   13      1.24      0.00
  -35    1   13      1.05      0.00
  -33    1   13      2.40      0.00
  -31    1   13      2.13      0.00
  -29    1   13      0.27      0.00
  -27    1   13     -0.40      0.00
  -25    1   13      0.27      0.00
  -23    1   13      0.38      0.00
  -21    1   13     -0.13      0.00
  -19    1   13     -0.45      0.00
  -17    1   13     -0.77      0.00
  -15    1   13     -1.28      0.00
  -13    1   13     -2.09      0.00
  -11    1   13     -4.14      0.00
   -9    1   13     -7.14      0.00
   -7    1   13     -8.14      0.00
   -5    1   13     -5.52      0.00
   -3    1   13     -2.24      0.00
   -1    1   13     -2.54      0.00
    1    1   13     -7.28      0.00
    3    1   13    -13.63      0.00
    5    1   13    -17.42      0.00
    7    1   13    -16.05      0.00
    9    1   13    -10.58      0.00
   11    1   13     -4.55      0.00
   13    1   13     -0.69      0.00
   15    1   13     -0.05      0.00
   17    1   13     -2.31      0.00
   19    1   13     -4.77      0.00
   21    1   13     -4.03      0.00
   23    1   13     -0.75      0.00
   25    1   13      0.95      0.00
   27    1   13      0.03      0.00
   29    1   13     -0.49      0.00
  -46    2   13      6.19      0.00
  -44    2   13      6.29      0.00
  -42    2   13      2.49      0.00
  -40    2   13     -1.23      0.00
  -38    2   13     -1.72      0.00
  -36    2   13     -1.47      0.00
  -34    2   13     -3.15      0.00
  -32    2   13     -4.35      0.00
  -30    2   13     -2.46      0.00
  -28    2   13      0.39      0.00
  -26    2   13      1.26      0.00
  -24    2   13      0.63      0.00
  -22    2   13      0.01      0.00
  -20    2   13     -0.52      0.00
  -18    2   13     -0.70      0.00
  -16    2   13      0.35      0.00
  -14    2   13      2.87      0.00
  -12    2   13      6.69      0.00
  -10    2   13     11.17      0.00
   -8    2   13     13.68      0.00
   -6    2   13     11.27      0.00
   -4    2   13      5.38      0.00
   -2    2   13      2.20      0.00
    0    2   13      6.55      0.00
    2    2   13     16.69      0.00
    4    2   13     25.59      0.00
    6    2   13     27.00      0.00
    8    2   13     20.54      0.00
   10    2   13     10.94      0.00
   12    2   13      3.07      0.00
   14    2   13     -0.61      0.00
   16    2   13      0.45      0.00
   18    2   13      4.25      0.00
   20    2   13      6.30      0.00
   22    2   13      4.20      0.00
   24    2   13      0.84      0.00
   26    2   13     -0.40      0.00
   28    2   13     -0.31      0.00
  -45    3   13     -2.08      0.00
  -43    3   13     -2.23      0.00
  -41    3   13     -1.38      0.00
  -39    3   13      0.33      0.00
  -37    3   13      2.18      0.00
  -35    3   13      3.77      0.00
  -33    3   13      4.78      0.00
  -31    3   13      4.18      0.00
  -29    3   13      1.47      0.00
  -27    3   13     -1.78      0.00
  -25    3   13     -3.28      0.00
  -23    3   13     -2.59      0.00
  -21    3   13     -0.86      0.00
  -19    3   13      0.75      0.00
  -17    3   13      0.89      0.00
  -15    3   13     -1.97      0.00
  -13    3   13     -7.64      0.00
  -11    3   13    -13.40      0.00
   -9    3   13    -15.88      0.00
   -7    3   13    -13.29      0.00
   -5    3   13     -6.73      0.00
   -3    3   13     -0.85      0.00
   -1    3   13     -1.71      0.00
    1    3   13    -10.72      0.00
    3    3   13    -21.73      0.00
    5    3   13    -26.63      0.00
    7    3   13    -22.97      0.00
    9    3   13    -14.41      0.00
   11    3   13     -5.77      0.00
   13    3   13     -0.12      0.00
   15    3   13      1.28      0.00
   17    3   13     -0.71      0.00
   19    3   13     -3.44      0.00
   21    3   13     -4.58      0.00
   23    3   13     -3.64      0.00
   25    3   13     -1.22      0.00
   27    3   13      1.45      0.00
  -44    4   13     -0.27      0.00
  -42    4   13      1.54      0.00
  -40    4   13      1.84      0.00
  -38    4   13     -0.60      0.00
  -36    4   13     -3.05      0.00
  -34    4   13     -3.24      0.00
  -32    4   13     -2.15      0.00
  -30    4   13     -0.76      0.00
  -28    4   13      1.52      0.00
  -26    4   13      4.20      0.00
  -24    4   13      5.48      0.00
  -22    4   13      4.65      0.00
  -20    4   13      2.53      0.00
  -18    4   13      0.69      0.00
  -16    4   13      1.49      0.00
  -14    4   13      6.40      0.00
  -12    4   13     13.03      0.00
  -10    4   13     16.46      0.00
   -8    4   13     13.84      0.00
   -6    4   13      6.52      0.00
   -4    4   13     -0.96      0.00
   -2    4   13     -3.12      0.00
    0    4   13      2.29      0.00
    2    4   13     11.28      0.00
    4    4   13     17.22      0.00
    6    4   13     17.17      0.00
    8    4   13     12.62      0.00
   10    4   13      6.14      0.00
   12    4   13      0.36      0.00
   14    4   13     -2.41      0.00
   16    4   13     -2.20      0.00
   18    4   13     -0.93      0.00
   20    4   13      0.67      0.00
   22    4   13      2.48      0.00
   24    4   13      2.61      0.00
   26    4   13     -0.12      0.00
  -43    5   13     -1.26      0.00
  -41    5   13     -2.56      0.00
  -39    5   13     -1.84      0.00
  -37    5   13      0.50      0.00
  -35    5   13      1.82      0.00
  -33    5   13      1.06      0.00
  -31    5   13     -0.46      0.00
  -29    5   13     -1.70      0.00
  -27    5   13     -3.11      0.00
  -25    5   13     -5.04      0.00
  -23    5   13     -6.42      0.00
  -21    5   13     -5.71      0.00
  -19    5   13     -3.22      0.00
  -17    5   13     -1.71      0.00
  -15    5   13     -3.75      0.00
  -13    5   13     -8.71      0.00
  -11    5   13    -12.99      0.00
   -9    5   13    -12.83      0.00
   -7    5   13     -7.13      0.00
   -5    5   13      1.00      0.00
   -3    5   13      5.85      0.00
   -1    5   13      4.41      0.00
    1    5   13     -0.63      0.00
    3    5   13     -4.87      0.00
    5    5   13     -6.89      0.00
    7    5   13     -6.90      0.00
    9    5   13     -4.30      0.00
   11    5   13      0.25      0.00
   13    5   13      3.68      0.00
   15    5   13      4.31      0.00
   17    5   13      3.68      0.00
   19    5   13      3.00      0.00
   21    5   13      1.59      0.00
   23    5   13     -0.17      0.00
   25    5   13     -0.46      0.00
  -42    6   13      1.15      0.00
  -40    6   13      1.55      0.00
  -38    6   13      1.03      0.00
  -36    6   13     -1.07      0.00
  -34    6   13     -3.15      0.00
  -32    6   13     -3.00      0.00
  -30    6   13     -1.06      0.00
  -28    6   13      0.80      0.00
  -26    6   13      2.76      0.00
  -24    6   13      5.61      0.00
  -22    6   13      7.30      0.00
  -20    6   13      5.59      0.00
  -18    6   13      2.40      0.00
  -16    6   13      1.50      0.00
  -14    6   13      3.53      0.00
  -12    6   13      6.36      0.00
  -10    6   13      7.84      0.00
   -8    6   13      6.20      0.00
   -6    6   13      1.18      0.00
   -4    6   13     -4.18      0.00
   -2    6   13     -6.36      0.00
    0    6   13     -5.78      0.00
    2    6   13     -4.79      0.00
    4    6   13     -3.47      0.00
    6    6   13     -1.36      0.00
    8    6   13     -0.43      0.00
   10    6   13     -2.19      0.00
   12    6   13     -4.60      0.00
   14    6   13     -5.05      0.00
   16    6   13     -3.92      0.00
   18    6   13     -3.01      0.00
   20    6   13     -2.82      0.00
   22    6   13     -2.66      0.00
   24    6   13     -1.84      0.00
  -39    7   13     -1.30      0.00
  -37    7   13     -1.06      0.00
  -35    7   13      2.05      0.00
  -33    7   13      4.57      0.00
  -31    7   13      3.59      0.00
  -29    7   13      0.85      0.00
  -27    7   13     -1.47      0.00
  -25    7   13     -4.15      0.00
  -23    7   13     -7.06      0.00
  -21    7   13     -7.27      0.00
  -19    7   13     -4.18      0.00
  -17    7   13     -1.40      0.00
  -15    7   13     -1.31      0.00
  -13    7   13     -2.46      0.00
  -11    7   13     -3.10      0.00
   -9    7   13     -3.07      0.00
   -7    7   13     -2.15      0.00
   -5    7   13     -0.07      0.00
   -3    7   13      2.43      0.00
   -1    7   13      4.63      0.00
    1    7   13      6.45      0.00
    3    7   13      7.39      0.00
    5    7   13      6.91      0.00
    7    7   13      5.89      0.00
    9    7   13      5.59      0.00
   11    7   13      5.68      0.00
   13    7   13      4.93      0.00
   15    7   13      3.11      0.00
   17    7   13      1.26      0.00
   19    7   13      0.66      0.00
   21    7   13      1.52      0.00
   23    7   13      2.27      0.00
  -38    8   13      2.44      0.00
  -36    8   13      1.40      0.00
  -34    8   13     -1.23      0.00
  -32    8   13     -1.97      0.00
  -30    8   13     -0.43      0.00
  -28    8   13      1.04      0.00
  -26    8   13      1.84      0.00
  -24    8   13      3.08      0.00
  -22    8   13      4.08      0.00
  -20    8   13      3.22      0.00
  -18    8   13      1.34      0.00
  -16    8   13      0.67      0.00
  -14    8   13      1.14      0.00
  -12    8   13      0.90      0.00
  -10    8   13     -0.10      0.00
   -8    8   13     -0.19      0.00
   -6    8   13      0.76      0.00
   -4    8   13      0.83      0.00
   -2    8   13     -0.80      0.00
    0    8   13     -2.77      0.00
    2    8   13     -3.98      0.00
    4    8   13     -4.88      0.00
    6    8   13     -5.64      0.00
    8    8   13     -5.36      0.00
   10    8   13     -3.90      0.00
   12    8   13     -2.44      0.00
   14    8   13     -1.49      0.00
   16    8   13     -0.46      0.00
   18    8   13      0.43      0.00
   20    8   13      0.30      0.00
  -35    9   13     -0.76      0.00
  -33    9   13     -0.16      0.00
  -31    9   13     -0.17      0.00
  -29    9   13     -0.12      0.00
  -27    9   13      0.67      0.00
  -25    9   13      1.83      0.00
  -23    9   13      2.41      0.00
  -21    9   13      2.11      0.00
  -19    9   13      1.41      0.00
  -17    9   13      0.87      0.00
  -15    9   13      0.86      0.00
  -13    9   13      1.92      0.00
  -11    9   13      3.77      0.00
   -9    9   13      4.28      0.00
   -7    9   13      2.09      0.00
   -5    9   13     -0.53      0.00
   -3    9   13     -0.67      0.00
   -1    9   13      0.79      0.00
    1    9   13      1.24      0.00
    3    9   13      0.99      0.00
    5    9   13      1.38      0.00
    7    9   13      1.17      0.00
    9    9   13     -0.86      0.00
   11    9   13     -2.59      0.00
   13    9   13     -1.90      0.00
   15    9   13     -0.27      0.00
   17    9   13      0.22      0.00
   19    9   13     -0.05      0.00
  -32   10   13      1.01      0.00
  -30   10   13     -0.20      0.00
  -28   10   13     -1.51      0.00
  -26   10   13     -2.82      0.00
  -24   10   13     -4.21      0.00
  -22   10   13     -4.62      0.00
  -20   10   13     -3.21      0.00
  -18   10   13     -1.32      0.00
  -16   10   13     -1.08      0.00
  -14   10   13     -2.93      0.00
  -12   10   13     -5.38      0.00
  -10   10   13     -5.97      0.00
   -8   10   13     -3.04      0.00
   -6   10   13      1.78      0.00
   -4   10   13      4.28      0.00
   -2   10   13      2.85      0.00
    0   10   13      0.43      0.00
    2   10   13     -0.12      0.00
    4   10   13      0.65      0.00
    6   10   13      1.66      0.00
    8   10   13      3.19      0.00
   10   10   13      4.38      0.00
   12   10   13      3.26      0.00
   14   10   13      0.43      0.00
  -29   11   13      1.46      0.00
  -27   11   13      2.29      0.00
  -25   11   13      2.42      0.00
  -23   11   13      2.14      0.00
  -21   11   13      1.02      0.00
  -19   11   13     -0.66      0.00
  -17   11   13     -1.36      0.00
  -15   11   13     -0.28      0.00
  -13   11   13      1.54      0.00
  -11   11   13      2.25      0.00
   -9   11   13      0.41      0.00
   -7   11   13     -4.07      0.00
   -5   11   13     -8.59      0.00
   -3   11   13     -9.37      0.00
   -1   11   13     -5.86      0.00
    1   11   13     -1.93      0.00
    3   11   13     -1.07      0.00
    5   11   13     -2.52      0.00
    7   11   13     -3.53      0.00
    9   11   13     -3.00      0.00
   11   11   13     -1.32      0.00
  -22   12   13      1.14      0.00
  -20   12   13      2.31      0.00
  -18   12   13      2.24      0.00
  -16   12   13      1.66      0.00
  -14   12   13      1.63      0.00
  -12   12   13      2.12      0.00
  -10   12   13      2.51      0.00
   -8   12   13      3.52      0.00
   -6   12   13      6.35      0.00
   -4   12   13      9.40      0.00
   -2   12   13      9.12      0.00
    0   12   13      5.28      0.00
    2   12   13      2.09      0.00
    4   12   13      2.22      0.00
    6   12   13      3.35      0.00
  -11   13   13     -2.07      0.00
   -9   13   13     -1.32      0.00
   -7   13   13     -1.02      0.00
  -46    0   14     -0.39      0.00
  -44    0   14      0.39      0.00
  -42    0   14      1.75      0.00
  -40    0   14      1.11      0.00
  -38    0   14     -0.90      0.00
  -36    0   14      0.09      0.00
  -34    0   14      4.45      0.00
  -32    0   14      6.94      0.00
  -30    0   14      4.96      0.00
  -28    0   14      1.59      0.00
  -26    0   14     -0.73      0.00
  -24    0   14     -2.94      0.00
  -22    0   14     -5.39      0.00
  -20    0   14     -7.07      0.00
  -18    0   14     -8.80      0.00
  -16    0   14    -12.77      0.00
  -14    0   14    -19.52      0.00
  -12    0   14    -27.21      0.00
  -10    0   14    -31.97      0.00
   -8    0   14    -29.26      0.00
   -6    0   14    -18.52      0.00
   -4    0   14     -6.54      0.00
   -2    0   14     -2.99      0.00
    0    0   14    -11.56      0.00
    2    0   14    -26.04      0.00
    4    0   14    -34.87      0.00
    6    0   14    -30.60      0.00
    8    0   14    -16.41      0.00
   10    0   14     -1.99      0.00
   12    0   14      6.44      0.00
   14    0   14      9.07      0.00
   16    0   14      7.66      0.00
   18    0   14      3.73      0.00
   20    0   14      0.28      0.00
   22    0   14     -0.64      0.00
   24    0   14     -0.64      0.00
   26    0   14     -1.42      0.00
   28    0   14     -1.60      0.00
  -45    1   14     -2.56      0.00
  -43    1   14     -1.66      0.00
  -41    1   14     -0.04      0.00
  -39    1   14      1.37      0.00
  -37    1   14      0.76      0.00
  -35    1   14     -2.44      0.00
  -33    1   14     -5.61      0.00
  -31    1   14     -5.61      0.00
  -29    1   14     -2.74      0.00
  -27    1   14      0.49      0.00
  -25    1   14      2.95      0.00
  -23    1   14      4.80      0.00
  -21    1   14      5.80      0.00
  -19    1   14      6.39      0.00
  -17    1   14      8.63      0.00
  -15    1   14     14.17      0.00
  -13    1   14     21.89      0.00
  -11    1   14     28.18      0.00
   -9    1   14     28.81      0.00
   -7    1   14     21.84      0.00
   -5    1   14     10.52      0.00
   -3    1   14      2.72      0.00
   -1    1   14      5.04      0.00
    1    1   14     16.25      0.00
    3    1   14     27.39      0.00
    5    1   14     29.20      0.00
    7    1   14     20.39      0.00
    9    1   14      7.64      0.00
   11    1   14     -1.98      0.00
   13    1   14     -6.57      0.00
   15    1   14     -7.38      0.00
   17    1   14     -5.35      0.00
   19    1   14     -1.79      0.00
   21    1   14      0.97      0.00
   23    1   14      1.82      0.00
   25    1   14      1.61      0.00
   27    1   14      1.09      0.00
  -46    2   14      7.88      0.00
  -44    2   14      6.26      0.00
  -42    2   14      0.78      0.00
  -40    2   14     -2.57      0.00
  -38    2   14     -0.99      0.00
  -36    2   14      2.22      0.00
  -34    2   14      3.73      0.00
  -32    2   14      3.62      0.00
  -30    2   14      2.42      0.00
  -28    2   14     -0.33      0.00
  -26    2   14     -3.82      0.00
  -24    2   14     -5.93      0.00
  -22    2   14     -5.82      0.00
  -20    2   14     -4.60      0.00
  -18    2   14     -4.44      0.00
  -16    2   14     -7.59      0.00
  -14    2   14    -14.14      0.00
  -12    2   14    -20.52      0.00
  -10    2   14    -22.24      0.00
   -8    2   14    -17.91      0.00
   -6    2   14     -9.86      0.00
   -4    2   14     -2.57      0.00
   -2    2   14     -0.71      0.00
    0    2   14     -5.72      0.00
    2    2   14    -13.26      0.00
    4    2   14    -16.87      0.00
    6    2   14    -14.24      0.00
    8    2   14     -8.25      0.00
   10    2   14     -2.66      0.00
   12    2   14      0.98      0.00
   14    2   14      2.83      0.00
   16    2   14      3.32      0.00
   18    2   14      2.26      0.00
   20    2   14     -0.35      0.00
   22    2   14     -2.80      0.00
   24    2   14     -2.63      0.00
   26    2   14     -0.16      0.00
  -45    3   14     -9.30      0.00
  -43    3   14     -5.31      0.00
  -41    3   14      0.39      0.00
  -39    3   14      1.25      0.00
  -37    3   14     -1.45      0.00
  -35    3   14     -2.02      0.00
  -33    3   14      0.13      0.00
  -31    3   14      1.58      0.00
  -29    3   14      2.04      0.00
  -27    3   14      3.66      0.00
  -25    3   14      5.92      0.00
  -23    3   14      6.36      0.00
  -21    3   14      4.60      0.00
  -19    3   14      2.74      0.00
  -17    3   14      3.25      0.00
  -15    3   14      6.96      0.00
  -13    3   14     11.75      0.00
  -11    3   14     13.70      0.00
   -9    3   14     10.84      0.00
   -7    3   14      5.05      0.00
   -5    3   14      0.00      0.00
   -3    3   14     -1.82      0.00
   -1    3   14     -0.56      0.00
    1    3   14      1.42      0.00
    3    3   14      2.13      0.00
    5    3   14      1.96      0.00
    7    3   14      2.11      0.00
    9    3   14      2.37      0.00
   11    3   14      2.00      0.00
   13    3   14      1.31      0.00
   15    3   14      0.67      0.00
   17    3   14      0.15      0.00
   19    3   14      0.47      0.00
   21    3   14      1.66      0.00
   23    3   14      1.60      0.00
   25    3   14     -0.87      0.00
   27    3   14     -3.01      0.00
  -44    4   14      5.53      0.00
  -42    4   14      2.58      0.00
  -40    4   14     -0.50      0.00
  -38    4   14     -0.96      0.00
  -36    4   14     -0.82      0.00
  -34    4   14     -2.81      0.00
  -32    4   14     -5.45      0.00
  -30    4   14     -5.80      0.00
  -28    4   14     -4.55      0.00
  -26    4   14     -4.25      0.00
  -24    4   14     -4.63      0.00
  -22    4   14     -3.57      0.00
  -20    4   14     -1.36      0.00
  -18    4   14     -0.49      0.00
  -16    4   14     -1.92      0.00
  -14    4   14     -4.11      0.00
  -12    4   14     -5.11      0.00
  -10    4   14     -3.86      0.00
   -8    4   14     -0.68      0.00
   -6    4   14      2.34      0.00
   -4    4   14      3.07      0.00
   -2    4   14      2.55      0.00
    0    4   14      3.88      0.00
    2    4   14      7.10      0.00
    4    4   14      8.43      0.00
    6    4   14      5.80      0.00
    8    4   14      1.71      0.00
   10    4   14     -0.67      0.00
   12    4   14     -1.24      0.00
   14    4   14     -1.41      0.00
   16    4   14     -1.64      0.00
   18    4   14     -1.70      0.00
   20    4   14     -1.07      0.00
   22    4   14      0.74      0.00
   24    4   14      2.97      0.00
   26    4   14      3.57      0.00
  -43    5   14     -3.04      0.00
  -41    5   14     -1.55      0.00
  -39    5   14      0.95      0.00
  -37    5   14      2.09      0.00
  -35    5   14      2.35      0.00
  -33    5   14      3.59      0.00
  -31    5   14      4.97      0.00
  -29    5   14      4.49      0.00
  -27    5   14      3.10      0.00
  -25    5   14      2.69      0.00
  -23    5   14      2.25      0.00
  -21    5   14      0.34      0.00
  -19    5   14     -1.45      0.00
  -17    5   14     -1.42      0.00
  -15    5   14     -0.88      0.00
  -13    5   14     -1.54      0.00
  -11    5   14     -2.86      0.00
   -9    5   14     -3.73      0.00
   -7    5   14     -3.72      0.00
   -5    5   14     -2.59      0.00
   -3    5   14     -1.72      0.00
   -1    5   14     -3.97      0.00
    1    5   14     -9.15      0.00
    3    5   14    -12.52      0.00
    5    5   14    -10.73      0.00
    7    5   14     -5.97      0.00
    9    5   14     -2.13      0.00
   11    5   14     -0.38      0.00
   13    5   14      0.34      0.00
   15    5   14      1.25      0.00
   17    5   14      2.44      0.00
   19    5   14      2.18      0.00
   21    5   14     -0.98      0.00
   23    5   14     -4.72      0.00
   25    5   14     -4.99      0.00
  -42    6   14      2.58      0.00
  -40    6   14      0.73      0.00
  -38    6   14     -1.14      0.00
  -36    6   14     -1.09      0.00
  -34    6   14     -0.52      0.00
  -32    6   14     -1.07      0.00
  -30    6   14     -1.87      0.00
  -28    6   14     -2.01      0.00
  -26    6   14     -2.21      0.00
  -24    6   14     -2.39      0.00
  -22    6   14     -1.26      0.00
  -20    6   14      0.78      0.00
  -18    6   14      1.87      0.00
  -16    6   14      2.00      0.00
  -14    6   14      2.92      0.00
  -12    6   14      4.97      0.00
  -10    6   14      6.30      0.00
   -8    6   14      5.06      0.00
   -6    6   14      1.54      0.00
   -4    6   14     -1.19      0.00
   -2    6   14      0.23      0.00
    0    6   14      5.32      0.00
    2    6   14      9.66      0.00
    4    6   14     10.10      0.00
    6    6   14      7.51      0.00
    8    6   14      4.18      0.00
   10    6   14      1.45      0.00
   12    6   14     -0.18      0.00
   14    6   14     -1.25      0.00
   16    6   14     -2.79      0.00
   18    6   14     -3.69      0.00
   20    6   14     -1.39      0.00
   22    6   14      3.12      0.00
  -39    7   14      0.27      0.00
  -37    7   14      0.48      0.00
  -35    7   14      0.12      0.00
  -33    7   14     -0.04      0.00
  -31    7   14     -0.04      0.00
  -29    7   14      0.17      0.00
  -27    7   14      0.86      0.00
  -25    7   14      1.43      0.00
  -23    7   14      0.98      0.00
  -21    7   14     -0.15      0.00
  -19    7   14     -0.85      0.00
  -17    7   14     -0.84      0.00
  -15    7   14     -0.87      0.00
  -13    7   14     -2.04      0.00
  -11    7   14     -4.12      0.00
   -9    7   14     -4.62      0.00
   -7    7   14     -1.43      0.00
   -5    7   14      3.04      0.00
   -3    7   14      3.99      0.00
   -1    7   14      0.71      0.00
    1    7   14     -2.84      0.00
    3    7   14     -3.95      0.00
    5    7   14     -3.23      0.00
    7    7   14     -1.54      0.00
    9    7   14      0.76      0.00
   11    7   14      2.34      0.00
   13    7   14      2.58      0.00
   15    7   14      2.90      0.00
   17    7   14      3.71      0.00
   19    7   14      2.94      0.00
   21    7   14     -0.07      0.00
  -38    8   14      0.91      0.00
  -36    8   14      0.86      0.00
  -34    8   14      0.51      0.00
  -32    8   14      1.21      0.00
  -30    8   14      2.38      0.00
  -28    8   14      2.33      0.00
  -26    8   14      1.54      0.00
  -24    8   14      1.62      0.00
  -22    8   14      2.11      0.00
  -20    8   14      1.69      0.00
  -18    8   14      0.61      0.00
  -16    8   14     -0.13      0.00
  -14    8   14      0.06      0.00
  -12    8   14      1.53      0.00
  -10    8   14      3.13      0.00
   -8    8   14      2.01      0.00
   -6    8   14     -2.09      0.00
   -4    8   14     -4.93      0.00
   -2    8   14     -3.66      0.00
    0    8   14     -0.98      0.00
    2    8   14     -0.52      0.00
    4    8   14     -2.18      0.00
    6    8   14     -4.31      0.00
    8    8   14     -6.16      0.00
   10    8   14     -6.74      0.00
   12    8   14     -5.29      0.00
   14    8   14     -3.32      0.00
   16    8   14     -2.58      0.00
   18    8   14     -2.28      0.00
   20    8   14     -1.02      0.00
  -35    9   14     -0.98      0.00
  -33    9   14     -1.40      0.00
  -31    9   14     -3.35      0.00
  -29    9   14     -4.31      0.00
  -27    9   14     -3.17      0.00
  -25    9   14     -1.97      0.00
  -23    9   14     -1.89      0.00
  -21    9   14     -1.64      0.00
  -19    9   14     -0.45      0.00
  -17    9   14      0.71      0.00
  -15    9   14      0.96      0.00
  -13    9   14      0.16      0.00
  -11    9   14     -1.23      0.00
   -9    9   14     -1.37      0.00
   -7    9   14      1.43      0.00
   -5    9   14      5.11      0.00
   -3    9   14      5.43      0.00
   -1    9   14      2.11      0.00
    1    9   14     -0.27      0.00
    3    9   14      1.42      0.00
    5    9   14      5.25      0.00
    7    9   14      7.68      0.00
    9    9   14      7.32      0.00
   11    9   14      4.96      0.00
   13    9   14      2.27      0.00
   15    9   14      0.81      0.00
   17    9   14      0.75      0.00
  -32   10   14      1.64      0.00
  -30   10   14      3.27      0.00
  -28   10   14      2.82      0.00
  -26   10   14      0.52      0.00
  -24   10   14     -1.46      0.00
  -22   10   14     -2.02      0.00
  -20   10   14     -1.95      0.00
  -18   10   14     -2.27      0.00
  -16   10   14     -3.13      0.00
  -14   10   14     -3.79      0.00
  -12   10   14     -3.25      0.00
  -10   10   14     -1.85      0.00
   -8   10   14     -1.96      0.00
   -6   10   14     -4.85      0.00
   -4   10   14     -7.38      0.00
   -2   10   14     -5.42      0.00
    0   10   14     -0.60      0.00
    2   10   14      1.18      0.00
    4   10   14     -1.75      0.00
    6   10   14     -4.64      0.00
    8   10   14     -3.68      0.00
   10   10   14     -0.56      0.00
   12   10   14      1.50      0.00
   14   10   14      1.85      0.00
  -27   11   14     -0.90      0.00
  -25   11   14      1.82      0.00
  -23   11   14      4.04      0.00
  -21   11   14      3.98      0.00
  -19   11   14      2.64      0.00
  -17   11   14      2.62      0.00
  -15   11   14      4.64      0.00
  -13   11   14      6.21      0.00
  -11   11   14      4.68      0.00
   -9   11   14      1.33      0.00
   -7   11   14      0.47      0.00
   -5   11   14      3.30      0.00
   -3   11   14      5.49      0.00
   -1   11   14      3.38      0.00
    1   11   14     -0.07      0.00
    3   11   14     -0.11      0.00
    5   11   14      2.07      0.00
    7   11   14      1.79      0.00
    9   11   14     -1.21      0.00
  -22   12   14     -2.93      0.00
  -20   12   14     -1.46      0.00
  -18   12   14      0.39      0.00
  -16   12   14     -0.17      0.00
  -14   12   14     -2.46      0.00
  -12   12   14     -2.69      0.00
  -10   12   14      0.73      0.00
   -8   12   14      4.43      0.00
   -6   12   14      4.18      0.00
   -4   12   14      0.68      0.00
   -2   12   14     -1.63      0.00
    0   12   14     -0.92      0.00
    2   12   14      0.25      0.00
    4   12   14     -0.15      0.00
  -45    1   15      2.10      0.00
  -43    1   15     -2.54      0.00
  -41    1   15     -5.05      0.00
  -39    1   15     -2.97      0.00
  -37    1   15     -0.37      0.00
  -35    1   15     -0.75      0.00
  -33    1   15     -1.64      0.00
  -31    1   15     -0.15      0.00
  -29    1   15      1.88      0.00
  -27    1   15      2.12      0.00
  -25    1   15      1.61      0.00
  -23    1   15      1.87      0.00
  -21    1   15      2.45      0.00
  -19    1   15      2.98      0.00
  -17    1   15      4.08      0.00
  -15    1   15      6.00      0.00
  -13    1   15      8.40      0.00
  -11    1   15     10.52      0.00
   -9    1   15     10.79      0.00
   -7    1   15      8.26      0.00
   -5    1   15      4.72      0.00
   -3    1   15      3.12      0.00
   -1    1   15      4.41      0.00
    1    1   15      7.30      0.00
    3    1   15      9.74      0.00
    5    1   15      9.62      0.00
    7    1   15      5.94      0.00
    9    1   15      0.37      0.00
   11    1   15     -4.00      0.00
   13    1   15     -5.27      0.00
   15    1   15     -3.75      0.00
   17    1   15     -1.52      0.00
   19    1   15     -1.08      0.00
   21    1   15     -2.54      0.00
   23    1   15     -3.17      0.00
   25    1   15     -1.52      0.00
  -46    2   15     -3.98      0.00
  -44    2   15     -1.01      0.00
  -42    2   15      2.88      0.00
  -40    2   15      3.51      0.00
  -38    2   15      1.71      0.00
  -36    2   15      1.75      0.00
  -34    2   15      3.56      0.00
  -32    2   15      3.08      0.00
  -30    2   15     -0.28      0.00
  -28    2   15     -2.91      0.00
  -26    2   15     -3.24      0.00
  -24    2   15     -2.94      0.00
  -22    2   15     -2.99      0.00
  -20    2   15     -3.12      0.00
  -18    2   15     -4.15      0.00
  -16    2   15     -7.29      0.00
  -14    2   15    -12.07      0.00
  -12    2   15    -16.57      0.00
  -10    2   15    -18.52      0.00
   -8    2   15    -16.29      0.00
   -6    2   15    -10.80      0.00
   -4    2   15     -6.17      0.00
   -2    2   15     -6.20      0.00
    0    2   15    -10.58      0.00
    2    2   15    -15.43      0.00
    4    2   15    -16.71      0.00
    6    2   15    -12.87      0.00
    8    2   15     -5.32      0.00
   10    2   15      2.52      0.00
   12    2   15      7.24      0.00
   14    2   15      7.38      0.00
   16    2   15      4.57      0.00
   18    2   15      2.28      0.00
   20    2   15      2.25      0.00
   22    2   15      2.60      0.00
   24    2   15      1.20      0.00
   26    2   15     -0.70      0.00
  -45    3   15      1.39      0.00
  -43    3   15      1.01      0.00
  -41    3   15     -0.21      0.00
  -39    3   15     -2.19      0.00
  -37    3   15     -4.30      0.00
  -35    3   15     -5.86      0.00
  -33    3   15     -5.88      0.00
  -31    3   15     -3.53      0.00
  -29    3   15      0.21      0.00
  -27    3   15      3.06      0.00
  -25    3   15      4.01      0.00
  -23    3   15      3.70      0.00
  -21    3   15      2.81      0.00
  -19    3   15      2.43      0.00
  -17    3   15      4.69      0.00
  -15    3   15     10.40      0.00
  -13    3   15     16.91      0.00
  -11    3   15     20.41      0.00
   -9    3   15     19.04      0.00
   -7    3   15     13.58      0.00
   -5    3   15      7.34      0.00
   -3    3   15      5.22      0.00
   -1    3   15      9.33      0.00
    1    3   15     15.75      0.00
    3    3   15     18.54      0.00
    5    3   15     15.88      0.00
    7    3   15      9.77      0.00
    9    3   15      2.45      0.00
   11    3   15     -3.81      0.00
   13    3   15     -6.43      0.00
   15    3   15     -5.20      0.00
   17    3   15     -3.03      0.00
   19    3   15     -1.83      0.00
   21    3   15     -0.66      0.00
   23    3   15      1.02      0.00
   25    3   15      1.78      0.00
  -44    4   15     -0.93      0.00
  -42    4   15     -2.09      0.00
  -40    4   15      0.03      0.00
  -38    4   15      4.10      0.00
  -36    4   15      6.19      0.00
  -34    4   15      5.43      0.00
  -32    4   15      3.66      0.00
  -30    4   15      1.66      0.00
  -28    4   15     -0.83      0.00
  -26    4   15     -3.06      0.00
  -24    4   15     -3.83      0.00
  -22    4   15     -2.90      0.00
  -20    4   15     -1.41      0.00
  -18    4   15     -1.83      0.00
  -16    4   15     -6.15      0.00
  -14    4   15    -13.04      0.00
  -12    4   15    -18.23      0.00
  -10    4   15    -18.40      0.00
   -8    4   15    -13.44      0.00
   -6    4   15     -6.32      0.00
   -4    4   15     -2.19      0.00
   -2    4   15     -4.61      0.00
    0    4   15    -10.99      0.00
    2    4   15    -15.02      0.00
    4    4   15    -14.10      0.00
    6    4   15    -10.29      0.00
    8    4   15     -5.22      0.00
   10    4   15      0.39      0.00
   12    4   15      4.09      0.00
   14    4   15      4.09      0.00
   16    4   15      2.47      0.00
   18    4   15      1.48      0.00
   20    4   15      0.17      0.00
   22    4   15     -1.94      0.00
   24    4   15     -2.63      0.00
  -43    5   15      1.90      0.00
  -41    5   15      1.93      0.00
  -39    5   15     -0.54      0.00
  -37    5   15     -3.04      0.00
  -35    5   15     -3.10      0.00
  -33    5   15     -1.60      0.00
  -31    5   15     -0.68      0.00
  -29    5   15     -0.41      0.00
  -27    5   15      0.49      0.00
  -25    5   15      1.85      0.00
  -23    5   15      1.95      0.00
  -21    5   15      0.38      0.00
  -19    5   15     -0.55      0.00
  -17    5   15      1.61      0.00
  -15    5   15      6.60      0.00
  -13    5   15     11.87      0.00
  -11    5   15     14.46      0.00
   -9    5   15     12.24      0.00
   -7    5   15      5.76      0.00
   -5    5   15     -0.33      0.00
   -3    5   15     -0.97      0.00
   -1    5   15      3.32      0.00
    1    5   15      7.47      0.00
    3    5   15      8.67      0.00
    5    5   15      7.81      0.00
    7    5   15      5.27      0.00
    9    5   15      0.75      0.00
   11    5   15     -3.49      0.00
   13    5   15     -4.58      0.00
   15    5   15     -3.25      0.00
   17    5   15     -1.99      0.00
   19    5   15     -0.91      0.00
   21    5   15      0.78      0.00
   23    5   15      1.95      0.00
  -42    6   15     -1.02      0.00
  -40    6   15     -1.15      0.00
  -38    6   15     -0.06      0.00
  -36    6   15      1.52      0.00
  -34    6   15      1.95      0.00
  -32    6   15      1.35      0.00
  -30    6   15      1.21      0.00
  -28    6   15      1.27      0.00
  -26    6   15      0.14      0.00
  -24    6   15     -1.14      0.00
  -22    6   15     -0.32      0.00
  -20    6   15      1.67      0.00
  -18    6   15      1.78      0.00
  -16    6   15     -0.53      0.00
  -14    6   15     -3.51      0.00
  -12    6   15     -6.11      0.00
  -10    6   15     -7.04      0.00
   -8    6   15     -4.34      0.00
   -6    6   15      0.91      0.00
   -4    6   15      4.25      0.00
   -2    6   15      3.62      0.00
    0    6   15      1.29      0.00
    2    6   15     -0.71      0.00
    4    6   15     -2.28      0.00
    6    6   15     -2.45      0.00
    8    6   15      0.00      0.00
   10    6   15      3.39      0.00
   12    6   15      4.88      0.00
   14    6   15      4.20      0.00
   16    6   15      2.91      0.00
   18    6   15      1.67      0.00
   20    6   15      0.57      0.00
   22    6   15     -0.16      0.00
  -39    7   15      1.47      0.00
  -37    7   15      0.16      0.00
  -35    7   15     -1.97      0.00
  -33    7   15     -2.43      0.00
  -31    7   15     -1.71      0.00
  -29    7   15     -1.34      0.00
  -27    7   15     -0.61      0.00
  -25    7   15      1.05      0.00
  -23    7   15      1.45      0.00
  -21    7   15     -0.52      0.00
  -19    7   15     -2.39      0.00
  -17    7   15     -2.07      0.00
  -15    7   15     -0.77      0.00
  -13    7   15      0.21      0.00
  -11    7   15      1.07      0.00
   -9    7   15      1.27      0.00
   -7    7   15     -0.34      0.00
   -5    7   15     -3.00      0.00
   -3    7   15     -4.83      0.00
   -1    7   15     -5.27      0.00
    1    7   15     -4.66      0.00
    3    7   15     -3.39      0.00
    5    7   15     -2.53      0.00
    7    7   15     -3.02      0.00
    9    7   15     -4.01      0.00
   11    7   15     -4.09      0.00
   13    7   15     -3.33      0.00
   15    7   15     -2.40      0.00
   17    7   15     -1.38      0.00
   19    7   15     -0.64      0.00
  -38    8   15     -1.29      0.00
  -36    8   15      0.54      0.00
  -34    8   15      1.61      0.00
  -32    8   15      1.08      0.00
  -30    8   15      0.58      0.00
  -28    8   15      0.75      0.00
  -26    8   15      0.55      0.00
  -24    8   15      0.18      0.00
  -22    8   15      0.98      0.00
  -20    8   15      2.46      0.00
  -18    8   15      2.71      0.00
  -16    8   15      1.57      0.00
  -14    8   15      0.75      0.00
  -12    8   15      0.90      0.00
  -10    8   15      0.91      0.00
   -8    8   15      0.24      0.00
   -6    8   15      0.02      0.00
   -4    8   15      1.11      0.00
   -2    8   15      2.64      0.00
    0    8   15      3.28      0.00
    2    8   15      3.20      0.00
    4    8   15      3.34      0.00
    6    8   15      3.36      0.00
    8    8   15      2.37      0.00
   10    8   15      0.89      0.00
   12    8   15      0.21      0.00
   14    8   15      0.29      0.00
   16    8   15      0.26      0.00
   18    8   15      0.22      0.00
  -35    9   15     -0.95      0.00
  -33    9   15     -0.74      0.00
  -31    9   15     -0.56      0.00
  -29    9   15     -1.21      0.00
  -27    9   15     -2.55      0.00
  -25    9   15     -3.94      0.00
  -23    9   15     -4.86      0.00
  -21    9   15     -4.98      0.00
  -19    9   15     -4.21      0.00
  -17    9   15     -2.89      0.00
  -15    9   15     -2.01      0.00
  -13    9   15     -2.31      0.00
  -11    9   15     -2.70      0.00
   -9    9   15     -1.28      0.00
   -7    9   15      1.41      0.00
   -5    9   15      2.52      0.00
   -3    9   15      1.22      0.00
   -1    9   15     -0.22      0.00
    1    9   15     -0.45      0.00
    3    9   15     -0.32      0.00
    5    9   15      0.26      0.00
    7    9   15      2.41      0.00
    9    9   15      4.82      0.00
   11    9   15      4.91      0.00
   13    9   15      2.96      0.00
   15    9   15      1.33      0.00
  -32   10   15      0.11      0.00
  -30   10   15      0.91      0.00
  -28   10   15      2.06      0.00
  -26   10   15      3.91      0.00
  -24   10   15      5.84      0.00
  -22   10   15      6.30      0.00
  -20   10   15      4.91      0.00
  -18   10   15      3.12      0.00
  -16   10   15      2.48      0.00
  -14   10   15      3.16      0.00
  -12   10   15      3.59      0.00
  -10   10   15      1.58      0.00
   -8   10   15     -2.90      0.00
   -6   10   15     -6.37      0.00
   -4   10   15     -5.59      0.00
   -2   10   15     -1.97      0.00
    0   10   15      0.55      0.00
    2   10   15      0.42      0.00
    4   10   15     -1.48      0.00
    6   10   15     -4.31      0.00
    8   10   15     -6.77      0.00
   10   10   15     -6.75      0.00
   12   10   15     -4.22      0.00
  -27   11   15     -1.37      0.00
  -25   11   15     -2.18      0.00
  -23   11   15     -2.85      0.00
  -21   11   15     -2.39      0.00
  -19   11   15     -0.98      0.00
  -17   11   15      0.05      0.00
  -15   11   15     -0.10      0.00
  -13   11   15     -0.53      0.00
  -11   11   15      0.74      0.00
   -9   11   15      4.72      0.00
   -7   11   15      9.36      0.00
   -5   11   15     10.49      0.00
   -3   11   15      6.40      0.00
   -1   11   15      0.57      0.00
    1   11   15     -1.96      0.00
    3   11   15     -0.09      0.00
    5   11   15      3.21      0.00
    7   11   15      4.86      0.00
  -20   12   15     -0.72      0.00
  -18   12   15     -0.86      0.00
  -16   12   15     -1.58      0.00
  -14   12   15     -2.37      0.00
  -12   12   15     -3.00      0.00
  -10   12   15     -4.26      0.00
   -8   12   15     -6.89      0.00
   -6   12   15     -9.39      0.00
   -4   12   15     -8.54      0.00
   -2   12   15     -3.84      0.00
    0   12   15      0.53      0.00
  -46    0   16     -6.45      0.00
  -44    0   16     -9.09      0.00
  -42    0   16     -8.78      0.00
  -40    0   16     -4.80      0.00
  -38    0   16     -1.39      0.00
  -36    0   16     -2.23      0.00
  -34    0   16     -4.51      0.00
  -32    0   16     -3.82      0.00
  -30    0   16     -1.22      0.00
  -28    0   16      0.13      0.00
  -26    0   16      1.02      0.00
  -24    0   16      3.56      0.00
  -22    0   16      6.56      0.00
  -20    0   16      8.32      0.00
  -18    0   16     10.55      0.00
  -16    0   16     16.00      0.00
  -14    0   16     24.25      0.00
  -12    0   16     31.06      0.00
  -10    0   16     31.07      0.00
   -8    0   16     22.49      0.00
   -6    0   16     10.35      0.00
   -4    0   16      3.09      0.00
   -2    0   16      4.85      0.00
    0    0   16     12.29      0.00
    2    0   16     18.50      0.00
    4    0   16     17.98      0.00
    6    0   16      9.74      0.00
    8    0   16     -2.10      0.00
   10    0   16    -11.40      0.00
   12    0   16    -15.03      0.00
   14    0   16    -14.05      0.00
   16    0   16    -11.25      0.00
   18    0   16     -8.94      0.00
   20    0   16     -7.80      0.00
   22    0   16     -6.47      0.00
   24    0   16     -3.69      0.00
  -45    1   16      6.43      0.00
  -43    1   16      5.58      0.00
  -41    1   16      3.30      0.00
  -39    1   16      1.54      0.00
  -37    1   16      2.07      0.00
  -35    1   16      4.03      0.00
  -33    1   16      4.64      0.00
  -31    1   16      3.07      0.00
  -29    1   16      1.19      0.00
  -27    1   16     -0.06      0.00
  -25    1   16     -1.76      0.00
  -23    1   16     -4.03      0.00
  -21    1   16     -5.57      0.00
  -19    1   16     -6.83      0.00
  -17    1   16    -10.43      0.00
  -15    1   16    -17.44      0.00
  -13    1   16    -25.04      0.00
  -11    1   16    -28.34      0.00
   -9    1   16    -24.19      0.00
   -7    1   16    -14.35      0.00
   -5    1   16     -5.34      0.00
   -3    1   16     -3.27      0.00
   -1    1   16     -8.31      0.00
    1    1   16    -14.86      0.00
    3    1   16    -16.96      0.00
    5    1   16    -12.55      0.00
    7    1   16     -3.77      0.00
    9    1   16      5.26      0.00
   11    1   16     11.09      0.00
   13    1   16     12.67      0.00
   15    1   16     11.20      0.00
   17    1   16      8.64      0.00
   19    1   16      6.33      0.00
   21    1   16      4.45      0.00
   23    1   16      2.57      0.00
   25    1   16      0.83      0.00
  -46    2   16     -5.71      0.00
  -44    2   16     -2.28      0.00
  -42    2   16      1.45      0.00
  -40    2   16      0.64      0.00
  -38    2   16     -3.04      0.00
  -36    2   16     -4.98      0.00
  -34    2   16     -4.49      0.00
  -32    2   16     -3.68      0.00
  -30    2   16     -2.95      0.00
  -28    2   16     -1.39      0.00
  -26    2   16      0.63      0.00
  -24    2   16      1.85      0.00
  -22    2   16      1.83      0.00
  -20    2   16      1.54      0.00
  -18    2   16      3.09      0.00
  -16    2   16      7.91      0.00
  -14    2   16     14.31      0.00
  -12    2   16     18.28      0.00
  -10    2   16     17.15      0.00
   -8    2   16     11.69      0.00
   -6    2   16      5.41      0.00
   -4    2   16      2.63      0.00
   -2    2   16      5.09      0.00
    0    2   16      9.68      0.00
    2    2   16     11.59      0.00
    4    2   16      9.57      0.00
    6    2   16      5.77      0.00
    8    2   16      1.70      0.00
   10    2   16     -2.42      0.00
   12    2   16     -5.58      0.00
   14    2   16     -6.52      0.00
   16    2   16     -5.34      0.00
   18    2   16     -2.93      0.00
   20    2   16     -0.20      0.00
   22    2   16      1.40      0.00
   24    2   16      0.97      0.00
  -45    3   16      3.76      0.00
  -43    3   16     -0.75      0.00
  -41    3   16     -1.58      0.00
  -39    3   16      2.62      0.00
  -37    3   16      5.53      0.00
  -35    3   16      3.69      0.00
  -33    3   16      1.05      0.00
  -31    3   16      0.93      0.00
  -29    3   16      1.27      0.00
  -27    3   16      0.03      0.00
  -25    3   16     -0.98      0.00
  -23    3   16      0.13      0.00
  -21    3   16      2.09      0.00
  -19    3   16      2.37      0.00
  -17    3   16     -0.13      0.00
  -15    3   16     -4.29      0.00
  -13    3   16     -7.50      0.00
  -11    3   16     -7.58      0.00
   -9    3   16     -4.71      0.00
   -7    3   16     -1.40      0.00
   -5    3   16     -0.43      0.00
   -3    3   16     -2.35      0.00
   -1    3   16     -4.77      0.00
    1    3   16     -5.06      0.00
    3    3   16     -3.66      0.00
    5    3   16     -2.99      0.00
    7    3   16     -3.41      0.00
    9    3   16     -3.02      0.00
   11    3   16     -1.30      0.00
   13    3   16      0.13      0.00
   15    3   16      0.04      0.00
   17    3   16     -1.36      0.00
   19    3   16     -3.14      0.00
   21    3   16     -3.62      0.00
   23    3   16     -1.66      0.00
  -44    4   16     -1.82      0.00
  -42    4   16     -0.22      0.00
  -40    4   16     -1.30      0.00
  -38    4   16     -3.24      0.00
  -36    4   16     -2.11      0.00
  -34    4   16      1.36      0.00
  -32    4   16      2.87      0.00
  -30    4   16      1.50      0.00
  -28    4   16      0.27      0.00
  -26    4   16      0.12      0.00
  -24    4   16     -1.10      0.00
  -22    4   16     -3.70      0.00
  -20    4   16     -5.04      0.00
  -18    4   16     -3.87      0.00
  -16    4   16     -1.73      0.00
  -14    4   16     -0.14      0.00
  -12    4   16      0.41      0.00
  -10    4   16     -0.45      0.00
   -8    4   16     -1.91      0.00
   -6    4   16     -1.71      0.00
   -4    4   16      0.48      0.00
   -2    4   16      1.65      0.00
    0    4   16      0.07      0.00
    2    4   16     -1.66      0.00
    4    4   16     -0.69      0.00
    6    4   16      1.90      0.00
    8    4   16      3.38      0.00
   10    4   16      3.16      0.00
   12    4   16      2.46      0.00
   14    4   16      2.42      0.00
   16    4   16      3.46      0.00
   18    4   16      4.70      0.00
   20    4   16      4.10      0.00
   22    4   16      1.07      0.00
  -43    5   16      1.85      0.00
  -41    5   16      1.34      0.00
  -39    5   16      1.29      0.00
  -37    5   16      1.20      0.00
  -35    5   16     -0.22      0.00
  -33    5   16     -2.01      0.00
  -31    5   16     -1.99      0.00
  -29    5   16     -0.53      0.00
  -27    5   16      0.40      0.00
  -25    5   16      1.15      0.00
  -23    5   16      3.05      0.00
  -21    5   16      4.80      0.00
  -19    5   16      4.64      0.00
  -17    5   16      3.81      0.00
  -15    5   16      4.04      0.00
  -13    5   16      4.67      0.00
  -11    5   16      4.73      0.00
   -9    5   16      4.29      0.00
   -7    5   16      2.81      0.00
   -5    5   16      0.32      0.00
   -3    5   16     -0.43      0.00
   -1    5   16      2.15      0.00
    1    5   16      4.61      0.00
    3    5   16      3.23      0.00
    5    5   16     -0.38      0.00
    7    5   16     -2.69      0.00
    9    5   16     -3.26      0.00
   11    5   16     -3.25      0.00
   13    5   16     -3.07      0.00
   15    5   16     -3.38      0.00
   17    5   16     -4.35      0.00
   19    5   16     -3.86      0.00
   21    5   16     -0.72      0.00
  -42    6   16     -1.45      0.00
  -40    6   16     -0.64      0.00
  -38    6   16     -0.84      0.00
  -36    6   16     -1.44      0.00
  -34    6   16     -1.20      0.00
  -32    6   16     -0.68      0.00
  -30    6   16     -0.75      0.00
  -28    6   16     -0.78      0.00
  -26    6   16     -0.42      0.00
  -24    6   16     -0.66      0.00
  -22    6   16     -1.66      0.00
  -20    6   16     -2.25      0.00
  -18    6   16     -2.41      0.00
  -16    6   16     -3.29      0.00
  -14    6   16     -4.94      0.00
  -12    6   16     -6.18      0.00
  -10    6   16     -5.87      0.00
   -8    6   16     -3.36      0.00
   -6    6   16      0.25      0.00
   -4    6   16      1.54      0.00
   -2    6   16     -1.22      0.00
    0    6   16     -4.63      0.00
    2    6   16     -4.56      0.00
    4    6   16     -1.68      0.00
    6    6   16      0.92      0.00
    8    6   16      2.50      0.00
   10    6   16      3.66      0.00
   12    6   16      4.09      0.00
   14    6   16      4.08      0.00
   16    6   16      4.43      0.00
   18    6   16      3.99      0.00
   20    6   16      1.36      0.00
  -39    7   16     -0.03      0.00
  -37    7   16      0.92      0.00
  -35    7   16      1.64      0.00
  -33    7   16      1.94      0.00
  -31    7   16      2.00      0.00
  -29    7   16      1.52      0.00
  -27    7   16      0.49      0.00
  -25    7   16     -0.38      0.00
  -23    7   16     -0.77      0.00
  -21    7   16     -0.83      0.00
  -19    7   16     -0.53      0.00
  -17    7   16      0.13      0.00
  -15    7   16      1.07      0.00
  -13    7   16      2.52      0.00
  -11    7   16      3.70      0.00
   -9    7   16      2.31      0.00
   -7    7   16     -1.86      0.00
   -5    7   16     -4.73      0.00
   -3    7   16     -2.96      0.00
   -1    7   16      1.07      0.00
    1    7   16      2.95      0.00
    3    7   16      1.99      0.00
    5    7   16      0.05      0.00
    7    7   16     -1.95      0.00
    9    7   16     -3.59      0.00
   11    7   16     -4.20      0.00
   13    7   16     -4.26      0.00
   15    7   16     -4.60      0.00
   17    7   16     -4.24      0.00
   19    7   16     -2.08      0.00
  -38    8   16     -0.51      0.00
  -36    8   16     -0.86      0.00
  -34    8   16     -1.61      0.00
  -32    8   16     -2.61      0.00
  -30    8   16     -2.60      0.00
  -28    8   16     -1.40      0.00
  -26    8   16     -0.29      0.00
  -24    8   16      0.41      0.00
  -22    8   16      1.24      0.00
  -20    8   16      1.80      0.00
  -18    8   16      1.57      0.00
  -16    8   16      1.00      0.00
  -14    8   16      0.06      0.00
  -12    8   16     -1.45      0.00
  -10    8   16     -1.51      0.00
   -8    8   16      1.88      0.00
   -6    8   16      6.06      0.00
   -4    8   16      6.22      0.00
   -2    8   16      2.45      0.00
    0    8   16     -0.72      0.00
    2    8   16     -0.67      0.00
    4    8   16      1.51      0.00
    6    8   16      3.98      0.00
    8    8   16      5.27      0.00
   10    8   16      4.70      0.00
   12    8   16      3.53      0.00
   14    8   16      3.43      0.00
   16    8   16      3.52      0.00
  -35    9   16      0.45      0.00
  -33    9   16      1.94      0.00
  -31    9   16      2.84      0.00
  -29    9   16      1.72      0.00
  -27    9   16     -0.09      0.00
  -25    9   16     -0.92      0.00
  -23    9   16     -1.18      0.00
  -21    9   16     -1.61      0.00
  -19    9   16     -1.81      0.00
  -17    9   16     -1.31      0.00
  -15    9   16     -0.16      0.00
  -13    9   16      1.50      0.00
  -11    9   16      2.34      0.00
   -9    9   16      0.16      0.00
   -7    9   16     -4.26      0.00
   -5    9   16     -6.20      0.00
   -3    9   16     -3.01      0.00
   -1    9   16      1.78      0.00
    1    9   16      2.92      0.00
    3    9   16     -0.25      0.00
    5    9   16     -4.15      0.00
    7    9   16     -5.52      0.00
    9    9   16     -4.09      0.00
   11    9   16     -1.97      0.00
   13    9   16     -1.22      0.00
  -30   10   16     -1.22      0.00
  -28   10   16      0.80      0.00
  -26   10   16      2.89      0.00
  -24   10   16      3.48      0.00
  -22   10   16      2.85      0.00
  -20   10   16      2.21      0.00
  -18   10   16      2.08      0.00
  -16   10   16      1.84      0.00
  -14   10   16      0.64      0.00
  -12   10   16     -1.11      0.00
  -10   10   16     -1.24      0.00
   -8   10   16      1.55      0.00
   -6   10   16      4.58      0.00
   -4   10   16      3.34      0.00
   -2   10   16     -2.06      0.00
    0   10   16     -5.79      0.00
    2   10   16     -3.77      0.00
    4   10   16      0.91      0.00
    6   10   16      2.79      0.00
    8   10   16      1.05      0.00
   10   10   16     -1.10      0.00
  -27   11   16     -2.01      0.00
  -25   11   16     -4.15      0.00
  -23   11   16     -4.28      0.00
  -21   11   16     -2.66      0.00
  -19   11   16     -1.54      0.00
  -17   11   16     -2.11      0.00
  -15   11   16     -2.87      0.00
  -13   11   16     -1.73      0.00
  -11   11   16      0.73      0.00
   -9   11   16      1.51      0.00
   -7   11   16     -0.58      0.00
   -5   11   16     -2.29      0.00
   -3   11   16     -0.22      0.00
   -1   11   16      3.56      0.00
    1   11   16      3.96      0.00
    3   11   16      0.61      0.00
    5   11   16     -1.62      0.00
  -18   12   16     -0.57      0.00
  -16   12   16      0.48      0.00
  -14   12   16      1.04      0.00
  -12   12   16     -0.84      0.00
  -10   12   16     -3.55      0.00
   -8   12   16     -3.81      0.00
   -6   12   16     -1.44      0.00
   -4   12   16      0.31      0.00
   -2   12   16     -0.30      0.00
  -45    1   17      4.47      0.00
  -43    1   17      7.18      0.00
  -41    1   17      5.59      0.00
  -39    1   17      2.01      0.00
  -37    1   17      1.04      0.00
  -35    1   17      2.05      0.00
  -33    1   17      1.20      0.00
  -31    1   17     -1.32      0.00
  -29    1   17     -2.33      0.00
  -27    1   17     -1.84      0.00
  -25    1   17     -2.29      0.00
  -23    1   17     -3.67      0.00
  -21    1   17     -4.25      0.00
  -19    1   17     -4.16      0.00
  -17    1   17     -4.98      0.00
  -15    1   17     -7.09      0.00
  -13    1   17     -9.25      0.00
  -11    1   17     -9.56      0.00
   -9    1   17     -7.06      0.00
   -7    1   17     -3.15      0.00
   -5    1   17     -0.45      0.00
   -3    1   17      0.13      0.00
   -1    1   17     -0.55      0.00
    1    1   17     -1.88      0.00
    3    1   17     -3.04      0.00
    5    1   17     -1.91      0.00
    7    1   17      2.45      0.00
    9    1   17      7.12      0.00
   11    1   17      8.29      0.00
   13    1   17      5.85      0.00
   15    1   17      3.22      0.00
   17    1   17      3.19      0.00
   19    1   17      5.14      0.00
   21    1   17      6.09      0.00
   23    1   17      4.37      0.00
  -46    2   17     -1.82      0.00
  -44    2   17     -4.90      0.00
  -42    2   17     -5.32      0.00
  -40    2   17     -2.90      0.00
  -38    2   17     -1.69      0.00
  -36    2   17     -3.30      0.00
  -34    2   17     -4.01      0.00
  -32    2   17     -1.47      0.00
  -30    2   17      1.31      0.00
  -28    2   17      1.81      0.00
  -26    2   17      1.99      0.00
  -24    2   17      3.62      0.00
  -22    2   17      4.98      0.00
  -20    2   17      5.02      0.00
  -18    2   17      5.96      0.00
  -16    2   17      9.49      0.00
  -14    2   17     13.89      0.00
  -12    2   17     16.01      0.00
  -10    2   17     14.02      0.00
   -8    2   17      8.68      0.00
   -6    2   17      3.32      0.00
   -4    2   17      1.21      0.00
   -2    2   17      2.49      0.00
    0    2   17      4.72      0.00
    2    2   17      5.85      0.00
    4    2   17      4.62      0.00
    6    2   17     -0.09      0.00
    8    2   17     -7.29      0.00
   10    2   17    -12.57      0.00
   12    2   17    -12.34      0.00
   14    2   17     -8.47      0.00
   16    2   17     -6.00      0.00
   18    2   17     -6.69      0.00
   20    2   17     -7.45      0.00
   22    2   17     -5.30      0.00
  -45    3   17      0.42      0.00
  -43    3   17      0.25      0.00
  -41    3   17      0.71      0.00
  -39    3   17      2.36      0.00
  -37    3   17      4.45      0.00
  -35    3   17      5.45      0.00
  -33    3   17      4.33      0.00
  -31    3   17      1.95      0.00
  -29    3   17      0.05      0.00
  -27    3   17     -1.15      0.00
  -25    3   17     -2.50      0.00
  -23    3   17     -3.37      0.00
  -21    3   17     -2.82      0.00
  -19    3   17     -2.86      0.00
  -17    3   17     -6.38      0.00
  -15    3   17    -12.26      0.00
  -13    3   17    -16.22      0.00
  -11    3   17    -15.67      0.00
   -9    3   17    -11.16      0.00
   -7    3   17     -5.24      0.00
   -5    3   17     -1.88      0.00
   -3    3   17     -3.61      0.00
   -1    3   17     -7.79      0.00
    1    3   17     -9.35      0.00
    3    3   17     -7.00      0.00
    5    3   17     -2.67      0.00
    7    3   17      3.01      0.00
    9    3   17      9.39      0.00
   11    3   17     12.82      0.00
   13    3   17     10.93      0.00
   15    3   17      7.16      0.00
   17    3   17      5.68      0.00
   19    3   17      5.31      0.00
   21    3   17      3.00      0.00
   23    3   17     -0.34      0.00
  -44    4   17      1.68      0.00
  -42    4   17      1.47      0.00
  -40    4   17     -1.62      0.00
  -38    4   17     -4.46      0.00
  -36    4   17     -4.59      0.00
  -34    4   17     -3.24      0.00
  -32    4   17     -2.21      0.00
  -30    4   17     -1.27      0.00
  -28    4   17      0.33      0.00
  -26    4   17      1.94      0.00
  -24    4   17      2.07      0.00
  -22    4   17      0.32      0.00
  -20    4   17     -1.10      0.00
  -18    4   17      1.02      0.00
  -16    4   17      6.72      0.00
  -14    4   17     12.23      0.00
  -12    4   17     13.96      0.00
  -10    4   17     11.20      0.00
   -8    4   17      5.62      0.00
   -6    4   17      1.09      0.00
   -4    4   17      1.84      0.00
   -2    4   17      7.04      0.00
    0    4   17     10.44      0.00
    2    4   17      8.46      0.00
    4    4   17      3.90      0.00
    6    4   17     -0.49      0.00
    8    4   17     -5.42      0.00
   10    4   17     -9.79      0.00
   12    4   17     -9.95      0.00
   14    4   17     -6.21      0.00
   16    4   17     -3.05      0.00
   18    4   17     -1.86      0.00
   20    4   17     -0.36      0.00
   22    4   17      1.65      0.00
  -43    5   17     -1.30      0.00
  -41    5   17      0.46      0.00
  -39    5   17      2.76      0.00
  -37    5   17      2.81      0.00
  -35    5   17      1.09      0.00
  -33    5   17      0.32      0.00
  -31    5   17      0.92      0.00
  -29    5   17      0.85      0.00
  -27    5   17     -0.45      0.00
  -25    5   17     -0.70      0.00
  -23    5   17      1.46      0.00
  -21    5   17      3.77      0.00
  -19    5   17      3.06      0.00
  -17    5   17     -0.86      0.00
  -15    5   17     -5.63      0.00
  -13    5   17     -9.15      0.00
  -11    5   17     -9.76      0.00
   -9    5   17     -6.35      0.00
   -7    5   17     -1.07      0.00
   -5    5   17      0.80      0.00
   -3    5   17     -2.69      0.00
   -1    5   17     -7.08      0.00
    1    5   17     -7.67      0.00
    3    5   17     -5.02      0.00
    5    5   17     -1.48      0.00
    7    5   17      2.75      0.00
    9    5   17      6.94      0.00
   11    5   17      8.22      0.00
   13    5   17      5.71      0.00
   15    5   17      2.23      0.00
   17    5   17      0.08      0.00
   19    5   17     -1.10      0.00
   21    5   17     -1.78      0.00
  -42    6   17     -0.37      0.00
  -40    6   17     -1.40      0.00
  -38    6   17     -1.90      0.00
  -36    6   17     -1.35      0.00
  -34    6   17     -0.80      0.00
  -32    6   17     -1.53      0.00
  -30    6   17     -2.56      0.00
  -28    6   17     -2.15      0.00
  -26    6   17     -1.31      0.00
  -24    6   17     -2.47      0.00
  -22    6   17     -4.78      0.00
  -20    6   17     -4.98      0.00
  -18    6   17     -2.85      0.00
  -16    6   17     -0.69      0.00
  -14    6   17      1.21      0.00
  -12    6   17      3.47      0.00
  -10    6   17      3.93      0.00
   -8    6   17      0.84      0.00
   -6    6   17     -2.65      0.00
   -4    6   17     -2.51      0.00
   -2    6   17      0.56      0.00
    0    6   17      3.35      0.00
    2    6   17      4.43      0.00
    4    6   17      3.51      0.00
    6    6   17      0.45      0.00
    8    6   17     -3.07      0.00
   10    6   17     -4.48      0.00
   12    6   17     -3.59      0.00
   14    6   17     -2.04      0.00
   16    6   17     -0.51      0.00
   18    6   17      0.88      0.00
  -39    7   17      0.74      0.00
  -37    7   17      1.71      0.00
  -35    7   17      2.07      0.00
  -33    7   17      2.34      0.00
  -31    7   17      3.24      0.00
  -29    7   17      3.77      0.00
  -27    7   17      3.15      0.00
  -25    7   17      3.07      0.00
  -23    7   17      4.45      0.00
  -21    7   17      5.18      0.00
  -19    7   17      4.02      0.00
  -17    7   17      2.91      0.00
  -15    7   17      2.93      0.00
  -13    7   17      2.28      0.00
  -11    7   17      0.62      0.00
   -9    7   17      0.37      0.00
   -7    7   17      2.35      0.00
   -5    7   17      4.28      0.00
   -3    7   17      4.21      0.00
   -1    7   17      2.25      0.00
    1    7   17     -0.39      0.00
    3    7   17     -1.77      0.00
    5    7   17     -0.76      0.00
    7    7   17      0.99      0.00
    9    7   17      1.13      0.00
   11    7   17      0.24      0.00
   13    7   17      0.16      0.00
   15    7   17      0.38      0.00
   17    7   17     -0.27      0.00
  -36    8   17     -1.85      0.00
  -34    8   17     -1.85      0.00
  -32    8   17     -1.92      0.00
  -30    8   17     -2.73      0.00
  -28    8   17     -3.43      0.00
  -26    8   17     -3.79      0.00
  -24    8   17     -4.45      0.00
  -22    8   17     -5.00      0.00
  -20    8   17     -4.34      0.00
  -18    8   17     -2.97      0.00
  -16    8   17     -2.29      0.00
  -14    8   17     -2.29      0.00
  -12    8   17     -1.78      0.00
  -10    8   17     -0.58      0.00
   -8    8   17      0.05      0.00
   -6    8   17     -0.81      0.00
   -4    8   17     -2.37      0.00
   -2    8   17     -2.89      0.00
    0    8   17     -1.84      0.00
    2    8   17     -0.73      0.00
    4    8   17     -0.69      0.00
    6    8   17     -0.67      0.00
    8    8   17      0.45      0.00
   10    8   17      1.54      0.00
   12    8   17      1.21      0.00
   14    8   17      0.18      0.00
  -33    9   17      0.85      0.00
  -31    9   17      0.83      0.00
  -29    9   17      1.80      0.00
  -27    9   17      3.45      0.00
  -25    9   17      5.03      0.00
  -23    9   17      5.67      0.00
  -21    9   17      5.08      0.00
  -19    9   17      3.76      0.00
  -17    9   17      2.50      0.00
  -15    9   17      1.88      0.00
  -13    9   17      1.68      0.00
  -11    9   17      0.70      0.00
   -9    9   17     -1.51      0.00
   -7    9   17     -3.23      0.00
   -5    9   17     -2.67      0.00
   -3    9   17     -0.79      0.00
   -1    9   17      0.36      0.00
    1    9   17      0.50      0.00
    3    9   17      0.15      0.00
    5    9   17     -1.15      0.00
    7    9   17     -3.11      0.00
    9    9   17     -3.72      0.00
   11    9   17     -2.26      0.00
  -30   10   17      0.13      0.00
  -28   10   17     -1.15      0.00
  -26   10   17     -3.53      0.00
  -24   10   17     -5.40      0.00
  -22   10   17     -5.50      0.00
  -20   10   17     -4.32      0.00
  -18   10   17     -3.13      0.00
  -16   10   17     -2.57      0.00
  -14   10   17     -2.37      0.00
  -12   10   17     -1.38      0.00
  -10   10   17      1.49      0.00
   -8   10   17      5.04      0.00
   -6   10   17      6.19      0.00
   -4   10   17      3.82      0.00
   -2   10   17      0.34      0.00
    0   10   17     -1.46      0.00
    2   10   17     -0.83      0.00
    4   10   17      1.62      0.00
    6   10   17      4.36      0.00
    8   10   17      5.10      0.00
  -25   11   17      2.22      0.00
  -23   11   17      3.53      0.00
  -21   11   17      3.46      0.00
  -19   11   17      2.36      0.00
  -17   11   17      1.35      0.00
  -15   11   17      0.95      0.00
  -13   11   17      0.36      0.00
  -11   11   17     -1.75      0.00
   -9   11   17     -5.27      0.00
   -7   11   17     -7.59      0.00
   -5   11   17     -5.92      0.00
   -3   11   17     -0.94      0.00
   -1   11   17      3.24      0.00
    1   11   17      3.42      0.00
    3   11   17      0.31      0.00
  -16   12   17      0.43      0.00
  -14   12   17      1.16      0.00
  -12   12   17      1.72      0.00
  -10   12   17      3.21      0.00
   -8   12   17      5.32      0.00
   -6   12   17      5.67      0.00
  -46    0   18     10.31      0.00
  -44    0   18     11.75      0.00
  -42    0   18      8.95      0.00
  -40    0   18      4.65      0.00
  -38    0   18      3.35      0.00
  -36    0   18      4.55      0.00
  -34    0   18      3.79      0.00
  -32    0   18      0.84      0.00
  -30    0   18     -0.21      0.00
  -28    0   18      1.01      0.00
  -26    0   18      0.39      0.00
  -24    0   18     -2.90      0.00
  -22    0   18     -5.24      0.00
  -20    0   18     -5.42      0.00
  -18    0   18     -6.86      0.00
  -16    0   18    -12.05      0.00
  -14    0   18    -18.64      0.00
  -12    0   18    -21.38      0.00
  -10    0   18    -16.79      0.00
   -8    0   18     -7.08      0.00
   -6    0   18      1.12      0.00
   -4    0   18      3.25      0.00
   -2    0   18      0.49      0.00
    0    0   18     -3.50      0.00
    2    0   18     -5.84      0.00
    4    0   18     -3.73      0.00
    6    0   18      4.24      0.00
    8    0   18     14.08      0.00
   10    0   18     18.48      0.00
   12    0   18     14.99      0.00
   14    0   18      8.55      0.00
   16    0   18      5.16      0.00
   18    0   18      5.84      0.00
   20    0   18      7.29      0.00
   22    0   18      6.51      0.00
  -45    1   18     -7.45      0.00
  -43    1   18     -6.02      0.00
  -41    1   18     -3.80      0.00
  -39    1   18     -2.92      0.00
  -37    1   18     -3.68      0.00
  -35    1   18     -3.95      0.00
  -33    1   18     -2.52      0.00
  -31    1   18     -1.28      0.00
  -29    1   18     -1.75      0.00
  -27    1   18     -2.00      0.00
  -25    1   18     -0.02      0.00
  -23    1   18      2.47      0.00
  -21    1   18      3.27      0.00
  -19    1   18      3.97      0.00
  -17    1   18      7.57      0.00
  -15    1   18     13.62      0.00
  -13    1   18     18.06      0.00
  -11    1   18     17.06      0.00
   -9    1   18     10.44      0.00
   -7    1   18      2.42      0.00
   -5    1   18     -1.67      0.00
   -3    1   18     -0.44      0.00
   -1    1   18      2.99      0.00
    1    1   18      5.17      0.00
    3    1   18      4.51      0.00
    5    1   18      0.13      0.00
    7    1   18     -7.46      0.00
    9    1   18    -14.33      0.00
   11    1   18    -15.82      0.00
   13    1   18    -11.94      0.00
   15    1   18     -7.22      0.00
   17    1   18     -5.08      0.00
   19    1   18     -4.90      0.00
   21    1   18     -4.44      0.00
  -44    2   18     -0.43      0.00
  -42    2   18     -0.76      0.00
  -40    2   18      1.96      0.00
  -38    2   18      3.83      0.00
  -36    2   18      3.08      0.00
  -34    2   18      2.10      0.00
  -32    2   18      2.55      0.00
  -30    2   18      3.22      0.00
  -28    2   18      2.74      0.00
  -26    2   18      1.51      0.00
  -24    2   18      0.78      0.00
  -22    2   18      1.04      0.00
  -20    2   18      1.02      0.00
  -18    2   18     -1.33      0.00
  -16    2   18     -5.94      0.00
  -14    2   18     -9.90      0.00
  -12    2   18    -10.43      0.00
  -10    2   18     -7.40      0.00
   -8    2   18     -3.02      0.00
   -6    2   18     -0.42      0.00
   -4    2   18     -1.46      0.00
   -2    2   18     -4.44      0.00
    0    2   18     -5.63      0.00
    2    2   18     -3.99      0.00
    4    2   18     -1.60      0.00
    6    2   18      0.85      0.00
    8    2   18      4.63      0.00
   10    2   18      8.85      0.00
   12    2   18     10.33      0.00
   14    2   18      8.15      0.00
   16    2   18      4.53      0.00
   18    2   18      1.51      0.00
   20    2   18     -0.37      0.00
   22    2   18     -0.92      0.00
  -45    3   18      1.25      0.00
  -43    3   18      2.11      0.00
  -41    3   18     -1.60      0.00
  -39    3   18     -5.15      0.00
  -37    3   18     -3.77      0.00
  -35    3   18     -0.50      0.00
  -33    3   18     -0.33      0.00
  -31    3   18     -2.04      0.00
  -29    3   18     -1.75      0.00
  -27    3   18     -0.10      0.00
  -25    3   18     -0.38      0.00
  -23    3   18     -2.79      0.00
  -21    3   18     -4.56      0.00
  -19    3   18     -3.80      0.00
  -17    3   18     -1.02      0.00
  -15    3   18      1.84      0.00
  -13    3   18      2.89      0.00
  -11    3   18      1.69      0.00
   -9    3   18     -0.12      0.00
   -7    3   18     -0.27      0.00
   -5    3   18      2.01      0.00
   -3    3   18      4.83      0.00
   -1    3   18      5.41      0.00
    1    3   18      3.44      0.00
    3    3   18      1.59      0.00
    5    3   18      1.60      0.00
    7    3   18      1.77      0.00
    9    3   18     -0.01      0.00
   11    3   18     -2.66      0.00
   13    3   18     -3.39      0.00
   15    3   18     -1.33      0.00
   17    3   18      1.92      0.00
   19    3   18      3.98      0.00
   21    3   18      3.50      0.00
  -44    4   18     -0.28      0.00
  -42    4   18      2.18      0.00
  -40    4   18      5.51      0.00
  -38    4   18      5.18      0.00
  -36    4   18      1.30      0.00
  -34    4   18     -1.09      0.00
  -32    4   18     -0.10      0.00
  -30    4   18      0.74      0.00
  -28    4   18     -0.45      0.00
  -26    4   18     -0.65      0.00
  -24    4   18      1.98      0.00
  -22    4   18      4.65      0.00
  -20    4   18      4.90      0.00
  -18    4   18      3.84      0.00
  -16    4   18      2.97      0.00
  -14    4   18      2.13      0.00
  -12    4   18      1.62      0.00
  -10    4   18      1.76      0.00
   -8    4   18      0.97      0.00
   -6    4   18     -1.94      0.00
   -4    4   18     -4.50      0.00
   -2    4   18     -4.03      0.00
    0    4   18     -2.04      0.00
    2    4   18     -1.66      0.00
    4    4   18     -2.92      0.00
    6    4   18     -3.87      0.00
    8    4   18     -3.85      0.00
   10    4   18     -3.23      0.00
   12    4   18     -2.35      0.00
   14    4   18     -2.30      0.00
   16    4   18     -3.83      0.00
   18    4   18     -5.16      0.00
   20    4   18     -3.94      0.00
  -43    5   18     -1.88      0.00
  -41    5   18     -4.09      0.00
  -39    5   18     -5.12      0.00
  -37    5   18     -3.67      0.00
  -35    5   18     -1.38      0.00
  -33    5   18     -0.81      0.00
  -31    5   18     -1.50      0.00
  -29    5   18     -1.28      0.00
  -27    5   18     -0.68      0.00
  -25    5   18     -1.60      0.00
  -23    5   18     -3.07      0.00
  -21    5   18     -3.01      0.00
  -19    5   18     -2.63      0.00
  -17    5   18     -3.84      0.00
  -15    5   18     -5.20      0.00
  -13    5   18     -4.81      0.00
  -11    5   18     -3.39      0.00
   -9    5   18     -1.43      0.00
   -7    5   18      1.77      0.00
   -5    5   18      4.26      0.00
   -3    5   18      3.21      0.00
   -1    5   18      0.86      0.00
    1    5   18      1.75      0.00
    3    5   18      5.02      0.00
    5    5   18      6.56      0.00
    7    5   18      6.33      0.00
    9    5   18      6.52      0.00
   11    5   18      6.39      0.00
   13    5   18      4.87      0.00
   15    5   18      3.71      0.00
   17    5   18      3.71      0.00
   19    5   18      2.68      0.00
  -40    6   18      2.24      0.00
  -38    6   18      3.28      0.00
  -36    6   18      3.24      0.00
  -34    6   18      2.69      0.00
  -32    6   18      2.61      0.00
  -30    6   18      2.65      0.00
  -28    6   18      2.29      0.00
  -26    6   18      1.94      0.00
  -24    6   18      1.51      0.00
  -22    6   18      0.46      0.00
  -20    6   18     -0.05      0.00
  -18    6   18      1.62      0.00
  -16    6   18      4.41      0.00
  -14    6   18      5.87      0.00
  -12    6   18      5.29      0.00
  -10    6   18      2.94      0.00
   -8    6   18     -0.94      0.00
   -6    6   18     -3.93      0.00
   -4    6   18     -2.91      0.00
   -2    6   18      0.23      0.00
    0    6   18      0.19      0.00
    2    6   18     -3.52      0.00
    4    6   18     -6.42      0.00
    6    6   18     -6.86      0.00
    8    6   18     -7.14      0.00
   10    6   18     -7.53      0.00
   12    6   18     -6.24      0.00
   14    6   18     -3.95      0.00
   16    6   18     -2.48      0.00
   18    6   18     -1.39      0.00
  -39    7   18      0.17      0.00
  -37    7   18     -1.19      0.00
  -35    7   18     -1.80      0.00
  -33    7   18     -1.79      0.00
  -31    7   18     -1.57      0.00
  -29    7   18     -1.38      0.00
  -27    7   18     -1.09      0.00
  -25    7   18     -0.02      0.00
  -23    7   18      1.76      0.00
  -21    7   18      2.56      0.00
  -19    7   18      1.22      0.00
  -17    7   18     -1.01      0.00
  -15    7   18     -2.61      0.00
  -13    7   18     -3.42      0.00
  -11    7   18     -2.75      0.00
   -9    7   18      0.56      0.00
   -7    7   18      4.35      0.00
   -5    7   18      4.31      0.00
   -3    7   18      0.48      0.00
   -1    7   18     -2.19      0.00
    1    7   18     -1.05      0.00
    3    7   18      1.58      0.00
    5    7   18      3.21      0.00
    7    7   18      3.85      0.00
    9    7   18      3.91      0.00
   11    7   18      3.32      0.00
   13    7   18      2.54      0.00
   15    7   18      1.84      0.00
  -36    8   18     -0.18      0.00
  -34    8   18      0.52      0.00
  -32    8   18      0.24      0.00
  -30    8   18     -0.70      0.00
  -28    8   18     -1.31      0.00
  -26    8   18     -1.93      0.00
  -24    8   18     -3.33      0.00
  -22    8   18     -4.35      0.00
  -20    8   18     -3.34      0.00
  -18    8   18     -1.24      0.00
  -16    8   18      0.18      0.00
  -14    8   18      1.21      0.00
  -12    8   18      1.93      0.00
  -10    8   18      0.30      0.00
   -8    8   18     -3.59      0.00
   -6    8   18     -5.54      0.00
   -4    8   18     -2.92      0.00
   -2    8   18      1.33      0.00
    0    8   18      3.13      0.00
    2    8   18      1.92      0.00
    4    8   18     -0.29      0.00
    6    8   18     -1.47      0.00
    8    8   18     -0.74      0.00
   10    8   18      0.69      0.00
   12    8   18      0.77      0.00
  -33    9   18     -0.25      0.00
  -31    9   18      0.88      0.00
  -29    9   18      2.62      0.00
  -27    9   18      3.66      0.00
  -25    9   18      4.24      0.00
  -23    9   18      4.70      0.00
  -21    9   18      4.20      0.00
  -19    9   18      2.49      0.00
  -17    9   18      0.60      0.00
  -15    9   18     -1.06      0.00
  -13    9   18     -2.52      0.00
  -11    9   18     -2.36      0.00
   -9    9   18      0.50      0.00
   -7    9   18      3.56      0.00
   -5    9   18      3.02      0.00
   -3    9   18     -0.89      0.00
   -1    9   18     -4.06      0.00
    1    9   18     -3.67      0.00
    3    9   18     -0.92      0.00
    5    9   18      1.05      0.00
    7    9   18      0.54      0.00
    9    9   18     -1.25      0.00
  -30   10   18     -1.41      0.00
  -28   10   18     -3.34      0.00
  -26   10   18     -4.42      0.00
  -24   10   18     -4.27      0.00
  -22   10   18     -3.47      0.00
  -20   10   18     -2.66      0.00
  -18   10   18     -1.87      0.00
  -16   10   18     -0.56      0.00
  -14   10   18      1.38      0.00
  -12   10   18      2.72      0.00
  -10   10   18      1.84      0.00
   -8   10   18     -0.59      0.00
   -6   10   18     -1.29      0.00
   -4   10   18      1.61      0.00
   -2   10   18      5.37      0.00
    0   10   18      5.82      0.00
    2   10   18      2.87      0.00
    4   10   18      0.18      0.00
    6   10   18     -0.02      0.00
  -23   11   18      2.39      0.00
  -21   11   18      1.35      0.00
  -19   11   18      1.47      0.00
  -17   11   18      1.94      0.00
  -15   11   18      1.10      0.00
  -13   11   18     -1.03      0.00
  -11   11   18     -2.42      0.00
   -9   11   18     -1.64      0.00
   -7   11   18     -0.25      0.00
   -5   11   18     -1.09      0.00
   -3   11   18     -3.93      0.00
   -1   11   18     -5.23      0.00
    1   11   18     -3.25      0.00
  -45    1   19     -4.84      0.00
  -43    1   19     -4.69      0.00
  -41    1   19     -2.43      0.00
  -39    1   19     -1.82      0.00
  -37    1   19     -3.42      0.00
  -35    1   19     -3.38      0.00
  -33    1   19     -0.43      0.00
  -31    1   19      1.79      0.00
  -29    1   19      1.39      0.00
  -27    1   19      0.96      0.00
  -25    1   19      2.18      0.00
  -23    1   19      3.17      0.00
  -21    1   19      2.62      0.00
  -19    1   19      1.94      0.00
  -17    1   19      2.55      0.00
  -15    1   19      3.93      0.00
  -13    1   19      4.62      0.00
  -11    1   19      3.52      0.00
   -9    1   19      1.03      0.00
   -7    1   19     -1.12      0.00
   -5    1   19     -1.91      0.00
   -3    1   19     -2.00      0.00
   -1    1   19     -1.61      0.00
    1    1   19     -0.24      0.00
    3    1   19      0.49      0.00
    5    1   19     -2.25      0.00
    7    1   19     -7.17      0.00
    9    1   19     -8.78      0.00
   11    1   19     -4.67      0.00
   13    1   19      0.95      0.00
   15    1   19      2.74      0.00
   17    1   19      0.34      0.00
   19    1   19     -2.62      0.00
   21    1   19     -3.27      0.00
  -44    2   19      3.47      0.00
  -42    2   19      1.69      0.00
  -40    2   19      0.81      0.00
  -38    2   19      3.04      0.00
  -36    2   19      5.17      0.00
  -34    2   19      3.47      0.00
  -32    2   19      0.24      0.00
  -30    2   19     -0.24      0.00
  -28    2   19      0.88      0.00
  -26    2   19     -0.04      0.00
  -24    2   19     -2.19      0.00
  -22    2   19     -2.58      0.00
  -20    2   19     -2.03      0.00
  -18    2   19     -3.35      0.00
  -16    2   19     -6.25      0.00
  -14    2   19     -8.09      0.00
  -12    2   19     -7.28      0.00
  -10    2   19     -4.09      0.00
   -8    2   19     -0.16      0.00
   -6    2   19      2.11      0.00
   -4    2   19      1.89      0.00
   -2    2   19      0.75      0.00
    0    2   19     -0.02      0.00
    2    2   19     -0.14      0.00
    4    2   19      1.99      0.00
    6    2   19      7.75      0.00
    8    2   19     13.52      0.00
   10    2   19     13.18      0.00
   12    2   19      6.71      0.00
   14    2   19      1.02      0.00
   16    2   19      0.86      0.00
   18    2   19      3.61      0.00
   20    2   19      4.39      0.00
  -45    3   19      0.44      0.00
  -43    3   19      1.69      0.00
  -41    3   19      1.36      0.00
  -39    3   19     -0.90      0.00
  -37    3   19     -3.21      0.00
  -35    3   19     -3.49      0.00
  -33    3   19     -2.15      0.00
  -31    3   19     -1.54      0.00
  -29    3   19     -2.07      0.00
  -27    3   19     -1.75      0.00
  -25    3   19     -0.41      0.00
  -23    3   19     -0.34      0.00
  -21    3   19     -1.29      0.00
  -19    3   19      0.22      0.00
  -17    3   19      4.77      0.00
  -15    3   19      8.50      0.00
  -13    3   19      8.56      0.00
  -11    3   19      5.58      0.00
   -9    3   19      1.19      0.00
   -7    3   19     -2.32      0.00
   -5    3   19     -2.08      0.00
   -3    3   19      1.34      0.00
   -1    3   19      3.31      0.00
    1    3   19      1.53      0.00
    3    3   19     -1.77      0.00
    5    3   19     -5.51      0.00
    7    3   19    -10.69      0.00
    9    3   19    -14.79      0.00
   11    3   19    -13.22      0.00
   13    3   19     -7.39      0.00
   15    3   19     -3.63      0.00
   17    3   19     -3.69      0.00
   19    3   19     -3.68      0.00
  -44    4   19     -2.71      0.00
  -42    4   19     -2.00      0.00
  -40    4   19      0.05      0.00
  -38    4   19      0.95      0.00
  -36    4   19      0.56      0.00
  -34    4   19      0.55      0.00
  -32    4   19      1.27      0.00
  -30    4   19      1.49      0.00
  -28    4   19      0.69      0.00
  -26    4   19      0.26      0.00
  -24    4   19      1.91      0.00
  -22    4   19      4.58      0.00
  -20    4   19      4.48      0.00
  -18    4   19     -0.04      0.00
  -16    4   19     -5.66      0.00
  -14    4   19     -8.25      0.00
  -12    4   19     -6.84      0.00
  -10    4   19     -2.53      0.00
   -8    4   19      2.38      0.00
   -6    4   19      3.77      0.00
   -4    4   19     -0.20      0.00
   -2    4   19     -4.61      0.00
    0    4   19     -3.65      0.00
    2    4   19      1.25      0.00
    4    4   19      5.30      0.00
    6    4   19      8.43      0.00
    8    4   19     12.14      0.00
   10    4   19     13.42      0.00
   12    4   19      9.56      0.00
   14    4   19      4.11      0.00
   16    4   19      1.57      0.00
   18    4   19      1.12      0.00
  -41    5   19     -1.00      0.00
  -39    5   19     -1.09      0.00
  -37    5   19      0.57      0.00
  -35    5   19      1.18      0.00
  -33    5   19     -0.31      0.00
  -31    5   19     -1.44      0.00
  -29    5   19     -0.47      0.00
  -27    5   19      0.40      0.00
  -25    5   19     -1.58      0.00
  -23    5   19     -5.09      0.00
  -21    5   19     -6.19      0.00
  -19    5   19     -3.42      0.00
  -17    5   19      1.05      0.00
  -15    5   19      4.90      0.00
  -13    5   19      6.76      0.00
  -11    5   19      5.13      0.00
   -9    5   19      0.17      0.00
   -7    5   19     -3.69      0.00
   -5    5   19     -2.13      0.00
   -3    5   19      2.54      0.00
   -1    5   19      4.13      0.00
    1    5   19      0.95      0.00
    3    5   19     -3.60      0.00
    5    5   19     -7.26      0.00
    7    5   19    -10.12      0.00
    9    5   19    -11.01      0.00
   11    5   19     -8.31      0.00
   13    5   19     -3.53      0.00
   15    5   19     -0.01      0.00
   17    5   19      1.11      0.00
  -40    6   19      2.38      0.00
  -38    6   19      1.15      0.00
  -36    6   19     -0.10      0.00
  -34    6   19      0.68      0.00
  -32    6   19      2.44      0.00
  -30    6   19      2.52      0.00
  -28    6   19      1.43      0.00
  -26    6   19      2.20      0.00
  -24    6   19      4.71      0.00
  -22    6   19      5.38      0.00
  -20    6   19      3.34      0.00
  -18    6   19      1.44      0.00
  -16    6   19      0.45      0.00
  -14    6   19     -1.54      0.00
  -12    6   19     -3.49      0.00
  -10    6   19     -2.12      0.00
   -8    6   19      1.54      0.00
   -6    6   19      2.71      0.00
   -4    6   19      0.10      0.00
   -2    6   19     -2.96      0.00
    0    6   19     -3.68      0.00
    2    6   19     -1.76      0.00
    4    6   19      1.96      0.00
    6    6   19      5.37      0.00
    8    6   19      5.91      0.00
   10    6   19      3.71      0.00
   12    6   19      1.27      0.00
   14    6   19     -0.18      0.00
   16    6   19     -1.05      0.00
  -39    7   19     -1.96      0.00
  -37    7   19     -1.49      0.00
  -35    7   19     -1.31      0.00
  -33    7   19     -2.32      0.00
  -31    7   19     -3.44      0.00
  -29    7   19     -3.61      0.00
  -27    7   19     -4.07      0.00
  -25    7   19     -5.42      0.00
  -23    7   19     -5.36      0.00
  -21    7   19     -2.84      0.00
  -19    7   19     -1.01      0.00
  -17    7   19     -1.95      0.00
  -15    7   19     -2.85      0.00
  -13    7   19     -1.25      0.00
  -11    7   19      0.61      0.00
   -9    7   19      0.19      0.00
   -7    7   19     -1.30      0.00
   -5    7   19     -1.54      0.00
   -3    7   19     -0.08      0.00
   -1    7   19      2.22      0.00
    1    7   19      3.50      0.00
    3    7   19      2.03      0.00
    5    7   19     -0.73      0.00
    7    7   19     -1.14      0.00
    9    7   19      0.94      0.00
   11    7   19      2.05      0.00
   13    7   19      1.16      0.00
  -36    8   19      1.28      0.00
  -34    8   19      0.98      0.00
  -32    8   19      1.38      0.00
  -30    8   19      2.44      0.00
  -28    8   19      3.96      0.00
  -26    8   19      5.60      0.00
  -24    8   19      5.86      0.00
  -22    8   19      3.78      0.00
  -20    8   19      1.25      0.00
  -18    8   19      0.85      0.00
  -16    8   19      2.15      0.00
  -14    8   19      2.64      0.00
  -12    8   19      1.34      0.00
  -10    8   19     -0.48      0.00
   -8    8   19     -1.17      0.00
   -6    8   19     -0.30      0.00
   -4    8   19      0.89      0.00
   -2    8   19      0.80      0.00
    0    8   19     -0.30      0.00
    2    8   19     -0.48      0.00
    4    8   19      0.37      0.00
    6    8   19      0.23      0.00
    8    8   19     -1.24      0.00
   10    8   19     -1.80      0.00
  -33    9   19      0.28      0.00
  -31    9   19      0.47      0.00
  -29    9   19     -1.01      0.00
  -27    9   19     -3.48      0.00
  -25    9   19     -4.91      0.00
  -23    9   19     -4.15      0.00
  -21    9   19     -2.27      0.00
  -19    9   19     -1.10      0.00
  -17    9   19     -1.22      0.00
  -15    9   19     -2.02      0.00
  -13    9   19     -2.28      0.00
  -11    9   19     -0.92      0.00
   -9    9   19      1.54      0.00
   -7    9   19      2.85      0.00
   -5    9   19      1.91      0.00
   -3    9   19      0.16      0.00
   -1    9   19     -0.83      0.00
    1    9   19     -1.05      0.00
    3    9   19     -0.69      0.00
    5    9   19      0.29      0.00
    7    9   19      0.92      0.00
  -28   10   19      0.58      0.00
  -26   10   19      2.81      0.00
  -24   10   19      3.45      0.00
  -22   10   19      2.55      0.00
  -20   10   19      1.53      0.00
  -18   10   19      1.22      0.00
  -16   10   19      1.61      0.00
  -14   10   19      2.23      0.00
  -12   10   19      1.95      0.00
  -10   10   19     -0.07      0.00
   -8   10   19     -2.60      0.00
   -6   10   19     -3.37      0.00
   -4   10   19     -1.94      0.00
   -2   10   19      0.05      0.00
    0   10   19      0.99      0.00
    2   10   19      0.33      0.00
    4   10   19     -1.24      0.00
  -23   11   19     -2.05      0.00
  -21   11   19     -1.52      0.00
  -19   11   19     -0.79      0.00
  -17   11   19     -0.46      0.00
  -15   11   19     -0.68      0.00
  -13   11   19     -0.91      0.00
  -11   11   19     -0.28      0.00
   -9   11   19      1.29      0.00
   -7   11   19      2.38      0.00
   -5   11   19      1.58      0.00
   -3   11   19     -0.49      0.00
  -44    0   20     -5.83      0.00
  -42    0   20     -3.81      0.00
  -40    0   20     -3.40      0.00
  -38    0   20     -5.38      0.00
  -36    0   20     -5.46      0.00
  -34    0   20     -1.40      0.00
  -32    0   20      2.26      0.00
  -30    0   20      1.46      0.00
  -28    0   20     -0.80      0.00
  -26    0   20     -0.51      0.00
  -24    0   20      0.64      0.00
  -22    0   20     -0.25      0.00
  -20    0   20     -1.53      0.00
  -18    0   20     -0.03      0.00
  -16    0   20      3.92      0.00
  -14    0   20      7.14      0.00
  -12    0   20      6.76      0.00
  -10    0   20      2.47      0.00
   -8    0   20     -2.73      0.00
   -6    0   20     -5.12      0.00
   -4    0   20     -4.19      0.00
   -2    0   20     -1.84      0.00
    0    0   20      0.59      0.00
    2    0   20      1.10      0.00
    4    0   20     -3.90      0.00
    6    0   20    -13.53      0.00
    8    0   20    -19.31      0.00
   10    0   20    -14.34      0.00
   12    0   20     -2.73      0.00
   14    0   20      5.39      0.00
   16    0   20      5.54      0.00
   18    0   20      1.29      0.00
  -45    1   20      3.45      0.00
  -43    1   20      2.40      0.00
  -41    1   20      1.96      0.00
  -39    1   20      3.02      0.00
  -37    1   20      3.92      0.00
  -35    1   20      2.40      0.00
  -33    1   20     -0.27      0.00
  -31    1   20     -0.67      0.00
  -29    1   20      1.12      0.00
  -27    1   20      1.81      0.00
  -25    1   20      0.79      0.00
  -23    1   20      0.62      0.00
  -21    1   20      1.59      0.00
  -19    1   20      0.94      0.00
  -17    1   20     -2.32      0.00
  -15    1   20     -5.77      0.00
  -13    1   20     -6.72      0.00
  -11    1   20     -4.35      0.00
   -9    1   20      0.01      0.00
   -7    1   20      3.34      0.00
   -5    1   20      3.53      0.00
   -3    1   20      1.57      0.00
   -1    1   20     -0.23      0.00
    1    1   20     -0.73      0.00
    3    1   20      1.29      0.00
    5    1   20      7.08      0.00
    7    1   20     13.95      0.00
    9    1   20     15.55      0.00
   11    1   20      9.53      0.00
   13    1   20      1.29      0.00
   15    1   20     -2.67      0.00
   17    1   20     -1.67      0.00
   19    1   20      0.72      0.00
  -44    2   20      1.24      0.00
  -42    2   20      0.00      0.00
  -40    2   20     -1.34      0.00
  -38    2   20     -0.71      0.00
  -36    2   20      0.52      0.00
  -34    2   20      0.34      0.00
  -32    2   20     -0.87      0.00
  -30    2   20     -1.65      0.00
  -28    2   20     -1.54      0.00
  -26    2   20     -1.25      0.00
  -24    2   20     -1.73      0.00
  -22    2   20     -2.70      0.00
  -20    2   20     -2.28      0.00
  -18    2   20      0.48      0.00
  -16    2   20      3.63      0.00
  -14    2   20      4.62      0.00
  -12    2   20      3.22      0.00
  -10    2   20      0.78      0.00
   -8    2   20     -1.17      0.00
   -6    2   20     -1.13      0.00
   -4    2   20      0.96      0.00
   -2    2   20      2.62      0.00
    0    2   20      1.77      0.00
    2    2   20     -0.28      0.00
    4    2   20     -1.83      0.00
    6    2   20     -3.82      0.00
    8    2   20     -6.90      0.00
   10    2   20     -8.57      0.00
   12    2   20     -6.76      0.00
   14    2   20     -3.18      0.00
   16    2   20     -0.69      0.00
   18    2   20      0.19      0.00
  -43    3   20     -0.22      0.00
  -41    3   20      2.53      0.00
  -39    3   20      1.42      0.00
  -37    3   20     -2.11      0.00
  -35    3   20     -2.70      0.00
  -33    3   20     -0.09      0.00
  -31    3   20      1.09      0.00
  -29    3   20     -0.52      0.00
  -27    3   20     -1.57      0.00
  -25    3   20     -0.02      0.00
  -23    3   20      2.33      0.00
  -21    3   20      3.11      0.00
  -19    3   20      1.81      0.00
  -17    3   20     -0.51      0.00
  -15    3   20     -2.01      0.00
  -13    3   20     -1.48      0.00
  -11    3   20      0.26      0.00
   -9    3   20      1.10      0.00
   -7    3   20     -0.20      0.00
   -5    3   20     -2.80      0.00
   -3    3   20     -4.45      0.00
   -1    3   20     -3.71      0.00
    1    3   20     -1.70      0.00
    3    3   20     -0.90      0.00
    5    3   20     -1.68      0.00
    7    3   20     -1.81      0.00
    9    3   20     -0.05      0.00
   11    3   20      1.83      0.00
   13    3   20      1.68      0.00
   15    3   20     -0.25      0.00
   17    3   20     -2.06      0.00
  -42    4   20     -4.04      0.00
  -40    4   20     -4.59      0.00
  -38    4   20     -0.96      0.00
  -36    4   20      1.90      0.00
  -34    4   20      0.70      0.00
  -32    4   20     -1.09      0.00
  -30    4   20      0.30      0.00
  -28    4   20      2.56      0.00
  -26    4   20      2.03      0.00
  -24    4   20     -0.11      0.00
  -22    4   20     -1.10      0.00
  -20    4   20     -1.23      0.00
  -18    4   20     -1.51      0.00
  -16    4   20     -1.11      0.00
  -14    4   20     -0.18      0.00
  -12    4   20     -0.35      0.00
  -10    4   20     -0.84      0.00
   -8    4   20      0.87      0.00
   -6    4   20      3.90      0.00
   -4    4   20      4.84      0.00
   -2    4   20      3.62      0.00
    0    4   20      2.98      0.00
    2    4   20      3.44      0.00
    4    4   20      3.66      0.00
    6    4   20      3.87      0.00
    8    4   20      4.70      0.00
   10    4   20      4.96      0.00
   12    4   20      4.02      0.00
   14    4   20      3.39      0.00
   16    4   20      3.74      0.00
  -41    5   20      5.13      0.00
  -39    5   20      4.16      0.00
  -37    5   20      1.56      0.00
  -35    5   20      0.67      0.00
  -33    5   20      1.53      0.00
  -31    5   20      1.35      0.00
  -29    5   20     -0.20      0.00
  -27    5   20     -0.84      0.00
  -25    5   20     -0.70      0.00
  -23    5   20     -1.63      0.00
  -21    5   20     -2.27      0.00
  -19    5   20     -0.09      0.00
  -17    5   20      3.02      0.00
  -15    5   20      3.60      0.00
  -13    5   20      2.37      0.00
  -11    5   20      1.14      0.00
   -9    5   20     -1.37      0.00
   -7    5   20     -5.00      0.00
   -5    5   20     -5.93      0.00
   -3    5   20     -3.86      0.00
   -1    5   20     -3.69      0.00
    1    5   20     -6.52      0.00
    3    5   20     -7.77      0.00
    5    5   20     -6.38      0.00
    7    5   20     -6.37      0.00
    9    5   20     -8.12      0.00
   11    5   20     -7.74      0.00
   13    5   20     -4.86      0.00
   15    5   20     -2.70      0.00
  -40    6   20     -2.83      0.00
  -38    6   20     -2.58      0.00
  -36    6   20     -1.59      0.00
  -34    6   20     -0.97      0.00
  -32    6   20     -0.79      0.00
  -30    6   20     -0.76      0.00
  -28    6   20     -0.92      0.00
  -26    6   20     -0.31      0.00
  -24    6   20      2.19      0.00
  -22    6   20      4.60      0.00
  -20    6   20      3.34      0.00
  -18    6   20     -1.05      0.00
  -16    6   20     -4.36      0.00
  -14    6   20     -4.73      0.00
  -12    6   20     -3.12      0.00
  -10    6   20      0.38      0.00
   -8    6   20      4.83      0.00
   -6    6   20      6.27      0.00
   -4    6   20      3.62      0.00
   -2    6   20      2.18      0.00
    0    6   20      5.34      0.00
    2    6   20      8.84      0.00
    4    6   20      8.71      0.00
    6    6   20      7.62      0.00
    8    6   20      8.23      0.00
   10    6   20      8.00      0.00
   12    6   20      4.88      0.00
   14    6   20      1.36      0.00
  -37    7   20      0.47      0.00
  -35    7   20     -0.18      0.00
  -33    7   20     -1.29      0.00
  -31    7   20     -1.53      0.00
  -29    7   20     -0.50      0.00
  -27    7   20     -0.02      0.00
  -25    7   20     -1.96      0.00
  -23    7   20     -4.68      0.00
  -21    7   20     -4.70      0.00
  -19    7   20     -1.81      0.00
  -17    7   20      1.14      0.00
  -15    7   20      2.74      0.00
  -13    7   20      2.99      0.00
  -11    7   20      0.84      0.00
   -9    7   20     -3.37      0.00
   -7    7   20     -5.44      0.00
   -5    7   20     -2.69      0.00
   -3    7   20      1.09      0.00
   -1    7   20      0.95      0.00
    1    7   20     -2.20      0.00
    3    7   20     -4.37      0.00
    5    7   20     -4.59      0.00
    7    7   20     -4.16      0.00
    9    7   20     -3.29      0.00
   11    7   20     -1.66      0.00
  -36    8   20      0.55      0.00
  -34    8   20      1.61      0.00
  -32    8   20      3.22      0.00
  -30    8   20      3.51      0.00
  -28    8   20      2.79      0.00
  -26    8   20      3.36      0.00
  -24    8   20      5.14      0.00
  -22    8   20      5.34      0.00
  -20    8   20      3.26      0.00
  -18    8   20      1.21      0.00
  -16    8   20      0.13      0.00
  -14    8   20     -0.92      0.00
  -12    8   20     -1.09      0.00
  -10    8   20      1.15      0.00
   -8    8   20      3.61      0.00
   -6    8   20      2.60      0.00
   -4    8   20     -1.29      0.00
   -2    8   20     -4.04      0.00
    0    8   20     -3.63      0.00
    2    8   20     -1.44      0.00
    4    8   20      0.22      0.00
    6    8   20     -0.06      0.00
    8    8   20     -1.80      0.00
  -31    9   20     -3.41      0.00
  -29    9   20     -4.19      0.00
  -27    9   20     -4.66      0.00
  -25    9   20     -5.63      0.00
  -23    9   20     -5.97      0.00
  -21    9   20     -4.58      0.00
  -19    9   20     -2.64      0.00
  -17    9   20     -1.51      0.00
  -15    9   20     -0.65      0.00
  -13    9   20      0.32      0.00
  -11    9   20      0.24      0.00
   -9    9   20     -1.06      0.00
   -7    9   20     -1.53      0.00
   -5    9   20      0.20      0.00
   -3    9   20      2.69      0.00
   -1    9   20      3.72      0.00
    1    9   20      2.75      0.00
    3    9   20      1.20      0.00
    5    9   20      0.97      0.00
  -28   10   20      3.59      0.00
  -26   10   20      4.54      0.00
  -24   10   20      4.77      0.00
  -22   10   20      4.26      0.00
  -20   10   20      3.45      0.00
  -18   10   20      2.80      0.00
  -16   10   20      2.19      0.00
  -14   10   20      1.32      0.00
  -12   10   20      0.46      0.00
  -10   10   20      0.16      0.00
   -8   10   20      0.09      0.00
   -6   10   20     -0.69      0.00
   -4   10   20     -2.15      0.00
   -2   10   20     -2.96      0.00
    0   10   20     -2.37      0.00
  -19   11   20     -2.39      0.00
  -17   11   20     -2.59      0.00
  -15   11   20     -1.92      0.00
  -13   11   20     -0.74      0.00
  -11   11   20      0.13      0.00
   -9   11   20      0.41      0.00
   -7   11   20      0.81      0.00
  -45    1   21      1.03      0.00
  -43    1   21      0.34      0.00
  -41    1   21      0.43      0.00
  -39    1   21      2.70      0.00
  -37    1   21      4.35      0.00
  -35    1   21      2.60      0.00
  -33    1   21     -0.30      0.00
  -31    1   21     -0.95      0.00
  -29    1   21     -0.16      0.00
  -27    1   21     -0.34      0.00
  -25    1   21     -0.88      0.00
  -23    1   21     -0.25      0.00
  -21    1   21      0.82      0.00
  -19    1   21      1.14      0.00
  -17    1   21      1.11      0.00
  -15    1   21      1.42      0.00
  -13    1   21      1.97      0.00
  -11    1   21      2.58      0.00
   -9    1   21      2.89      0.00
   -7    1   21      2.52      0.00
   -5    1   21      1.98      0.00
   -3    1   21      1.76      0.00
   -1    1   21      0.93      0.00
    1    1   21     -0.43      0.00
    3    1   21      0.54      0.00
    5    1   21      4.86      0.00
    7    1   21      7.77      0.00
    9    1   21      4.41      0.00
   11    1   21     -2.85      0.00
   13    1   21     -7.34      0.00
   15    1   21     -6.50      0.00
   17    1   21     -3.21      0.00
  -44    2   21      1.03      0.00
  -42    2   21      1.64      0.00
  -40    2   21     -0.67      0.00
  -38    2   21     -4.31      0.00
  -36    2   21     -4.77      0.00
  -34    2   21     -1.88      0.00
  -32    2   21     -0.22      0.00
  -30    2   21     -1.31      0.00
  -28    2   21     -1.93      0.00
  -26    2   21     -0.96      0.00
  -24    2   21     -0.88      0.00
  -22    2   21     -1.96      0.00
  -20    2   21     -1.72      0.00
  -18    2   21     -0.27      0.00
  -16    2   21     -0.05      0.00
  -14    2   21     -1.32      0.00
  -12    2   21     -2.63      0.00
  -10    2   21     -3.70      0.00
   -8    2   21     -4.49      0.00
   -6    2   21     -4.20      0.00
   -4    2   21     -3.09      0.00
   -2    2   21     -2.20      0.00
    0    2   21     -1.53      0.00
    2    2   21     -1.58      0.00
    4    2   21     -4.43      0.00
    6    2   21     -9.05      0.00
    8    2   21     -9.71      0.00
   10    2   21     -3.59      0.00
   12    2   21      3.91      0.00
   14    2   21      6.16      0.00
   16    2   21      3.53      0.00
  -43    3   21     -3.60      0.00
  -41    3   21     -2.42      0.00
  -39    3   21      0.37      0.00
  -37    3   21      2.22      0.00
  -35    3   21      1.81      0.00
  -33    3   21      0.99      0.00
  -31    3   21      1.61      0.00
  -29    3   21      2.48      0.00
  -27    3   21      2.30      0.00
  -25    3   21      2.73      0.00
  -23    3   21      4.46      0.00
  -21    3   21      4.36      0.00
  -19    3   21      0.92      0.00
  -17    3   21     -2.14      0.00
  -15    3   21     -1.81      0.00
  -13    3   21      0.28      0.00
  -11    3   21      2.39      0.00
   -9    3   21      4.86      0.00
   -7    3   21      6.23      0.00
   -5    3   21      4.28      0.00
   -3    3   21      1.23      0.00
   -1    3   21      0.95      0.00
    1    3   21      2.64      0.00
    3    3   21      3.69      0.00
    5    3   21      5.00      0.00
    7    3   21      7.22      0.00
    9    3   21      6.99      0.00
   11    3   21      2.73      0.00
   13    3   21     -1.28      0.00
   15    3   21     -1.41      0.00
  -42    4   21      2.57      0.00
  -40    4   21      1.59      0.00
  -38    4   21      1.08      0.00
  -36    4   21      0.55      0.00
  -34    4   21     -0.36      0.00
  -32    4   21     -1.07      0.00
  -30    4   21     -1.00      0.00
  -28    4   21     -0.85      0.00
  -26    4   21     -2.38      0.00
  -24    4   21     -5.63      0.00
  -22    4   21     -7.20      0.00
  -20    4   21     -4.15      0.00
  -18    4   21      1.30      0.00
  -16    4   21      4.49      0.00
  -14    4   21      4.15      0.00
  -12    4   21      1.37      0.00
  -10    4   21     -3.30      0.00
   -8    4   21     -7.53      0.00
   -6    4   21     -7.01      0.00
   -4    4   21     -2.30      0.00
   -2    4   21      0.20      0.00
    0    4   21     -2.13      0.00
    2    4   21     -4.74      0.00
    4    4   21     -4.87      0.00
    6    4   21     -5.10      0.00
    8    4   21     -6.11      0.00
   10    4   21     -4.71      0.00
   12    4   21     -0.80      0.00
   14    4   21      1.64      0.00
  -41    5   21      0.03      0.00
  -39    5   21     -0.86      0.00
  -37    5   21     -1.38      0.00
  -35    5   21     -0.06      0.00
  -33    5   21      1.57      0.00
  -31    5   21      1.36      0.00
  -29    5   21      0.37      0.00
  -27    5   21      1.47      0.00
  -25    5   21      4.72      0.00
  -23    5   21      6.76      0.00
  -21    5   21      5.22      0.00
  -19    5   21      1.28      0.00
  -17    5   21     -2.77      0.00
  -15    5   21     -5.55      0.00
  -13    5   21     -5.33      0.00
  -11    5   21     -0.59      0.00
   -9    5   21      6.02      0.00
   -7    5   21      8.42      0.00
   -5    5   21      4.82      0.00
   -3    5   21      0.55      0.00
   -1    5   21      0.65      0.00
    1    5   21      3.81      0.00
    3    5   21      6.37      0.00
    5    5   21      7.46      0.00
    7    5   21      7.42      0.00
    9    5   21      5.35      0.00
   11    5   21      1.38      0.00
   13    5   21     -1.97      0.00
  -40    6   21     -1.18      0.00
  -38    6   21      0.22      0.00
  -36    6   21      0.15      0.00
  -34    6   21     -1.44      0.00
  -32    6   21     -2.21      0.00
  -30    6   21     -1.63      0.00
  -28    6   21     -2.07      0.00
  -26    6   21     -4.06      0.00
  -24    6   21     -4.59      0.00
  -22    6   21     -2.37      0.00
  -20    6   21     -0.23      0.00
  -18    6   21      0.37      0.00
  -16    6   21      1.71      0.00
  -14    6   21      3.88      0.00
  -12    6   21      2.89      0.00
  -10    6   21     -2.05      0.00
   -8    6   21     -5.73      0.00
   -6    6   21     -4.30      0.00
   -4    6   21     -0.20      0.00
   -2    6   21      2.33      0.00
    0    6   21      1.63      0.00
    2    6   21     -1.75      0.00
    4    6   21     -5.64      0.00
    6    6   21     -6.83      0.00
    8    6   21     -4.37      0.00
   10    6   21     -0.88      0.00
   12    6   21      1.10      0.00
  -37    7   21     -0.11      0.00
  -35    7   21      0.09      0.00
  -33    7   21      0.88      0.00
  -31    7   21      1.50      0.00
  -29    7   21      2.68      0.00
  -27    7   21      4.55      0.00
  -25    7   21      4.40      0.00
  -23    7   21      0.72      0.00
  -21    7   21     -2.79      0.00
  -19    7   21     -2.37      0.00
  -17    7   21     -0.20      0.00
  -15    7   21     -0.18      0.00
  -13    7   21     -1.29      0.00
  -11    7   21     -0.58      0.00
   -9    7   21      1.09      0.00
   -7    7   21      1.13      0.00
   -5    7   21     -0.69      0.00
   -3    7   21     -3.10      0.00
   -1    7   21     -4.64      0.00
    1    7   21     -3.37      0.00
    3    7   21      0.49      0.00
    5    7   21      2.94      0.00
    7    7   21      1.44      0.00
    9    7   21     -1.05      0.00
  -34    8   21      1.01      0.00
  -32    8   21      0.82      0.00
  -30    8   21     -0.91      0.00
  -28    8   21     -3.82      0.00
  -26    8   21     -5.14      0.00
  -24    8   21     -2.50      0.00
  -22    8   21      1.99      0.00
  -20    8   21      3.90      0.00
  -18    8   21      2.22      0.00
  -16    8   21     -0.21      0.00
  -14    8   21     -1.10      0.00
  -12    8   21     -0.43      0.00
  -10    8   21      0.95      0.00
   -8    8   21      2.00      0.00
   -6    8   21      1.98      0.00
   -4    8   21      1.64      0.00
   -2    8   21      1.97      0.00
    0    8   21      1.93      0.00
    2    8   21      0.39      0.00
    4    8   21     -1.01      0.00
    6    8   21     -0.35      0.00
  -31    9   21     -1.87      0.00
  -29    9   21      0.84      0.00
  -27    9   21      3.69      0.00
  -25    9   21      3.60      0.00
  -23    9   21      0.72      0.00
  -21    9   21     -1.96      0.00
  -19    9   21     -2.29      0.00
  -17    9   21     -0.41      0.00
  -15    9   21      2.16      0.00
  -13    9   21      3.28      0.00
  -11    9   21      1.55      0.00
   -9    9   21     -1.59      0.00
   -7    9   21     -3.17      0.00
   -5    9   21     -2.37      0.00
   -3    9   21     -0.82      0.00
   -1    9   21      0.25      0.00
    1    9   21      0.80      0.00
    3    9   21      0.72      0.00
  -26   10   21     -2.62      0.00
  -24   10   21     -1.67      0.00
  -22   10   21      0.16      0.00
  -20   10   21      1.06      0.00
  -18   10   21      0.45      0.00
  -16   10   21     -1.47      0.00
  -14   10   21     -3.52      0.00
  -12   10   21     -3.73      0.00
  -10   10   21     -1.43      0.00
   -8   10   21      1.51      0.00
   -6   10   21      2.80      0.00
   -4   10   21      2.15      0.00
   -2   10   21      0.79      0.00
  -44    0   22      0.86      0.00
  -42    0   22      1.01      0.00
  -40    0   22      3.22      0.00
  -38    0   22      5.24      0.00
  -36    0   22      3.04      0.00
  -34    0   22     -1.80      0.00
  -32    0   22     -3.70      0.00
  -30    0   22     -1.76      0.00
  -28    0   22      0.29      0.00
  -26    0   22      1.60      0.00
  -24    0   22      4.14      0.00
  -22    0   22      6.94      0.00
  -20    0   22      7.22      0.00
  -18    0   22      5.36      0.00
  -16    0   22      3.72      0.00
  -14    0   22      3.11      0.00
  -12    0   22      3.48      0.00
  -10    0   22      4.72      0.00
   -8    0   22      5.41      0.00
   -6    0   22      4.06      0.00
   -4    0   22      1.26      0.00
   -2    0   22     -1.41      0.00
    0    0   22     -2.41      0.00
    2    0   22      0.81      0.00
    4    0   22      8.70      0.00
    6    0   22     14.71      0.00
    8    0   22     10.67      0.00
   10    0   22     -1.76      0.00
  -45    1   22     -0.16      0.00
  -43    1   22     -0.18      0.00
  -41    1   22     -1.15      0.00
  -39    1   22     -2.86      0.00
  -37    1   22     -2.85      0.00
  -35    1   22     -0.08      0.00
  -33    1   22      2.45      0.00
  -31    1   22      2.02      0.00
  -29    1   22      0.18      0.00
  -27    1   22     -1.02      0.00
  -25    1   22     -2.61      0.00
  -23    1   22     -5.15      0.00
  -21    1   22     -6.25      0.00
  -19    1   22     -4.74      0.00
  -17    1   22     -2.80      0.00
  -15    1   22     -2.12      0.00
  -13    1   22     -2.29      0.00
  -11    1   22     -3.06      0.00
   -9    1   22     -4.31      0.00
   -7    1   22     -4.49      0.00
   -5    1   22     -2.53      0.00
   -3    1   22      0.12      0.00
   -1    1   22      1.36      0.00
    1    1   22      0.08      0.00
    3    1   22     -4.07      0.00
    5    1   22     -9.10      0.00
    7    1   22     -9.88      0.00
    9    1   22     -3.61      0.00
   11    1   22      5.13      0.00
   13    1   22      9.22      0.00
  -44    2   22     -0.74      0.00
  -42    2   22      0.10      0.00
  -40    2   22     -0.03      0.00
  -38    2   22     -0.83      0.00
  -36    2   22     -1.29      0.00
  -34    2   22     -1.43      0.00
  -32    2   22     -1.55      0.00
  -30    2   22     -1.47      0.00
  -28    2   22     -0.93      0.00
  -26    2   22      0.42      0.00
  -24    2   22      2.56      0.00
  -22    2   22      3.94      0.00
  -20    2   22      2.94      0.00
  -18    2   22      0.68      0.00
  -16    2   22     -0.33      0.00
  -14    2   22      0.20      0.00
  -12    2   22      1.01      0.00
  -10    2   22      1.96      0.00
   -8    2   22      2.78      0.00
   -6    2   22      1.85      0.00
   -4    2   22     -0.74      0.00
   -2    2   22     -2.03      0.00
    0    2   22     -0.62      0.00
    2    2   22      1.22      0.00
    4    2   22      1.59      0.00
    6    2   22      1.17      0.00
    8    2   22      0.46      0.00
   10    2   22     -1.08      0.00
   12    2   22     -2.74      0.00
   14    2   22     -2.84      0.00
  -43    3   22     -0.83      0.00
  -41    3   22     -0.74      0.00
  -39    3   22      1.85      0.00
  -37    3   22      3.23      0.00
  -35    3   22      1.91      0.00
  -33    3   22      0.90      0.00
  -31    3   22      2.18      0.00
  -29    3   22      3.57      0.00
  -27    3   22      2.87      0.00
  -25    3   22      0.85      0.00
  -23    3   22     -0.75      0.00
  -21    3   22     -1.07      0.00
  -19    3   22      0.01      0.00
  -17    3   22      1.60      0.00
  -15    3   22      2.04      0.00
  -13    3   22      0.78      0.00
  -11    3   22     -0.91      0.00
   -9    3   22     -1.46      0.00
   -7    3   22     -0.32      0.00
   -5    3   22      1.96      0.00
   -3    3   22      3.67      0.00
   -1    3   22      3.34      0.00
    1    3   22      1.84      0.00
    3    3   22      1.65      0.00
    5    3   22      3.22      0.00
    7    3   22      4.47      0.00
    9    3   22      4.16      0.00
   11    3   22      3.26      0.00
   13    3   22      2.69      0.00
  -42    4   22      3.00      0.00
  -40    4   22      1.13      0.00
  -38    4   22     -1.51      0.00
  -36    4   22     -1.17      0.00
  -34    4   22      0.68      0.00
  -32    4   22      0.18      0.00
  -30    4   22     -2.15      0.00
  -28    4   22     -3.06      0.00
  -26    4   22     -2.55      0.00
  -24    4   22     -2.56      0.00
  -22    4   22     -2.45      0.00
  -20    4   22     -1.17      0.00
  -18    4   22     -0.59      0.00
  -16    4   22     -1.69      0.00
  -14    4   22     -1.74      0.00
  -12    4   22      0.51      0.00
  -10    4   22      1.76      0.00
   -8    4   22     -0.06      0.00
   -6    4   22     -2.38      0.00
   -4    4   22     -3.23      0.00
   -2    4   22     -3.88      0.00
    0    4   22     -4.57      0.00
    2    4   22     -3.72      0.00
    4    4   22     -2.22      0.00
    6    4   22     -2.76      0.00
    8    4   22     -4.92      0.00
   10    4   22     -5.88      0.00
   12    4   22     -5.02      0.00
  -41    5   22     -3.10      0.00
  -39    5   22     -1.20      0.00
  -37    5   22     -0.13      0.00
  -35    5   22     -0.95      0.00
  -33    5   22     -1.49      0.00
  -31    5   22     -0.58      0.00
  -29    5   22      0.29      0.00
  -27    5   22      1.08      0.00
  -25    5   22      3.58      0.00
  -23    5   22      6.21      0.00
  -21    5   22      5.09      0.00
  -19    5   22      1.28      0.00
  -17    5   22     -0.42      0.00
  -15    5   22      0.04      0.00
  -13    5   22     -0.75      0.00
  -11    5   22     -1.61      0.00
   -9    5   22      0.71      0.00
   -7    5   22      3.81      0.00
   -5    5   22      4.02      0.00
   -3    5   22      3.90      0.00
   -1    5   22      6.39      0.00
    1    5   22      7.74      0.00
    3    5   22      4.82      0.00
    5    5   22      2.09      0.00
    7    5   22      3.67      0.00
    9    5   22      6.20      0.00
   11    5   22      5.49      0.00
  -38    6   22      0.54      0.00
  -36    6   22     -0.18      0.00
  -34    6   22     -0.53      0.00
  -32    6   22     -0.51      0.00
  -30    6   22      0.24      0.00
  -28    6   22      0.49      0.00
  -26    6   22     -2.17      0.00
  -24    6   22     -6.72      0.00
  -22    6   22     -8.28      0.00
  -20    6   22     -5.11      0.00
  -18    6   22     -1.27      0.00
  -16    6   22      0.32      0.00
  -14    6   22      0.96      0.00
  -12    6   22      0.75      0.00
  -10    6   22     -2.22      0.00
   -8    6   22     -5.76      0.00
   -6    6   22     -5.65      0.00
   -4    6   22     -3.78      0.00
   -2    6   22     -5.27      0.00
    0    6   22     -8.60      0.00
    2    6   22     -8.34      0.00
    4    6   22     -5.38      0.00
    6    6   22     -4.74      0.00
    8    6   22     -6.00      0.00
   10    6   22     -5.01      0.00
  -37    7   22      0.38      0.00
  -35    7   22      1.87      0.00
  -33    7   22      3.04      0.00
  -31    7   22      2.22      0.00
  -29    7   22      0.38      0.00
  -27    7   22      0.81      0.00
  -25    7   22      4.17      0.00
  -23    7   22      6.84      0.00
  -21    7   22      6.28      0.00
  -19    7   22      4.19      0.00
  -17    7   22      2.46      0.00
  -15    7   22      0.78      0.00
  -13    7   22      0.12      0.00
  -11    7   22      2.50      0.00
   -9    7   22      5.90      0.00
   -7    7   22      5.62      0.00
   -5    7   22      1.97      0.00
   -3    7   22      0.21      0.00
   -1    7   22      2.16      0.00
    1    7   22      4.38      0.00
    3    7   22      4.60      0.00
    5    7   22      4.15      0.00
    7    7   22      3.84      0.00
  -34    8   22     -2.87      0.00
  -32    8   22     -3.85      0.00
  -30    8   22     -2.58      0.00
  -28    8   22     -1.42      0.00
  -26    8   22     -2.44      0.00
  -24    8   22     -4.00      0.00
  -22    8   22     -3.95      0.00
  -20    8   22     -3.20      0.00
  -18    8   22     -2.92      0.00
  -16    8   22     -2.04      0.00
  -14    8   22     -0.59      0.00
  -12    8   22     -0.92      0.00
  -10    8   22     -3.14      0.00
   -8    8   22     -3.71      0.00
   -6    8   22     -0.93      0.00
   -4    8   22      2.44      0.00
   -2    8   22      3.39      0.00
    0    8   22      1.96      0.00
    2    8   22     -0.10      0.00
    4    8   22     -1.15      0.00
  -29    9   22      2.13      0.00
  -27    9   22      2.35      0.00
  -25    9   22      3.09      0.00
  -23    9   22      2.86      0.00
  -21    9   22      1.85      0.00
  -19    9   22      1.50      0.00
  -17    9   22      1.74      0.00
  -15    9   22      1.44      0.00
  -13    9   22      0.79      0.00
  -11    9   22      0.74      0.00
   -9    9   22      0.88      0.00
   -7    9   22      0.13      0.00
   -5    9   22     -1.41      0.00
   -3    9   22     -2.69      0.00
   -1    9   22     -2.84      0.00
    1    9   22     -1.85      0.00
  -22   10   22     -1.87      0.00
  -20   10   22     -1.29      0.00
  -18   10   22     -1.67      0.00
  -16   10   22     -2.55      0.00
  -14   10   22     -2.76      0.00
  -12   10   22     -1.73      0.00
  -10   10   22     -0.19      0.00
   -8   10   22      0.82      0.00
   -6   10   22      1.06      0.00
  -43    1   23      0.86      0.00
  -41    1   23     -0.01      0.00
  -39    1   23     -1.77      0.00
  -37    1   23     -2.24      0.00
  -35    1   23     -1.28      0.00
  -33    1   23     -0.97      0.00
  -31    1   23     -1.52      0.00
  -29    1   23     -1.37      0.00
  -27    1   23     -0.84      0.00
  -25    1   23     -1.28      0.00
  -23    1   23     -2.01      0.00
  -21    1   23     -1.75      0.00
  -19    1   23     -1.55      0.00
  -17    1   23     -2.71      0.00
  -15    1   23     -4.30      0.00
  -13    1   23     -4.89      0.00
  -11    1   23     -4.47      0.00
   -9    1   23     -3.43      0.00
   -7    1   23     -2.23      0.00
   -5    1   23     -1.51      0.00
   -3    1   23     -0.95      0.00
   -1    1   23      0.27      0.00
    1    1   23      0.75      0.00
    3    1   23     -1.75      0.00
    5    1   23     -5.10      0.00
    7    1   23     -4.21      0.00
    9    1   23      1.24      0.00
   11    1   23      5.79      0.00
  -44    2   23     -1.81      0.00
  -42    2   23     -1.49      0.00
  -40    2   23      0.77      0.00
  -38    2   23      2.81      0.00
  -36    2   23      2.58      0.00
  -34    2   23      1.81      0.00
  -32    2   23      2.45      0.00
  -30    2   23      3.02      0.00
  -28    2   23      2.43      0.00
  -26    2   23      2.63      0.00
  -24    2   23      4.02      0.00
  -22    2   23      3.83      0.00
  -20    2   23      1.91      0.00
  -18    2   23      1.90      0.00
  -16    2   23      4.54      0.00
  -14    2   23      6.43      0.00
  -12    2   23      6.20      0.00
  -10    2   23      5.73      0.00
   -8    2   23      5.57      0.00
   -6    2   23      4.69      0.00
   -4    2   23      3.34      0.00
   -2    2   23      2.17      0.00
    0    2   23      1.13      0.00
    2    2   23      1.15      0.00
    4    2   23      2.91      0.00
    6    2   23      3.53      0.00
    8    2   23     -0.11      0.00
   10    2   23     -5.42      0.00
   12    2   23     -7.08      0.00
  -43    3   23      2.49      0.00
  -41    3   23      1.35      0.00
  -39    3   23     -0.50      0.00
  -37    3   23     -1.25      0.00
  -35    3   23     -0.72      0.00
  -33    3   23     -0.50      0.00
  -31    3   23     -0.86      0.00
  -29    3   23     -0.93      0.00
  -27    3   23     -1.78      0.00
  -25    3   23     -4.41      0.00
  -23    3   23     -5.89      0.00
  -21    3   23     -3.47      0.00
  -19    3   23     -0.46      0.00
  -17    3   23     -1.18      0.00
  -15    3   23     -3.63      0.00
  -13    3   23     -4.20      0.00
  -11    3   23     -4.51      0.00
   -9    3   23     -6.54      0.00
   -7    3   23     -7.28      0.00
   -5    3   23     -4.68      0.00
   -3    3   23     -2.12      0.00
   -1    3   23     -1.90      0.00
    1    3   23     -1.45      0.00
    3    3   23      0.75      0.00
    5    3   23      2.65      0.00
    7    3   23      3.59      0.00
    9    3   23      4.90      0.00
   11    3   23      5.76      0.00
   13    3   23      4.35      0.00
  -42    4   23     -1.36      0.00
  -40    4   23     -0.74      0.00
  -38    4   23     -0.27      0.00
  -36    4   23     -0.35      0.00
  -34    4   23     -1.09      0.00
  -32    4   23     -2.08      0.00
  -30    4   23     -2.56      0.00
  -28    4   23     -1.36      0.00
  -26    4   23      2.03      0.00
  -24    4   23      5.24      0.00
  -22    4   23      4.75      0.00
  -20    4   23      1.18      0.00
  -18    4   23     -1.24      0.00
  -16    4   23     -1.07      0.00
  -14    4   23     -0.21      0.00
  -12    4   23      1.70      0.00
  -10    4   23      6.05      0.00
   -8    4   23      9.44      0.00
   -6    4   23      7.35      0.00
   -4    4   23      2.52      0.00
   -2    4   23      0.80      0.00
    0    4   23      1.47      0.00
    2    4   23     -0.04      0.00
    4    4   23     -3.29      0.00
    6    4   23     -4.78      0.00
    8    4   23     -4.70      0.00
   10    4   23     -5.05      0.00
  -39    5   23     -0.25      0.00
  -37    5   23     -0.26      0.00
  -35    5   23     -0.06      0.00
  -33    5   23      1.08      0.00
  -31    5   23      2.36      0.00
  -29    5   23      1.90      0.00
  -27    5   23     -0.51      0.00
  -25    5   23     -2.68      0.00
  -23    5   23     -2.73      0.00
  -21    5   23     -1.25      0.00
  -19    5   23      0.40      0.00
  -17    5   23      2.10      0.00
  -15    5   23      3.22      0.00
  -13    5   23      1.08      0.00
  -11    5   23     -5.21      0.00
   -9    5   23    -11.00      0.00
   -7    5   23    -10.77      0.00
   -5    5   23     -5.57      0.00
   -3    5   23     -1.31      0.00
   -1    5   23     -0.61      0.00
    1    5   23     -1.17      0.00
    3    5   23     -1.02      0.00
    5    5   23     -0.50      0.00
    7    5   23      0.38      0.00
    9    5   23      2.23      0.00
  -38    6   23      0.61      0.00
  -36    6   23      0.66      0.00
  -34    6   23      0.39      0.00
  -32    6   23     -0.27      0.00
  -30    6   23      0.09      0.00
  -28    6   23      1.56      0.00
  -26    6   23      1.56      0.00
  -24    6   23     -0.91      0.00
  -22    6   23     -2.70      0.00
  -20    6   23     -1.75      0.00
  -18    6   23     -1.00      0.00
  -16    6   23     -2.58      0.00
  -14    6   23     -2.60      0.00
  -12    6   23      2.46      0.00
  -10    6   23      8.76      0.00
   -8    6   23     10.09      0.00
   -6    6   23      6.02      0.00
   -4    6   23      0.77      0.00
   -2    6   23     -2.34      0.00
    0    6   23     -2.22      0.00
    2    6   23      0.55      0.00
    4    6   23      3.23      0.00
    6    6   23      3.12      0.00
    8    6   23      0.73      0.00
  -35    7   23      0.07      0.00
  -33    7   23      0.20      0.00
  -31    7   23     -0.71      0.00
  -29    7   23     -2.65      0.00
  -27    7   23     -2.67      0.00
  -25    7   23      1.42      0.00
  -23    7   23      6.25      0.00
  -21    7   23      6.87      0.00
  -19    7   23      4.31      0.00
  -17    7   23      3.11      0.00
  -15    7   23      3.17      0.00
  -13    7   23      0.99      0.00
  -11    7   23     -2.92      0.00
   -9    7   23     -4.56      0.00
   -7    7   23     -2.71      0.00
   -5    7   23      0.81      0.00
   -3    7   23      4.22      0.00
   -1    7   23      5.49      0.00
    1    7   23      3.06      0.00
    3    7   23     -0.87      0.00
    5    7   23     -2.13      0.00
  -32    8   23     -0.74      0.00
  -30    8   23      1.64      0.00
  -28    8   23      3.62      0.00
  -26    8   23      1.62      0.00
  -24    8   23     -3.69      0.00
  -22    8   23     -7.61      0.00
  -20    8   23     -7.60      0.00
  -18    8   23     -5.44      0.00
  -16    8   23     -3.20      0.00
  -14    8   23     -1.19      0.00
  -12    8   23     -0.03      0.00
  -10    8   23     -0.42      0.00
   -8    8   23     -1.47      0.00
   -6    8   23     -2.16      0.00
   -4    8   23     -2.92      0.00
   -2    8   23     -3.58      0.00
    0    8   23     -2.60      0.00
    2    8   23     -0.34      0.00
  -27    9   23     -3.40      0.00
  -25    9   23     -1.08      0.00
  -23    9   23      2.74      0.00
  -21    9   23      5.02      0.00
  -19    9   23      4.53      0.00
  -17    9   23      1.70      0.00
  -15    9   23     -1.67      0.00
  -13    9   23     -2.78      0.00
  -11    9   23     -0.60      0.00
   -9    9   23      2.41      0.00
   -7    9   23      3.46      0.00
   -5    9   23      2.65      0.00
   -3    9   23      1.48      0.00
  -18   10   23     -0.21      0.00
  -16   10   23      2.61      0.00
  -14   10   23      4.56      0.00
  -12   10   23      3.60      0.00
  -42    0   24     -0.29      0.00
  -40    0   24     -1.52      0.00
  -38    0   24     -1.76      0.00
  -36    0   24      0.40      0.00
  -34    0   24      2.18      0.00
  -32    0   24      1.52      0.00
  -30    0   24      0.28      0.00
  -28    0   24     -0.68      0.00
  -26    0   24     -3.32      0.00
  -24    0   24     -7.00      0.00
  -22    0   24     -8.08      0.00
  -20    0   24     -6.33      0.00
  -18    0   24     -5.06      0.00
  -16    0   24     -5.08      0.00
  -14    0   24     -4.81      0.00
  -12    0   24     -4.45      0.00
  -10    0   24     -4.72      0.00
   -8    0   24     -3.95      0.00
   -6    0   24     -0.78      0.00
   -4    0   24      3.19      0.00
   -2    0   24      5.20      0.00
    0    0   24      3.17      0.00
    2    0   24     -2.97      0.00
    4    0   24     -8.52      0.00
    6    0   24     -6.41      0.00
    8    0   24      3.52      0.00
   10    0   24     12.17      0.00
  -43    1   24      0.37      0.00
  -41    1   24      0.97      0.00
  -39    1   24      1.87      0.00
  -37    1   24      1.08      0.00
  -35    1   24     -1.06      0.00
  -33    1   24     -1.94      0.00
  -31    1   24     -1.21      0.00
  -29    1   24     -0.35      0.00
  -27    1   24      1.28      0.00
  -25    1   24      4.55      0.00
  -23    1   24      6.94      0.00
  -21    1   24      6.13      0.00
  -19    1   24      4.25      0.00
  -17    1   24      3.91      0.00
  -15    1   24      4.01      0.00
  -13    1   24      3.39      0.00
  -11    1   24      3.44      0.00
   -9    1   24      4.22      0.00
   -7    1   24      3.10      0.00
   -5    1   24     -0.49      0.00
   -3    1   24     -3.43      0.00
   -1    1   24     -2.92      0.00
    1    1   24      0.73      0.00
    3    1   24      4.67      0.00
    5    1   24      4.71      0.00
    7    1   24     -1.00      0.00
    9    1   24     -8.40      0.00
   11    1   24    -10.96      0.00
  -42    2   24     -0.91      0.00
  -40    2   24     -1.08      0.00
  -38    2   24     -1.00      0.00
  -36    2   24      0.18      0.00
  -34    2   24      2.24      0.00
  -32    2   24      3.69      0.00
  -30    2   24      3.68      0.00
  -28    2   24      2.37      0.00
  -26    2   24     -0.12      0.00
  -24    2   24     -2.77      0.00
  -22    2   24     -3.49      0.00
  -20    2   24     -2.21      0.00
  -18    2   24     -1.31      0.00
  -16    2   24     -1.52      0.00
  -14    2   24     -1.32      0.00
  -12    2   24     -0.95      0.00
  -10    2   24     -2.01      0.00
   -8    2   24     -2.98      0.00
   -6    2   24     -0.96      0.00
   -4    2   24      2.40      0.00
   -2    2   24      2.70      0.00
    0    2   24     -0.08      0.00
    2    2   24     -1.63      0.00
    4    2   24      0.30      0.00
    6    2   24      3.94      0.00
    8    2   24      6.79      0.00
   10    2   24      7.43      0.00
  -41    3   24      1.06      0.00
  -39    3   24      0.40      0.00
  -37    3   24     -0.02      0.00
  -35    3   24     -1.51      0.00
  -33    3   24     -4.43      0.00
  -31    3   24     -6.60      0.00
  -29    3   24     -6.44      0.00
  -27    3   24     -4.96      0.00
  -25    3   24     -3.45      0.00
  -23    3   24     -2.02      0.00
  -21    3   24     -1.00      0.00
  -19    3   24     -0.93      0.00
  -17    3   24     -1.26      0.00
  -15    3   24     -0.98      0.00
  -13    3   24     -0.05      0.00
  -11    3   24      1.09      0.00
   -9    3   24      1.73      0.00
   -7    3   24      0.65      0.00
   -5    3   24     -2.15      0.00
   -3    3   24     -3.99      0.00
   -1    3   24     -2.73      0.00
    1    3   24     -0.41      0.00
    3    3   24     -0.57      0.00
    5    3   24     -3.13      0.00
    7    3   24     -5.23      0.00
    9    3   24     -5.46      0.00
   11    3   24     -4.45      0.00
  -40    4   24     -1.06      0.00
  -38    4   24     -0.78      0.00
  -36    4   24     -0.75      0.00
  -34    4   24      0.85      0.00
  -32    4   24      3.48      0.00
  -30    4   24      4.81      0.00
  -28    4   24      5.14      0.00
  -26    4   24      6.43      0.00
  -24    4   24      7.45      0.00
  -22    4   24      5.67      0.00
  -20    4   24      2.81      0.00
  -18    4   24      2.25      0.00
  -16    4   24      2.58      0.00
  -14    4   24      0.44      0.00
  -12    4   24     -2.75      0.00
  -10    4   24     -3.24      0.00
   -8    4   24     -1.30      0.00
   -6    4   24      0.68      0.00
   -4    4   24      2.52      0.00
   -2    4   24      4.16      0.00
    0    4   24      3.46      0.00
    2    4   24      0.38      0.00
    4    4   24     -1.40      0.00
    6    4   24      0.13      0.00
    8    4   24      2.67      0.00
  -39    5   24      0.81      0.00
  -37    5   24      1.25      0.00
  -35    5   24      1.47      0.00
  -33    5   24      0.75      0.00
  -31    5   24      0.14      0.00
  -29    5   24     -0.51      0.00
  -27    5   24     -3.50      0.00
  -25    5   24     -8.00      0.00
  -23    5   24     -9.08      0.00
  -21    5   24     -5.67      0.00
  -19    5   24     -2.99      0.00
  -17    5   24     -3.13      0.00
  -15    5   24     -1.78      0.00
  -13    5   24      2.25      0.00
  -11    5   24      3.82      0.00
   -9    5   24      1.27      0.00
   -7    5   24     -0.99      0.00
   -5    5   24     -1.75      0.00
   -3    5   24     -4.09      0.00
   -1    5   24     -6.51      0.00
    1    5   24     -4.37      0.00
    3    5   24      0.52      0.00
    5    5   24      1.88      0.00
    7    5   24     -0.82      0.00
  -36    6   24     -0.31      0.00
  -34    6   24     -0.37      0.00
  -32    6   24     -1.06      0.00
  -30    6   24     -1.98      0.00
  -28    6   24     -0.42      0.00
  -26    6   24      4.35      0.00
  -24    6   24      8.18      0.00
  -22    6   24      7.75      0.00
  -20    6   24      5.72      0.00
  -18    6   24      5.32      0.00
  -16    6   24      4.46      0.00
  -14    6   24      1.30      0.00
  -12    6   24     -0.51      0.00
  -10    6   24      1.48      0.00
   -8    6   24      3.51      0.00
   -6    6   24      3.10      0.00
   -4    6   24      3.70      0.00
   -2    6   24      6.65      0.00
    0    6   24      7.29      0.00
    2    6   24      3.87      0.00
    4    6   24      1.20      0.00
    6    6   24      2.06      0.00
  -35    7   24     -1.21      0.00
  -33    7   24     -1.18      0.00
  -31    7   24      0.47      0.00
  -29    7   24      1.43      0.00
  -27    7   24     -0.51      0.00
  -25    7   24     -3.61      0.00
  -23    7   24     -5.15      0.00
  -21    7   24     -5.71      0.00
  -19    7   24     -6.61      0.00
  -17    7   24     -6.17      0.00
  -15    7   24     -3.45      0.00
  -13    7   24     -1.73      0.00
  -11    7   24     -3.26      0.00
   -9    7   24     -4.82      0.00
   -7    7   24     -3.38      0.00
   -5    7   24     -1.43      0.00
   -3    7   24     -2.02      0.00
   -1    7   24     -3.49      0.00
    1    7   24     -3.30      0.00
    3    7   24     -2.44      0.00
  -30    8   24     -0.18      0.00
  -28    8   24     -0.87      0.00
  -26    8   24     -0.18      0.00
  -24    8   24      0.41      0.00
  -22    8   24      1.12      0.00
  -20    8   24      2.68      0.00
  -18    8   24      3.37      0.00
  -16    8   24      1.66      0.00
  -14    8   24     -0.15      0.00
  -12    8   24      0.64      0.00
  -10    8   24      2.40      0.00
   -8    8   24      1.98      0.00
   -6    8   24     -0.28      0.00
   -4    8   24     -1.84      0.00
   -2    8   24     -1.76      0.00
  -25    9   24      0.92      0.00
  -23    9   24      1.38      0.00
  -21    9   24      1.23      0.00
  -19    9   24      0.54      0.00
  -17    9   24      0.50      0.00
  -15    9   24      1.20      0.00
  -13    9   24      1.47      0.00
  -11    9   24      0.96      0.00
   -9    9   24      0.55      0.00
   -7    9   24      0.87      0.00
  -41    1   25     -1.70      0.00
  -39    1   25     -1.58      0.00
  -37    1   25     -0.94      0.00
  -35    1   25      0.44      0.00
  -33    1   25      1.87      0.00
  -31    1   25      1.82      0.00
  -29    1   25      0.75      0.00
  -27    1   25      0.72      0.00
  -25    1   25      1.54      0.00
  -23    1   25      1.18      0.00
  -21    1   25      0.01      0.00
  -19    1   25      0.31      0.00
  -17    1   25      2.06      0.00
  -15    1   25      3.26      0.00
  -13    1   25      3.28      0.00
  -11    1   25      2.79      0.00
   -9    1   25      2.07      0.00
   -7    1   25      1.41      0.00
   -5    1   25      1.04      0.00
   -3    1   25      0.29      0.00
   -1    1   25     -0.72      0.00
    1    1   25      0.00      0.00
    3    1   25      2.70      0.00
    5    1   25      3.77      0.00
    7    1   25      1.05      0.00
    9    1   25     -2.25      0.00
  -42    2   25      1.53      0.00
  -40    2   25      1.45      0.00
  -38    2   25      0.73      0.00
  -36    2   25     -0.41      0.00
  -34    2   25     -2.16      0.00
  -32    2   25     -3.12      0.00
  -30    2   25     -2.34      0.00
  -28    2   25     -2.06      0.00
  -26    2   25     -3.83      0.00
  -24    2   25     -4.60      0.00
  -22    2   25     -2.25      0.00
  -20    2   25     -0.32      0.00
  -18    2   25     -1.96      0.00
  -16    2   25     -4.40      0.00
  -14    2   25     -4.40      0.00
  -12    2   25     -3.58      0.00
  -10    2   25     -4.00      0.00
   -8    2   25     -4.31      0.00
   -6    2   25     -3.24      0.00
   -4    2   25     -1.76      0.00
   -2    2   25     -0.64      0.00
    0    2   25      0.01      0.00
    2    2   25     -0.25      0.00
    4    2   25     -0.52      0.00
    6    2   25      1.29      0.00
    8    2   25      4.22      0.00
  -41    3   25     -0.86      0.00
  -39    3   25     -0.45      0.00
  -37    3   25     -0.45      0.00
  -35    3   25     -0.67      0.00
  -33    3   25     -0.64      0.00
  -31    3   25     -0.74      0.00
  -29    3   25     -0.16      0.00
  -27    3   25      2.70      0.00
  -25    3   25      5.87      0.00
  -23    3   25      5.16      0.00
  -21    3   25      1.80      0.00
  -19    3   25      1.21      0.00
  -17    3   25      3.47      0.00
  -15    3   25      3.65      0.00
  -13    3   25      1.80      0.00
  -11    3   25      2.55      0.00
   -9    3   25      5.22      0.00
   -7    3   25      4.78      0.00
   -5    3   25      1.43      0.00
   -3    3   25     -0.34      0.00
   -1    3   25     -0.31      0.00
    1    3   25     -1.76      0.00
    3    3   25     -4.88      0.00
    5    3   25     -7.21      0.00
    7    3   25     -7.70      0.00
  -40    4   25     -0.23      0.00
  -38    4   25      0.40      0.00
  -36    4   25      2.42      0.00
  -34    4   25      4.82      0.00
  -32    4   25      6.13      0.00
  -30    4   25      5.55      0.00
  -28    4   25      2.75      0.00
  -26    4   25     -1.03      0.00
  -24    4   25     -2.78      0.00
  -22    4   25     -1.64      0.00
  -20    4   25     -0.82      0.00
  -18    4   25     -2.01      0.00
  -16    4   25     -2.33      0.00
  -14    4   25     -0.76      0.00
  -12    4   25     -1.36      0.00
  -10    4   25     -5.21      0.00
   -8    4   25     -6.67      0.00
   -6    4   25     -2.87      0.00
   -4    4   25      1.26      0.00
   -2    4   25      1.92      0.00
    0    4   25      2.24      0.00
    2    4   25      5.04      0.00
    4    4   25      7.77      0.00
    6    4   25      7.82      0.00
  -37    5   25     -0.79      0.00
  -35    5   25     -3.74      0.00
  -33    5   25     -6.13      0.00
  -31    5   25     -6.44      0.00
  -29    5   25     -5.04      0.00
  -27    5   25     -3.72      0.00
  -25    5   25     -3.41      0.00
  -23    5   25     -2.89      0.00
  -21    5   25     -0.86      0.00
  -19    5   25      1.40      0.00
  -17    5   25      1.55      0.00
  -15    5   25      0.55      0.00
  -13    5   25      2.15      0.00
  -11    5   25      6.69      0.00
   -9    5   25      9.32      0.00
   -7    5   25      6.70      0.00
   -5    5   25      1.62      0.00
   -3    5   25     -1.62      0.00
   -1    5   25     -2.69      0.00
    1    5   25     -3.34      0.00
    3    5   25     -3.71      0.00
    5    5   25     -3.28      0.00
  -36    6   25      0.96      0.00
  -34    6   25      2.72      0.00
  -32    6   25      2.99      0.00
  -30    6   25      2.08      0.00
  -28    6   25      2.70      0.00
  -26    6   25      5.94      0.00
  -24    6   25      8.13      0.00
  -22    6   25      5.63      0.00
  -20    6   25      1.15      0.00
  -18    6   25     -0.06      0.00
  -16    6   25      1.18      0.00
  -14    6   25     -0.46      0.00
  -12    6   25     -5.55      0.00
  -10    6   25     -8.96      0.00
   -8    6   25     -7.57      0.00
   -6    6   25     -3.22      0.00
   -4    6   25      1.25      0.00
   -2    6   25      4.19      0.00
    0    6   25      4.48      0.00
    2    6   25      2.48      0.00
  -33    7   25     -0.54      0.00
  -31    7   25      0.67      0.00
  -29    7   25      0.71      0.00
  -27    7   25     -3.16      0.00
  -25    7   25     -8.50      0.00
  -23    7   25     -9.82      0.00
  -21    7   25     -6.78      0.00
  -19    7   25     -4.55      0.00
  -17    7   25     -4.94      0.00
  -15    7   25     -3.98      0.00
  -13    7   25      0.16      0.00
  -11    7   25      3.84      0.00
   -9    7   25      4.09      0.00
   -7    7   25      1.80      0.00
   -5    7   25     -1.54      0.00
   -3    7   25     -4.74      0.00
   -1    7   25     -5.55      0.00
  -28    8   25     -0.85      0.00
  -26    8   25      3.47      0.00
  -24    8   25      7.42      0.00
  -22    8   25      8.33      0.00
  -20    8   25      7.58      0.00
  -18    8   25      6.79      0.00
  -16    8   25      5.13      0.00
  -14    8   25      2.33      0.00
  -12    8   25      0.31      0.00
  -10    8   25      0.01      0.00
   -8    8   25      0.42      0.00
   -6    8   25      1.20      0.00
   -4    8   25      2.57      0.00
  -21    9   25     -4.72      0.00
  -19    9   25     -4.11      0.00
  -17    9   25     -1.67      0.00
  -15    9   25      1.00      0.00
  -13    9   25      1.50      0.00
  -42    0   26     -1.47      0.00
  -40    0   26     -1.62      0.00
  -38    0   26     -1.97      0.00
  -36    0   26     -2.20      0.00
  -34    0   26     -1.48      0.00
  -32    0   26     -1.48      0.00
  -30    0   26     -3.15      0.00
  -28    0   26     -3.35      0.00
  -26    0   26     -0.28      0.00
  -24    0   26      2.38      0.00
  -22    0   26      1.68      0.00
  -20    0   26      0.06      0.00
  -18    0   26     -0.13      0.00
  -16    0   26     -0.33      0.00
  -14    0   26     -1.06      0.00
  -12    0   26     -0.49      0.00
  -10    0   26      0.87      0.00
   -8    0   26      0.01      0.00
   -6    0   26     -3.42      0.00
   -4    0   26     -6.39      0.00
   -2    0   26     -5.94      0.00
    0    0   26     -1.28      0.00
    2    0   26      4.78      0.00
    4    0   26      6.30      0.00
    6    0   26      0.82      0.00
    8    0   26     -5.85      0.00
  -41    1   26     -0.07      0.00
  -39    1   26     -0.27      0.00
  -37    1   26      0.48      0.00
  -35    1   26      1.19      0.00
  -33    1   26      1.35      0.00
  -31    1   26      2.19      0.00
  -29    1   26      3.03      0.00
  -27    1   26      1.44      0.00
  -25    1   26     -1.55      0.00
  -23    1   26     -2.12      0.00
  -21    1   26     -0.32      0.00
  -19    1   26      0.58      0.00
  -17    1   26      0.42      0.00
  -15    1   26      1.17      0.00
  -13    1   26      1.68      0.00
  -11    1   26      0.08      0.00
   -9    1   26     -1.30      0.00
   -7    1   26      0.75      0.00
   -5    1   26      4.48      0.00
   -3    1   26      5.51      0.00
   -1    1   26      2.43      0.00
    1    1   26     -2.11      0.00
    3    1   26     -3.99      0.00
    5    1   26     -0.96      0.00
    7    1   26      4.42      0.00
  -40    2   26      2.74      0.00
  -38    2   26      2.29      0.00
  -36    2   26     -0.18      0.00
  -34    2   26     -2.81      0.00
  -32    2   26     -4.04      0.00
  -30    2   26     -4.10      0.00
  -28    2   26     -3.16      0.00
  -26    2   26     -1.23      0.00
  -24    2   26      0.09      0.00
  -22    2   26     -0.47      0.00
  -20    2   26     -1.33      0.00
  -18    2   26     -1.07      0.00
  -16    2   26     -1.24      0.00
  -14    2   26     -2.46      0.00
  -12    2   26     -2.08      0.00
  -10    2   26      0.38      0.00
   -8    2   26      0.80      0.00
   -6    2   26     -2.51      0.00
   -4    2   26     -4.87      0.00
   -2    2   26     -2.56      0.00
    0    2   26      1.24      0.00
    2    2   26      1.55      0.00
    4    2   26     -1.67      0.00
    6    2   26     -4.88      0.00
  -39    3   26     -2.86      0.00
  -37    3   26     -0.80      0.00
  -35    3   26      3.26      0.00
  -33    3   26      6.48      0.00
  -31    3   26      7.15      0.00
  -29    3   26      6.62      0.00
  -27    3   26      6.45      0.00
  -25    3   26      6.09      0.00
  -23    3   26      4.74      0.00
  -21    3   26      3.01      0.00
  -19    3   26      1.74      0.00
  -17    3   26      1.16      0.00
  -15    3   26      1.25      0.00
  -13    3   26      1.25      0.00
  -11    3   26      0.25      0.00
   -9    3   26     -0.57      0.00
   -7    3   26      0.97      0.00
   -5    3   26      3.66      0.00
   -3    3   26      3.61      0.00
   -1    3   26      0.44      0.00
    1    3   26     -1.66      0.00
    3    3   26     -0.27      0.00
    5    3   26      2.24      0.00
  -38    4   26      1.62      0.00
  -36    4   26     -0.63      0.00
  -34    4   26     -3.68      0.00
  -32    4   26     -5.28      0.00
  -30    4   26     -5.78      0.00
  -28    4   26     -7.71      0.00
  -26    4   26    -10.50      0.00
  -24    4   26    -10.19      0.00
  -22    4   26     -6.12      0.00
  -20    4   26     -2.49      0.00
  -18    4   26     -1.39      0.00
  -16    4   26     -0.37      0.00
  -14    4   26      1.80      0.00
  -12    4   26      2.93      0.00
  -10    4   26      2.06      0.00
   -8    4   26      0.76      0.00
   -6    4   26     -0.47      0.00
   -4    4   26     -1.96      0.00
   -2    4   26     -2.17      0.00
    0    4   26      0.04      0.00
    2    4   26      2.42      0.00
    4    4   26      2.33      0.00
  -37    5   26     -0.96      0.00
  -35    5   26     -0.23      0.00
  -33    5   26      0.25      0.00
  -31    5   26      0.36      0.00
  -29    5   26      2.41      0.00
  -27    5   26      7.02      0.00
  -25    5   26      9.79      0.00
  -23    5   26      7.31      0.00
  -21    5   26      3.31      0.00
  -19    5   26      2.43      0.00
  -17    5   26      2.23      0.00
  -15    5   26     -1.05      0.00
  -13    5   26     -4.44      0.00
  -11    5   26     -3.75      0.00
   -9    5   26     -1.30      0.00
   -7    5   26     -0.47      0.00
   -5    5   26      0.53      0.00
   -3    5   26      3.01      0.00
   -1    5   26      3.41      0.00
    1    5   26      0.20      0.00
    3    5   26     -2.38      0.00
  -34    6   26      1.08      0.00
  -32    6   26      2.11      0.00
  -30    6   26      1.98      0.00
  -28    6   26     -0.93      0.00
  -26    6   26     -4.21      0.00
  -24    6   26     -4.45      0.00
  -22    6   26     -3.18      0.00
  -20    6   26     -4.16      0.00
  -18    6   26     -5.73      0.00
  -16    6   26     -3.49      0.00
  -14    6   26      0.96      0.00
  -12    6   26      2.22      0.00
  -10    6   26      0.41      0.00
   -8    6   26     -0.50      0.00
   -6    6   26     -0.83      0.00
   -4    6   26     -3.03      0.00
   -2    6   26     -4.91      0.00
    0    6   26     -3.20      0.00
  -31    7   26     -1.72      0.00
  -29    7   26     -1.49      0.00
  -27    7   26     -0.33      0.00
  -25    7   26     -0.02      0.00
  -23    7   26      0.44      0.00
  -21    7   26      3.21      0.00
  -19    7   26      6.23      0.00
  -17    7   26      5.34      0.00
  -15    7   26      1.42      0.00
  -13    7   26     -0.72      0.00
  -11    7   26     -0.10      0.00
   -9    7   26      0.27      0.00
   -7    7   26     -0.21      0.00
   -5    7   26      0.53      0.00
   -3    7   26      2.01      0.00
  -26    8   26      2.41      0.00
  -24    8   26      2.75      0.00
  -22    8   26      0.88      0.00
  -20    8   26     -1.90      0.00
  -18    8   26     -2.04      0.00
  -16    8   26      0.63      0.00
  -14    8   26      2.50      0.00
  -12    8   26      1.99      0.00
  -10    8   26      1.11      0.00
   -8    8   26      1.22      0.00
  -39    1   27      3.96      0.00
  -37    1   27      2.92      0.00
  -35    1   27      1.28      0.00
  -33    1   27      0.93      0.00
  -31    1   27      2.16      0.00
  -29    1   27      2.64      0.00
  -27    1   27      1.23      0.00
  -25    1   27     -0.01      0.00
  -23    1   27      0.31      0.00
  -21    1   27      0.69      0.00
  -19    1   27      0.01      0.00
  -17    1   27     -0.60      0.00
  -15    1   27     -0.38      0.00
  -13    1   27     -0.06      0.00
  -11    1   27      0.01      0.00
   -9    1   27      0.02      0.00
   -7    1   27     -0.26      0.00
   -5    1   27     -0.44      0.00
   -3    1   27      0.24      0.00
   -1    1   27      0.65      0.00
    1    1   27     -0.99      0.00
    3    1   27     -3.20      0.00
    5    1   27     -2.94      0.00
  -40    2   27     -3.41      0.00
  -38    2   27     -3.16      0.00
  -36    2   27     -1.78      0.00
  -34    2   27     -0.66      0.00
  -32    2   27     -1.29      0.00
  -30    2   27     -2.13      0.00
  -28    2   27     -0.37      0.00
  -26    2   27      2.47      0.00
  -24    2   27      2.37      0.00
  -22    2   27      0.00      0.00
  -20    2   27     -0.64      0.00
  -18    2   27      0.47      0.00
  -16    2   27      0.28      0.00
  -14    2   27     -0.89      0.00
  -12    2   27     -0.49      0.00
  -10    2   27      0.94      0.00
   -8    2   27      1.15      0.00
   -6    2   27      0.24      0.00
   -4    2   27     -0.52      0.00
   -2    2   27     -0.85      0.00
    0    2   27     -0.51      0.00
    2    2   27      0.46      0.00
    4    2   27      0.57      0.00
  -39    3   27      1.57      0.00
  -37    3   27      2.21      0.00
  -35    3   27      2.62      0.00
  -33    3   27      2.83      0.00
  -31    3   27      2.67      0.00
  -29    3   27      0.55      0.00
  -27    3   27     -3.33      0.00
  -25    3   27     -4.98      0.00
  -23    3   27     -2.49      0.00
  -21    3   27     -0.01      0.00
  -19    3   27     -0.53      0.00
  -17    3   27     -0.68      0.00
  -15    3   27      1.75      0.00
  -13    3   27      2.71      0.00
  -11    3   27     -0.02      0.00
   -9    3   27     -1.84      0.00
   -7    3   27      0.40      0.00
   -5    3   27      3.09      0.00
   -3    3   27      2.93      0.00
   -1    3   27      2.01      0.00
    1    3   27      2.82      0.00
    3    3   27      4.28      0.00
  -36    4   27     -4.27      0.00
  -34    4   27     -5.85      0.00
  -32    4   27     -5.71      0.00
  -30    4   27     -3.97      0.00
  -28    4   27     -1.17      0.00
  -26    4   27      0.89      0.00
  -24    4   27      0.68      0.00
  -22    4   27      0.03      0.00
  -20    4   27      1.34      0.00
  -18    4   27      2.45      0.00
  -16    4   27      0.19      0.00
  -14    4   27     -2.54      0.00
  -12    4   27     -1.10      0.00
  -10    4   27      2.00      0.00
   -8    4   27      1.00      0.00
   -6    4   27     -3.03      0.00
   -4    4   27     -4.64      0.00
   -2    4   27     -3.56      0.00
    0    4   27     -3.61      0.00
    2    4   27     -5.11      0.00
  -35    5   27      5.10      0.00
  -33    5   27      5.53      0.00
  -31    5   27      4.72      0.00
  -29    5   27      4.45      0.00
  -27    5   27      5.42      0.00
  -25    5   27      5.98      0.00
  -23    5   27      3.74      0.00
  -21    5   27     -0.86      0.00
  -19    5   27     -3.98      0.00
  -17    5   27     -2.98      0.00
  -15    5   27     -0.41      0.00
  -13    5   27     -0.45      0.00
  -11    5   27     -2.59      0.00
   -9    5   27     -2.85      0.00
   -7    5   27     -0.27      0.00
   -5    5   27      2.29      0.00
   -3    5   27      3.22      0.00
   -1    5   27      3.62      0.00
  -32    6   27     -1.79      0.00
  -30    6   27     -2.17      0.00
  -28    6   27     -5.64      0.00
  -26    6   27     -9.38      0.00
  -24    6   27     -8.38      0.00
  -22    6   27     -2.58      0.00
  -20    6   27      2.16      0.00
  -18    6   27      2.13      0.00
  -16    6   27      0.33      0.00
  -14    6   27      0.64      0.00
  -12    6   27      2.19      0.00
  -10    6   27      2.41      0.00
   -8    6   27      1.16      0.00
   -6    6   27     -0.50      0.00
   -4    6   27     -2.36      0.00
  -29    7   27      2.02      0.00
  -27    7   27      6.82      0.00
  -25    7   27      8.98      0.00
  -23    7   27      6.21      0.00
  -21    7   27      2.64      0.00
  -19    7   27      2.41      0.00
  -17    7   27      3.58      0.00
  -15    7   27      2.64      0.00
  -13    7   27      0.43      0.00
  -11    7   27     -0.52      0.00
   -9    7   27     -0.27      0.00
   -7    7   27      0.34      0.00
  -18    8   27     -5.08      0.00
  -38    0   28      3.35      0.00
  -36    0   28      3.04      0.00
  -34    0   28      3.39      0.00
  -32    0   28      6.51      0.00
  -30    0   28     10.02      0.00
  -28    0   28      9.44      0.00
  -26    0   28      5.72      0.00
  -24    0   28      3.47      0.00
  -22    0   28      3.49      0.00
  -20    0   28      3.55      0.00
  -18    0   28      3.80      0.00
  -16    0   28      5.15      0.00
  -14    0   28      5.63      0.00
  -12    0   28      3.81      0.00
  -10    0   28      1.99      0.00
   -8    0   28      2.46      0.00
   -6    0   28      4.35      0.00
   -4    0   28      5.40      0.00
   -2    0   28      3.90      0.00
    0    0   28     -0.43      0.00
    2    0   28     -4.64      0.00
  -39    1   28     -0.92      0.00
  -37    1   28     -1.68      0.00
  -35    1   28     -2.13      0.00
  -33    1   28     -3.61      0.00
  -31    1   28     -6.59      0.00
  -29    1   28     -8.03      0.00
  -27    1   28     -6.07      0.00
  -25    1   28     -3.77      0.00
  -23    1   28     -3.78      0.00
  -21    1   28     -4.40      0.00
  -19    1   28     -4.17      0.00
  -17    1   28     -4.64      0.00
  -15    1   28     -5.73      0.00
  -13    1   28     -4.73      0.00
  -11    1   28     -1.87      0.00
   -9    1   28     -0.91      0.00
   -7    1   28     -2.96      0.00
   -5    1   28     -4.90      0.00
   -3    1   28     -4.07      0.00
   -1    1   28     -0.94      0.00
    1    1   28      2.12      0.00
  -38    2   28     -1.06      0.00
  -36    2   28      1.06      0.00
  -34    2   28      2.39      0.00
  -32    2   28      3.24      0.00
  -30    2   28      4.18      0.00
  -28    2   28      4.36      0.00
  -26    2   28      3.86      0.00
  -24    2   28      4.18      0.00
  -22    2   28      5.04      0.00
  -20    2   28      4.72      0.00
  -18    2   28      4.02      0.00
  -16    2   28      4.70      0.00
  -14    2   28      5.01      0.00
  -12    2   28      2.49      0.00
  -10    2   28     -0.21      0.00
   -8    2   28      1.01      0.00
   -6    2   28      4.23      0.00
   -4    2   28      4.24      0.00
   -2    2   28      0.95      0.00
    0    2   28     -1.10      0.00
    2    2   28      0.04      0.00
  -37    3   28     -0.42      0.00
  -35    3   28     -2.55      0.00
  -33    3   28     -2.97      0.00
  -31    3   28     -2.79      0.00
  -29    3   28     -3.81      0.00
  -27    3   28     -5.51      0.00
  -25    3   28     -6.19      0.00
  -23    3   28     -5.28      0.00
  -21    3   28     -3.40      0.00
  -19    3   28     -1.67      0.00
  -17    3   28     -1.32      0.00
  -15    3   28     -2.09      0.00
  -13    3   28     -1.85      0.00
  -11    3   28     -0.16      0.00
   -9    3   28      0.21      0.00
   -7    3   28     -2.01      0.00
   -5    3   28     -3.51      0.00
   -3    3   28     -1.65      0.00
   -1    3   28      0.92      0.00
    1    3   28      0.69      0.00
  -36    4   28      1.07      0.00
  -34    4   28      1.54      0.00
  -32    4   28      1.30      0.00
  -30    4   28      2.56      0.00
  -28    4   28      5.97      0.00
  -26    4   28      8.19      0.00
  -24    4   28      6.17      0.00
  -22    4   28      1.77      0.00
  -20    4   28     -1.25      0.00
  -18    4   28     -2.22      0.00
  -16    4   28     -2.53      0.00
  -14    4   28     -2.32      0.00
  -12    4   28     -1.41      0.00
  -10    4   28     -0.70      0.00
   -8    4   28     -0.43      0.00
   -6    4   28      0.12      0.00
   -4    4   28      0.53      0.00
   -2    4   28     -0.20      0.00
  -33    5   28      1.11      0.00
  -31    5   28      0.71      0.00
  -29    5   28     -2.21      0.00
  -27    5   28     -5.25      0.00
  -25    5   28     -4.34      0.00
  -23    5   28     -0.23      0.00
  -21    5   28      2.29      0.00
  -19    5   28      2.22      0.00
  -17    5   28      2.86      0.00
  -15    5   28      4.50      0.00
  -13    5   28      3.95      0.00
  -11    5   28      1.49      0.00
   -9    5   28      0.55      0.00
   -7    5   28      1.08      0.00
   -5    5   28      0.42      0.00
   -3    5   28     -0.79      0.00
  -30    6   28     -0.82      0.00
  -28    6   28      0.69      0.00
  -26    6   28      0.14      0.00
  -24    6   28     -2.02      0.00
  -22    6   28     -1.95      0.00
  -20    6   28      0.78      0.00
  -18    6   28      1.57      0.00
  -16    6   28     -1.26      0.00
  -14    6   28     -3.47      0.00
  -12    6   28     -2.45      0.00
  -10    6   28     -0.96      0.00
   -8    6   28     -0.80      0.00
  -23    7   28      2.45      0.00
  -21    7   28     -1.80      0.00
  -19    7   28     -4.28      0.00
  -17    7   28     -2.10      0.00
  -15    7   28      1.47      0.00
  -13    7   28      2.74      0.00
  -37    1   29     -2.82      0.00
  -35    1   29     -2.68      0.00
  -33    1   29     -3.77      0.00
  -31    1   29     -4.66      0.00
  -29    1   29     -3.44      0.00
  -27    1   29     -0.97      0.00
  -25    1   29      0.51      0.00
  -23    1   29      0.76      0.00
  -21    1   29      0.75      0.00
  -19    1   29      0.30      0.00
  -17    1   29     -0.94      0.00
  -15    1   29     -2.12      0.00
  -13    1   29     -2.65      0.00
  -11    1   29     -2.72      0.00
   -9    1   29     -2.02      0.00
   -7    1   29     -0.64      0.00
   -5    1   29     -0.11      0.00
   -3    1   29     -0.91      0.00
   -1    1   29     -0.97      0.00
  -36    2   29      3.19      0.00
  -34    2   29      4.02      0.00
  -32    2   29      5.35      0.00
  -30    2   29      4.66      0.00
  -28    2   29      1.35      0.00
  -26    2   29     -1.22      0.00
  -24    2   29     -0.80      0.00
  -22    2   29      0.57      0.00
  -20    2   29      1.12      0.00
  -18    2   29      2.09      0.00
  -16    2   29      3.80      0.00
  -14    2   29      4.30      0.00
  -12    2   29      3.21      0.00
  -10    2   29      2.23      0.00
   -8    2   29      1.82      0.00
   -6    2   29      1.34      0.00
   -4    2   29      1.11      0.00
   -2    2   29      1.25      0.00
  -35    3   29     -3.58      0.00
  -33    3   29     -3.97      0.00
  -31    3   29     -3.29      0.00
  -29    3   29     -0.60      0.00
  -27    3   29      2.12      0.00
  -25    3   29      1.61      0.00
  -23    3   29     -1.19      0.00
  -21    3   29     -2.63      0.00
  -19    3   29     -2.91      0.00
  -17    3   29     -4.49      0.00
  -15    3   29     -5.84      0.00
  -13    3   29     -4.03      0.00
  -11    3   29     -1.27      0.00
   -9    3   29     -1.51      0.00
   -7    3   29     -3.56      0.00
   -5    3   29     -3.72      0.00
   -3    3   29     -2.23      0.00
  -34    4   29      2.86      0.00
  -32    4   29      2.02      0.00
  -30    4   29      0.73      0.00
  -28    4   29     -0.39      0.00
  -26    4   29     -0.03      0.00
  -24    4   29      1.52      0.00
  -22    4   29      1.86      0.00
  -20    4   29      0.88      0.00
  -18    4   29      1.66      0.00
  -16    4   29      4.24      0.00
  -14    4   29      4.40      0.00
  -12    4   29      1.39      0.00
  -10    4   29      0.09      0.00
   -8    4   29      2.52      0.00
   -6    4   29      4.58      0.00
   -4    4   29      3.60      0.00
  -31    5   29     -0.03      0.00
  -29    5   29     -1.43      0.00
  -27    5   29     -3.46      0.00
  -25    5   29     -3.87      0.00
  -23    5   29     -1.28      0.00
  -21    5   29      2.36      0.00
  -19    5   29      3.23      0.00
  -17    5   29      0.68      0.00
  -15    5   29     -1.68      0.00
  -13    5   29     -1.31      0.00
  -11    5   29     -0.13      0.00
   -9    5   29     -0.61      0.00
   -7    5   29     -1.78      0.00
  -26    6   29      5.21      0.00
  -24    6   29      2.29      0.00
  -22    6   29     -2.54      0.00
  -20    6   29     -4.62      0.00
  -18    6   29     -3.10      0.00
  -16    6   29     -0.85      0.00
  -14    6   29      0.36      0.00
  -12    6   29      1.03      0.00
  -36    0   30     -2.55      0.00
  -34    0   30     -4.33      0.00
  -32    0   30     -8.15      0.00
  -30    0   30     -9.86      0.00
  -28    0   30     -7.30      0.00
  -26    0   30     -3.62      0.00
  -24    0   30     -1.77      0.00
  -22    0   30     -1.06      0.00
  -20    0   30     -1.01      0.00
  -18    0   30     -2.46      0.00
  -16    0   30     -4.36      0.00
  -14    0   30     -4.46      0.00
  -12    0   30     -2.95      0.00
  -10    0   30     -1.61      0.00
   -8    0   30     -1.07      0.00
   -6    0   30     -1.40      0.00
   -4    0   30     -2.42      0.00
  -35    1   30      2.46      0.00
  -33    1   30      4.82      0.00
  -31    1   30      7.63      0.00
  -29    1   30      7.63      0.00
  -27    1   30      5.23      0.00
  -25    1   30      3.58      0.00
  -23    1   30      3.20      0.00
  -21    1   30      2.66      0.00
  -19    1   30      2.57      0.00
  -17    1   30      3.75      0.00
  -15    1   30      4.26      0.00
  -13    1   30      2.57      0.00
  -11    1   30      0.55      0.00
   -9    1   30      0.29      0.00
   -7    1   30      1.12      0.00
   -5    1   30      1.63      0.00
  -34    2   30     -1.31      0.00
  -32    2   30     -2.41      0.00
  -30    2   30     -3.87      0.00
  -28    2   30     -4.39      0.00
  -26    2   30     -4.59      0.00
  -24    2   30     -5.20      0.00
  -22    2   30     -5.04      0.00
  -20    2   30     -3.79      0.00
  -18    2   30     -3.30      0.00
  -16    2   30     -3.62      0.00
  -14    2   30     -2.17      0.00
  -12    2   30      0.89      0.00
  -10    2   30      1.76      0.00
   -8    2   30     -0.50      0.00
   -6    2   30     -2.11      0.00
  -33    3   30     -1.12      0.00
  -31    3   30     -0.36      0.00
  -29    3   30      1.76      0.00
  -27    3   30      3.71      0.00
  -25    3   30      4.42      0.00
  -23    3   30      3.63      0.00
  -21    3   30      1.85      0.00
  -19    3   30      0.64      0.00
  -17    3   30      0.98      0.00
  -15    3   30      1.21      0.00
  -13    3   30     -0.45      0.00
  -11    3   30     -2.12      0.00
   -9    3   30     -0.98      0.00
   -7    3   30      1.48      0.00
  -30    4   30      0.21      0.00
  -28    4   30     -2.43      0.00
  -26    4   30     -2.94      0.00
  -24    4   30     -0.66      0.00
  -22    4   30      2.23      0.00
  -20    4   30      3.64      0.00
  -18    4   30      3.39      0.00
  -16    4   30      2.32      0.00
  -14    4   30      1.32      0.00
  -12    4   30      1.04      0.00
  -10    4   30      1.12      0.00
  -27    5   30      0.56      0.00
  -25    5   30     -1.87      0.00
  -23    5   30     -4.46      0.00
  -21    5   30     -4.97      0.00
  -19    5   30     -4.47      0.00
  -17    5   30     -4.33      0.00
  -15    5   30     -3.44      0.00
  -13    5   30     -1.28      0.00
  -33    1   31      2.36      0.00
  -31    1   31      1.96      0.00
  -29    1   31      0.00      0.00
  -27    1   31     -1.86      0.00
  -25    1   31     -2.56      0.00
  -23    1   31     -2.47      0.00
  -21    1   31     -1.70      0.00
  -19    1   31     -0.17      0.00
  -17    1   31      1.41      0.00
  -15    1   31      2.51      0.00
  -13    1   31      3.38      0.00
  -11    1   31      3.53      0.00
   -9    1   31      2.07      0.00
  -32    2   31     -3.58      0.00
  -30    2   31     -1.78      0.00
  -28    2   31      0.95      0.00
  -26    2   31      2.02      0.00
  -24    2   31      1.32      0.00
  -22    2   31      0.32      0.00
  -20    2   31     -0.84      0.00
  -18    2   31     -2.38      0.00
  -16    2   31     -3.36      0.00
  -14    2   31     -3.46      0.00
  -12    2   31     -3.46      0.00
  -10    2   31     -3.08      0.00
  -29    3   31     -0.36      0.00
  -27    3   31     -1.15      0.00
  -25    3   31      0.32      0.00
  -23    3   31      2.18      0.00
  -21    3   31      2.93      0.00
  -19    3   31      3.55      0.00
  -17    3   31      4.24      0.00
  -15    3   31      3.41      0.00
  -13    3   31      1.54      0.00
  -11    3   31      1.16      0.00
  -26    4   31     -0.82      0.00
  -24    4   31     -2.29      0.00
  -22    4   31     -2.45      0.00
  -20    4   31     -2.37      0.00
  -18    4   31     -3.35      0.00
  -16    4   31     -3.56      0.00
  -28    0   32     -0.10      0.00
  -26    0   32     -1.51      0.00
  -24    0   32     -1.86      0.00
  -22    0   32     -1.97      0.00
  -20    0   32     -1.27      0.00
  -18    0   32      0.34      0.00
  -16    0   32      1.47      0.00
  -14    0   32      1.56      0.00
  -27    1   32     -0.52      0.00
  -25    1   32     -0.09      0.00
  -23    1   32      0.23      0.00
  -21    1   32      0.61      0.00
  -19    1   32      0.08      0.00
  -17    1   32     -0.89      0.00
  -15    1   32     -0.86      0.00
  -26    2   32      2.28      0.00
  -24    2   32      2.28      0.00
  -22    2   32      1.40      0.00
  -20    2   32      0.56      0.00
  -18    2   32      0.77      0.00
  -16    2   32      0.63      0.00
    2    0    0    246.59      0.00
   40    4    0     -0.81      0.00
   39    5    0      2.30      0.00
   17   13    0      0.07      0.00
    8   14    0     -0.48      0.00
   -1    1    1   -100.33      0.00
   41    1    1      0.04      0.00
  -42    2    1     -1.38      0.00
  -37    7    1      0.62      0.00
   34    8    1      0.34      0.00
  -33    9    1     -2.25      0.00
  -27   11    1     -3.11      0.00
   22   12    1     -0.56      0.00
    8   14    1      2.30      0.00
   -2    0    2   -219.87      0.00
   -1    1    2    180.57      0.00
   40    2    2     -2.93      0.00
   35    7    2      1.43      0.00
   31    9    2      0.55      0.00
   25   11    2     -2.46      0.00
  -24   12    2      1.54      0.00
    6   14    2     -0.20      0.00
   37    5    3     -0.93      0.00
  -24   12    3     -1.20      0.00
  -19   13    3     -1.93      0.00
   15   13    3     -3.29      0.00
  -10   14    3     -0.78      0.00
    6   14    3      0.44      0.00
  -44    0    4     -1.84      0.00
  -43    3    4      0.13      0.00
  -40    6    4      1.29      0.00
  -32   10    4     -2.63      0.00
  -19   13    4     -2.08      0.00
    4   14    4      1.27      0.00
  -44    2    5     -1.82      0.00
   37    3    5      1.26      0.00
   34    6    5      0.89      0.00
  -39    7    5     -0.46      0.00
  -35    9    5      0.75      0.00
  -29   11    5     -2.36      0.00
  -19   13    5      0.84      0.00
   13   13    5     -0.71      0.00
   -8   14    5     -2.39      0.00
    2   14    5     -3.93      0.00
   37    1    6     -3.85      0.00
   -8   14    6      2.24      0.00
   -6   14    6     -0.21      0.00
   -4   14    6     -4.79      0.00
   -2   14    6     -6.54      0.00
    0   14    6     -4.12      0.00
   35    3    7     -3.63      0.00
   32    6    7     -0.72      0.00
  -38    8    7      1.86      0.00
   24   10    7      1.32      0.00
   16   12    7     -3.59      0.00
  -19   13    7     -0.84      0.00
   -4   14    7     -1.39      0.00
   35    1    8      4.82      0.00
   -6    2    8     -4.11      0.00
  -44    4    8     -0.41      0.00
  -43    5    8     -0.73      0.00
  -19   13    8      0.76      0.00
    9   13    8      4.16      0.00
  -45    3    9      0.70      0.00
  -42    6    9      0.84      0.00
   30    6    9     -1.46      0.00
  -19   13    9      1.23      0.00
    7   13    9      0.05      0.00
   33    1   10     -2.97      0.00
   23    9   10      0.48      0.00
   17   11   10      2.89      0.00
   12   12   10      0.41      0.00
    5   13   10      3.12      0.00
  -46    2   11     -2.15      0.00
   31    3   11     -5.20      0.00
   28    6   11      1.83      0.00
  -17   13   11     -0.86      0.00
    3   13   11      1.97      0.00
   -8    0   12     16.15      0.00
  -41    7   12      0.93      0.00
   25    7   12      3.75      0.00
   28    4   13     -2.87      0.00
  -41    7   13      0.20      0.00
   16   10   13     -1.25      0.00
  -24   12   13     -0.67      0.00
  -13   13   13     -1.10      0.00
   -5   13   13     -3.01      0.00
   -3   13   13     -5.31      0.00
   28    2   14      1.48      0.00
   24    6   14      5.18      0.00
  -41    7   14     -0.78      0.00
  -29   11   14     -2.06      0.00
   27    1   15      0.17      0.00
   21    7   15     -0.59      0.00
  -22   12   15     -0.91      0.00
    2   12   15      0.53      0.00
   26    0   16     -0.78      0.00
   24    4   16     -1.88      0.00
  -32   10   16     -1.37      0.00
  -20   12   16      0.16      0.00
   24    2   17     -1.55      0.00
   20    6   17      1.32      0.00
  -38    8   17     -0.75      0.00
  -35    9   17      1.39      0.00
   13    9   17     -0.55      0.00
  -27   11   17      0.48      0.00
  -18   12   17     -0.85      0.00
   -4   12   17      2.53      0.00
   23    1   18     -2.86      0.00
  -46    2   18      2.33      0.00
  -42    6   18      1.03      0.00
   14    8   18     -0.26      0.00
   11    9   18     -1.83      0.00
  -25   11   18      3.29      0.00
  -46    2   19      3.03      0.00
  -43    5   19      0.71      0.00
   12    8   19     -0.67      0.00
    9    9   19      0.09      0.00
  -30   10   19     -1.26      0.00
   -1   11   19     -1.70      0.00
  -46    0   20     -6.01      0.00
   20    0   20     -2.17      0.00
  -45    3   20     -2.18      0.00
  -44    4   20     -0.47      0.00
  -39    7   20      0.03      0.00
   13    7   20      0.02      0.00
   10    8   20     -2.90      0.00
  -33    9   20     -1.69      0.00
    7    9   20      2.28      0.00
    2   10   20     -1.35      0.00
  -21   11   20     -1.97      0.00
   -5   11   20      1.78      0.00
   17    3   21      0.25      0.00
   16    4   21      1.22      0.00
   11    7   21     -1.25      0.00
    8    8   21      0.93      0.00
  -15   11   21      1.11      0.00
  -13   11   21      2.17      0.00
   12    0   22    -11.90      0.00
   14    0   22    -12.94      0.00
   16    0   22     -7.81      0.00
   15    1   22      7.19      0.00
   16    2   22     -1.46      0.00
   15    3   22      2.14      0.00
   14    4   22     -3.76      0.00
  -40    6   22      1.49      0.00
    6    8   22     -0.54      0.00
  -31    9   22      2.63      0.00
  -24   10   22     -2.62      0.00
   -4   10   22      1.02      0.00
   13    1   23      5.89      0.00
   14    2   23     -4.66      0.00
   12    4   23     -5.10      0.00
  -41    5   23     -0.43      0.00
  -29    9   23     -2.16      0.00
   -1    9   23      0.44      0.00
  -20   10   23     -1.67      0.00
  -10   10   23      0.47      0.00
  -44    0   24     -0.29      0.00
   12    0   24     12.24      0.00
   12    2   24      5.55      0.00
  -43    3   24      1.31      0.00
   10    4   24      3.67      0.00
  -38    6   24     -0.15      0.00
  -32    8   24      1.65      0.00
    0    8   24     -0.69      0.00
  -27    9   24      0.66      0.00
   -5    9   24      1.71      0.00
  -43    1   25     -1.07      0.00
   10    2   25      4.64      0.00
    9    3   25     -6.40      0.00
    8    4   25      6.18      0.00
  -39    5   25      1.01      0.00
    4    6   25      0.49      0.00
    1    7   25     -3.22      0.00
  -30    8   25     -2.01      0.00
  -23    9   25     -3.62      0.00
  -11    9   25     -0.11      0.00
  -42    2   26      1.82      0.00
  -41    3   26     -2.59      0.00
  -41    1   27      3.52      0.00
  -38    4   27     -1.80      0.00
    1    5   27      3.98      0.00
  -34    6   27     -2.74      0.00
   -2    6   27     -3.89      0.00
  -22    8   27     -4.40      0.00
  -20    8   27     -4.66      0.00
  -16    8   27     -3.80      0.00
  -14    8   27     -1.69      0.00
  -40    0   28      2.92      0.00
    3    1   28      2.76      0.00
    0    4   28     -1.23      0.00
   -6    6   28      0.00      0.00
  -25    7   28      3.58      0.00
  -11    7   28      2.47      0.00
  -28    6   29      3.67      0.00
  -10    6   29      1.34      0.00
   -3    1   30      1.48      0.00
   -4    2   30     -0.97      0.00
   -5    3   30      1.68      0.00
  -32    4   30      2.28      0.00
   -8    4   30      0.72      0.00
  -11    5   30      0.03      0.00
   -7    1   31      0.21      0.00
   -8    2   31     -1.46      0.00
  -31    3   31      1.49      0.00
  -28    4   31      0.54      0.00
  -14    4   31     -1.37      0.00
  -30    0   32      2.23      0.00
  -12    0   32      1.11      0.00
  -29    1   32     -1.92      0.00
  -13    1   32     -0.03      0.00
  -28    2   32      2.16      0.00
  -14    2   32     -1.04      0.00
  -25    3   32     -1.92      0.00
  -23    3   32     -1.06      0.00
  -21    3   32     -0.08      0.00
  -19    3   32     -0.22      0.00
  -17    3   32     -0.89      0.00
    0    0    0      0.00      0.00
# SQUEEZE RESULTS
# Note: Data are Listed for all Voids in the P1 Unit Cell
# i.e. Centre of Gravity, Solvent Accessible Volume,
# Recovered number of Electrons in the Void and
# Details about the Squeezed Material
loop_
  _platon_squeeze_void_nr
  _platon_squeeze_void_average_x
  _platon_squeeze_void_average_y
  _platon_squeeze_void_average_z
  _platon_squeeze_void_volume
  _platon_squeeze_void_count_electrons
  _platon_squeeze_void_content
   1  0.500 -0.066  0.250       183        65 ' '
   2  0.500  0.066  0.750       184        64 ' '
   3  0.000  0.434  0.250       183        65 ' '
   4  0.000  0.566  0.750       184        64 ' '
# Missing Reflections Below sin(th)/lambda= 0.25
loop_
  _platon_missing_refln_index_h
  _platon_missing_refln_index_k
  _platon_missing_refln_index_l
  _platon_missing_refln_theta
    2    0    0     1.380
   -1    1    1     2.209
   -2    0    2     1.817
   -1    1    2     2.680
   -6    2    8     8.132
_platon_squeeze_void_probe_radius                  1.20
_platon_squeeze_details
)
TITL 1         C 2/c        R = 0.12
CELL   33.2200   10.1145   23.2180     90.00    117.34     90.00
SPGR C2/c
# Solvent Accessible Volume =     757.8
# Electrons Found in S.A.V. =     257.3
# Note: Atoms in Void as Cxxx and Qxxx all others
C101 0.986 0.400 0.179 !       8.60 eA-3
C102 0.066 0.437 0.296 !       6.90 eA-3
C103 0.015 0.442 0.197 !       4.29 eA-3
C104 1.000 0.469 0.257 !       3.88 eA-3
C105 0.954 0.441 0.263 !       2.34 eA-3
C106 0.996 0.464 0.208 !       1.88 eA-3
C107 0.033 0.465 0.245 !       1.69 eA-3
C108 0.546 0.096 0.225 !       1.60 eA-3
Q109 0.477 0.089 0.233 !       1.30 eA-3
Q110 0.765 0.211 0.135 !       1.21 eA-3
Q111 0.445 0.282 0.157 !       1.16 eA-3
Q112 0.763 0.280 0.365 !       1.11 eA-3
Q113 0.843 0.308 0.431 !       1.10 eA-3
C114 0.946 0.465 0.156 !       1.09 eA-3
Q115 0.399 0.127 0.007 !       1.08 eA-3
C116 0.086 0.503 0.335 !       1.05 eA-3
Q117 0.208 0.351 0.064 !       1.04 eA-3
Q118 0.468 0.185 0.211 !       1.04 eA-3
Q119 0.196 0.093 0.157 !       1.02 eA-3
Q120 0.178 0.278 0.112 !       1.02 eA-3
Q121 0.491 0.377 0.369 !       1.00 eA-3
C122 0.532 0.062 0.342 !       0.99 eA-3
Q123 0.048 0.309 0.173 !       0.98 eA-3
C124 0.955 0.312 0.167 !       0.97 eA-3
Q125 0.665 0.461 0.414 !       0.97 eA-3
Q126 0.828 0.374 0.035 !       0.96 eA-3
Q127 0.109 0.375 0.377 !       0.96 eA-3
Q128 0.263 0.406 0.038 !       0.94 eA-3
Q129 0.929 0.038 0.367 !       0.93 eA-3
Q130 0.875 0.347 0.204 !       0.91 eA-3
Q131 0.640 0.501 0.148 !       0.90 eA-3
Q132 0.360 0.499 0.351 !       0.89 eA-3
Q133 0.111 0.256 0.040 !       0.89 eA-3
C134 0.961 0.482 0.129 !       0.89 eA-3
C135 0.508 0.087 0.223 !       0.89 eA-3
Q136 0.531 0.344 0.351 !       0.88 eA-3
Q137 0.283 0.404 0.102 !       0.88 eA-3
Q138 0.959 0.280 0.279 !       0.88 eA-3
Q139 0.975 0.128 0.279 !       0.88 eA-3
Q140 0.703 0.314 0.370 !       0.87 eA-3
Q141 0.788 0.317 0.358 !       0.86 eA-3
Q142 0.230 0.473 0.015 !       0.85 eA-3
Q143 0.202 0.376 0.020 !       0.85 eA-3
Q144 0.647 0.440 0.491 !       0.85 eA-3
Q145 0.900 0.440 0.125 !       0.85 eA-3
Q146 0.237 0.470 0.230 !       0.84 eA-3
C147 0.983 0.481 0.125 !       0.84 eA-3
Q148 0.882 0.091 0.194 !       0.84 eA-3
C149 0.054 0.341 0.225 !       0.84 eA-3
Q150 0.343 0.100 0.366 !       0.84 eA-3
Q151 0.197 0.280 0.259 !       0.84 eA-3
Q152 0.180 0.096 0.006 !       0.84 eA-3
Q153 0.289 0.475 0.296 !       0.82 eA-3
Q154 0.305 0.150 0.169 !       0.82 eA-3
Q155 0.351 0.434 0.407 !       0.81 eA-3
Q156 0.524 0.240 0.365 !       0.81 eA-3
Q157 0.111 0.188 0.304 !       0.81 eA-3
Q158 0.322 0.030 0.272 !       0.81 eA-3
Q159 0.203 0.280 0.334 !       0.80 eA-3
Q160 0.710 0.442 0.427 !       0.80 eA-3
C161 0.022 0.321 0.183 !       0.80 eA-3
C162 0.109 0.338 0.328 !       0.80 eA-3
Q163 0.219 0.035 0.176 !       0.79 eA-3
Q164 0.671 0.192 0.030 !       0.79 eA-3
Q165 0.946 0.440 0.381 !       0.79 eA-3
Q166 0.242 0.033 0.243 !       0.79 eA-3
Q167 0.170 0.502 0.016 !       0.79 eA-3
Q168 0.117 0.061 0.220 !       0.79 eA-3
Q169 0.813 0.061 0.421 !       0.79 eA-3
Q170 0.430 0.131 0.369 !       0.78 eA-3
Q171 0.826 0.446 0.056 !       0.78 eA-3
Q172 0.149 0.282 0.030 !       0.78 eA-3
Q173 0.726 0.031 0.243 !       0.78 eA-3
Q174 0.783 0.449 0.452 !       0.78 eA-3
Q175 0.369 0.502 0.122 !       0.78 eA-3
Q176 0.744 0.241 0.132 !       0.77 eA-3
Q177 0.061 0.095 0.193 !       0.77 eA-3
Q178 0.698 0.027 0.248 !       0.77 eA-3
Q179 0.093 0.310 0.346 !       0.77 eA-3
Q180 0.170 0.063 0.479 !       0.77 eA-3
C181 0.045 0.374 0.342 !       0.77 eA-3
Q182 0.904 0.258 0.444 !       0.77 eA-3
Q183 0.224 0.404 0.211 !       0.77 eA-3
Q184 0.181 0.117 0.174 !       0.77 eA-3
Q185 0.056 0.158 0.451 !       0.77 eA-3
Q186 0.422 0.043 0.313 !       0.77 eA-3
Q187 0.169 0.500 0.467 !       0.77 eA-3
C188 0.047 0.277 0.268 !       0.76 eA-3
Q189 0.102 0.506 0.102 !       0.76 eA-3
Q190 0.742 0.378 0.296 !       0.76 eA-3
Q191 0.740 0.191 0.360 !       0.76 eA-3
Q192 0.110 0.095 0.119 !       0.76 eA-3
Q193 0.889 0.273 0.181 !       0.75 eA-3
Q194 0.774 0.284 0.454 !       0.75 eA-3
Q195 0.867 0.098 0.055 !       0.75 eA-3
Q196 0.141 0.338 0.469 !       0.75 eA-3
Q197 0.210 0.244 0.142 !       0.75 eA-3
Q198 0.682 0.065 0.499 !       0.75 eA-3
Q199 0.368 0.161 0.367 !       0.75 eA-3
)
;
_shelx_fab_checksum              626
loop_
_space_group_symop_operation_xyz
'x, y, z'
'-x, y, -z+1/2'
'x+1/2, y+1/2, z'
'-x+1/2, y+1/2, -z+1/2'
'-x, -y, -z'
'x, -y, z-1/2'
'-x+1/2, -y+1/2, -z'
'x+1/2, -y+1/2, z-1/2'
loop_
_atom_site_label
_atom_site_type_symbol
_atom_site_fract_x
_atom_site_fract_y
_atom_site_fract_z
_atom_site_U_iso_or_equiv
_atom_site_adp_type
_atom_site_occupancy
_atom_site_site_symmetry_order
_atom_site_calc_flag
_atom_site_refinement_flags_posn
_atom_site_refinement_flags_adp
_atom_site_refinement_flags_occupancy
_atom_site_disorder_assembly
_atom_site_disorder_group
Zn1 Zn 0.19440(2) 0.29102(4) 0.10476(2) 0.02388(12) Uani 1 1 d . . . . .
P1 P 0.19293(3) 0.44729(9) 0.22927(5) 0.0273(2) Uani 1 1 d . . . . .
O1 O 0.20623(8) 0.4281(3) 0.17765(12) 0.0330(6) Uani 1 1 d . . . . .
O2 O 0.18998(12) 0.3157(3) 0.26126(14) 0.0619(10) Uani 1 1 d . . . . .
O3 O 0.14326(8) 0.4978(3) 0.20120(14) 0.0443(7) Uani 1 1 d . . . . .
N1 N 0.18836(9) 0.1238(3) 0.15141(14) 0.0257(7) Uani 1 1 d . . . . .
N2 N 0.12424(9) 0.3025(3) 0.05608(14) 0.0249(6) Uani 1 1 d . . . . .
N3 N 0.19689(9) 0.4119(3) 0.03431(14) 0.0278(7) Uani 1 1 d . . . . .
N4 N 0.26078(9) 0.2355(3) 0.13184(14) 0.0250(7) Uani 1 1 d . . . . .
N5 N -0.05044(14) -0.1993(5) 0.1761(2) 0.0751(14) Uani 1 1 d . . . . .
N6 N 0.44748(12) 0.7281(4) 0.0353(2) 0.0538(10) Uani 1 1 d . . . . .
C1 C 0.22254(11) 0.0461(4) 0.19376(18) 0.0299(9) Uani 1 1 d . . . . .
C2 C 0.20361(13) -0.0510(5) 0.2211(2) 0.0506(13) Uani 1 1 d . . . . .
H2A H 0.2199 -0.1182 0.2515 0.061 Uiso 1 1 calc R U . . .
C3 C 0.15929(13) -0.0277(4) 0.1956(2) 0.0416(11) Uani 1 1 d . . . . .
H3A H 0.1381 -0.0756 0.2045 0.050 Uiso 1 1 calc R U . . .
C4 C 0.14919(11) 0.0826(4) 0.15231(17) 0.0270(8) Uani 1 1 d . . . . .
C5 C 0.10626(11) 0.1378(4) 0.11777(17) 0.0276(8) Uani 1 1 d . . . . .
C6 C 0.06900(11) 0.0752(4) 0.12812(17) 0.0280(8) Uani 1 1 d . . . . .
C7 C 0.06513(16) 0.0998(5) 0.1839(2) 0.0614(15) Uani 1 1 d . . . . .
H7A H 0.0845 0.1628 0.2144 0.074 Uiso 1 1 calc R U . . .
C8 C 0.03340(16) 0.0336(6) 0.1956(2) 0.0687(17) Uani 1 1 d . . . . .
H8A H 0.0306 0.0525 0.2337 0.082 Uiso 1 1 calc R U . . .
C9 C 0.00557(12) -0.0601(4) 0.1523(2) 0.0367(10) Uani 1 1 d . . . . .
C10 C -0.02595(15) -0.1366(5) 0.1652(2) 0.0519(12) Uani 1 1 d . . . . .
C11 C 0.00802(13) -0.0803(4) 0.0960(2) 0.0384(10) Uani 1 1 d . . . . .
H11A H -0.0121 -0.1408 0.0647 0.046 Uiso 1 1 calc R U . . .
C12 C 0.03954(12) -0.0133(4) 0.08425(19) 0.0370(10) Uani 1 1 d . . . . .
H12A H 0.0409 -0.0286 0.0448 0.044 Uiso 1 1 calc R U . . .
C13 C 0.09471(11) 0.2419(4) 0.07342(17) 0.0260(8) Uani 1 1 d . . . . .
C14 C 0.05035(12) 0.2997(4) 0.03786(19) 0.0349(9) Uani 1 1 d . . . . .
H14A H 0.0239 0.2761 0.0415 0.042 Uiso 1 1 calc R U . . .
C15 C 0.05316(12) 0.3936(4) -0.00150(19) 0.0375(10) Uani 1 1 d . . . . .
H15A H 0.0293 0.4481 -0.0310 0.045 Uiso 1 1 calc R U . . .
C16 C 0.09971(12) 0.3943(4) 0.01038(18) 0.0323(9) Uani 1 1 d . . . . .
C17 C 0.11728(12) 0.4783(4) -0.01993(19) 0.0362(10) Uani 1 1 d . . . . .
H17A H 0.0964 0.5366 -0.0516 0.043 Uiso 1 1 calc R U . . .
C18 C 0.16186(12) 0.4863(4) -0.00905(18) 0.0330(9) Uani 1 1 d . . . . .
C19 C 0.17862(13) 0.5791(4) -0.03977(19) 0.0408(10) Uani 1 1 d . . . . .
H19A H 0.1612 0.6429 -0.0715 0.049 Uiso 1 1 calc R U . . .
C20 C 0.22319(13) 0.5590(4) -0.01544(18) 0.0370(10) Uani 1 1 d . . . . .
H20A H 0.2434 0.6054 -0.0267 0.044 Uiso 1 1 calc R U . . .
C21 C 0.23469(12) 0.4533(4) 0.03114(18) 0.0297(8) Uani 1 1 d . . . . .
C22 C 0.27847(12) 0.4012(4) 0.06846(18) 0.0276(8) Uani 1 1 d . . . . .
C23 C 0.31671(12) 0.4653(4) 0.06161(18) 0.0296(8) Uani 1 1 d . . . . .
C24 C 0.31718(13) 0.4699(4) 0.0021(2) 0.0370(10) Uani 1 1 d . . . . .
H24A H 0.2937 0.4279 -0.0346 0.044 Uiso 1 1 calc R U . . .
C25 C 0.35174(14) 0.5355(4) -0.0043(2) 0.0398(10) Uani 1 1 d . . . . .
H25A H 0.3522 0.5369 -0.0449 0.048 Uiso 1 1 calc R U . . .
C26 C 0.38533(13) 0.5984(4) 0.0487(2) 0.0348(9) Uani 1 1 d . . . . .
C27 C 0.42043(14) 0.6702(4) 0.0417(2) 0.0395(10) Uani 1 1 d . . . . .
C28 C 0.38560(13) 0.5929(4) 0.1079(2) 0.0388(10) Uani 1 1 d . . . . .
H28A H 0.4093 0.6341 0.1446 0.047 Uiso 1 1 calc R U . . .
C29 C 0.35141(12) 0.5274(4) 0.11421(19) 0.0378(10) Uani 1 1 d . . . . .
H29A H 0.3516 0.5249 0.1553 0.045 Uiso 1 1 calc R U . . .
C30 C 0.28977(12) 0.2970(4) 0.11237(18) 0.0284(8) Uani 1 1 d . . . . .
C31 C 0.33314(13) 0.2345(4) 0.1433(2) 0.0376(10) Uani 1 1 d . . . . .
H31A H 0.3589 0.2567 0.1377 0.045 Uiso 1 1 calc R U . . .
C32 C 0.33098(12) 0.1387(4) 0.18193(19) 0.0360(10) Uani 1 1 d . . . . .
H32A H 0.3549 0.0810 0.2084 0.043 Uiso 1 1 calc R U . . .
C33 C 0.28574(12) 0.1394(4) 0.17590(17) 0.0277(8) Uani 1 1 d . . . . .
C34 C 0.2003(3) 0.2862(7) 0.3244(3) 0.0544(18) Uani 0.7 1 d . . P A 1
H34A H 0.1770 0.2244 0.3237 0.065 Uiso 0.7 1 calc R U P A 1
H34B H 0.1979 0.3686 0.3456 0.065 Uiso 0.7 1 calc R U P A 1
C34A C 0.2199(5) 0.2299(15) 0.2975(7) 0.044(4) Uani 0.3 1 d . . P A 2
H34C H 0.2429 0.2279 0.2817 0.052 Uiso 0.3 1 calc R U P A 2
H34D H 0.2043 0.1433 0.2858 0.052 Uiso 0.3 1 calc R U P A 2
C35 C 0.2440(2) 0.2290(6) 0.3641(3) 0.098(2) Uani 1 1 d . . . . .
H35D H 0.2476 0.2122 0.4069 0.147 Uiso 0.5 1 d R U P A .
H35E H 0.2467 0.1474 0.3449 0.147 Uiso 0.5 1 d R U P . .
H35F H 0.2670 0.2894 0.3665 0.147 Uiso 0.5 1 d R U P . .
H35A H 0.2634 0.1529 0.3781 0.147 Uiso 0.5 1 d R U P . .
H35B H 0.2620 0.3078 0.3777 0.147 Uiso 0.5 1 d R U P . .
H35C H 0.2235 0.2269 0.3828 0.147 Uiso 0.5 1 d R U P . .
C36 C 0.12833(18) 0.6027(6) 0.1531(3) 0.0769(18) Uani 1 1 d . . . . .
H36A H 0.1311 0.5740 0.1143 0.092 Uiso 1 1 calc R U . . .
H36B H 0.1473 0.6824 0.1711 0.092 Uiso 1 1 calc R U . . .
C37 C 0.0795(2) 0.6334(8) 0.1350(3) 0.128(3) Uani 1 1 d . . . . .
H37A H 0.0680 0.6994 0.1002 0.191 Uiso 1 1 calc R U . . .
H37B H 0.0775 0.6683 0.1730 0.191 Uiso 1 1 calc R U . . .
H37C H 0.0614 0.5525 0.1201 0.191 Uiso 1 1 calc R U . . .
C38 C 0.23136(11) 0.5553(4) 0.29198(18) 0.0275(8) Uani 1 1 d . . . . .
loop_
_atom_site_aniso_label
_atom_site_aniso_U_11
_atom_site_aniso_U_22
_atom_site_aniso_U_33
_atom_site_aniso_U_23
_atom_site_aniso_U_13
_atom_site_aniso_U_12
Zn1 0.0204(2) 0.0264(2) 0.0259(2) 0.00316(19) 0.01156(16) 0.00040(18)
P1 0.0235(5) 0.0263(5) 0.0306(5) -0.0051(4) 0.0113(4) -0.0023(4)
O1 0.0280(14) 0.0420(16) 0.0314(15) -0.0086(12) 0.0157(12) -0.0054(12)
O2 0.094(3) 0.0426(19) 0.0335(18) 0.0014(15) 0.0154(18) -0.0307(18)
O3 0.0257(14) 0.0575(19) 0.0431(17) -0.0172(15) 0.0100(13) 0.0030(13)
N1 0.0205(15) 0.0285(17) 0.0298(17) 0.0020(14) 0.0130(13) -0.0032(13)
N2 0.0193(14) 0.0292(16) 0.0258(15) 0.0019(14) 0.0099(12) 0.0014(13)
N3 0.0222(15) 0.0334(18) 0.0289(17) 0.0063(14) 0.0127(14) 0.0019(13)
N4 0.0239(15) 0.0245(16) 0.0309(17) 0.0056(13) 0.0164(13) 0.0019(12)
N5 0.051(3) 0.106(4) 0.078(3) 0.002(3) 0.039(2) -0.028(3)
N6 0.040(2) 0.055(3) 0.078(3) 0.008(2) 0.037(2) -0.0057(19)
C1 0.0196(18) 0.035(2) 0.031(2) 0.0090(17) 0.0076(16) -0.0022(16)
C2 0.030(2) 0.054(3) 0.058(3) 0.030(2) 0.012(2) -0.006(2)
C3 0.025(2) 0.053(3) 0.042(2) 0.017(2) 0.0108(19) -0.0079(19)
C4 0.0212(18) 0.033(2) 0.026(2) 0.0043(16) 0.0100(16) -0.0014(15)
C5 0.0234(18) 0.037(2) 0.026(2) -0.0050(17) 0.0139(16) -0.0065(16)
C6 0.0200(18) 0.036(2) 0.028(2) -0.0003(17) 0.0106(16) -0.0012(15)
C7 0.059(3) 0.088(4) 0.053(3) -0.037(3) 0.040(3) -0.046(3)
C8 0.064(3) 0.113(5) 0.052(3) -0.032(3) 0.047(3) -0.047(3)
C9 0.027(2) 0.049(3) 0.038(2) 0.001(2) 0.0179(18) -0.0082(18)
C10 0.040(3) 0.068(3) 0.052(3) 0.003(3) 0.025(2) -0.008(2)
C11 0.031(2) 0.038(2) 0.045(3) -0.0080(19) 0.0169(19) -0.0101(18)
C12 0.031(2) 0.050(3) 0.032(2) -0.0060(19) 0.0163(18) -0.0092(19)
C13 0.0178(17) 0.032(2) 0.0267(19) -0.0052(16) 0.0090(15) -0.0021(14)
C14 0.0203(18) 0.042(2) 0.041(2) -0.003(2) 0.0128(17) -0.0005(18)
C15 0.0227(19) 0.045(2) 0.039(2) 0.007(2) 0.0092(18) 0.0061(17)
C16 0.0213(18) 0.039(2) 0.033(2) 0.0006(18) 0.0088(17) 0.0009(16)
C17 0.026(2) 0.041(2) 0.035(2) 0.0130(19) 0.0075(17) 0.0057(17)
C18 0.032(2) 0.035(2) 0.031(2) 0.0108(18) 0.0135(18) 0.0053(17)
C19 0.040(2) 0.044(3) 0.035(2) 0.017(2) 0.015(2) 0.0048(19)
C20 0.036(2) 0.042(2) 0.034(2) 0.0127(19) 0.0171(19) -0.0054(19)
C21 0.032(2) 0.029(2) 0.031(2) 0.0062(17) 0.0167(17) -0.0007(16)
C22 0.0270(19) 0.031(2) 0.032(2) 0.0030(17) 0.0198(17) -0.0010(16)
C23 0.0287(19) 0.031(2) 0.035(2) 0.0055(17) 0.0191(18) 0.0011(16)
C24 0.042(2) 0.039(2) 0.039(2) -0.0074(19) 0.027(2) -0.0076(19)
C25 0.046(2) 0.044(3) 0.042(3) -0.003(2) 0.032(2) -0.003(2)
C26 0.030(2) 0.033(2) 0.050(3) 0.0015(19) 0.026(2) -0.0020(17)
C27 0.037(2) 0.037(2) 0.050(3) 0.000(2) 0.026(2) -0.0023(18)
C28 0.027(2) 0.048(3) 0.035(2) 0.003(2) 0.0090(18) -0.0074(18)
C29 0.031(2) 0.054(3) 0.028(2) 0.0070(19) 0.0135(18) 0.0004(19)
C30 0.0275(18) 0.030(2) 0.034(2) 0.0038(18) 0.0191(16) 0.0014(17)
C31 0.026(2) 0.044(3) 0.048(3) 0.014(2) 0.0207(19) 0.0045(17)
C32 0.025(2) 0.040(2) 0.044(2) 0.013(2) 0.0175(18) 0.0104(17)
C33 0.0250(19) 0.027(2) 0.032(2) 0.0022(16) 0.0133(16) 0.0011(15)
C34 0.094(6) 0.038(4) 0.049(4) -0.001(3) 0.049(4) 0.001(4)
C34A 0.053(9) 0.052(10) 0.027(8) -0.002(7) 0.019(7) 0.005(8)
C35 0.124(6) 0.082(5) 0.068(4) 0.015(4) 0.027(4) 0.009(4)
C36 0.073(4) 0.073(4) 0.056(3) 0.000(3) 0.004(3) 0.036(3)
C37 0.079(5) 0.149(7) 0.105(5) -0.016(5) -0.001(4) 0.077(5)
C38 0.0228(18) 0.026(2) 0.034(2) -0.0077(16) 0.0135(16) -0.0030(15)
loop_
_atom_type_symbol
_atom_type_description
_atom_type_scat_dispersion_real
_atom_type_scat_dispersion_imag
_atom_type_scat_source
C C 0.0033 0.0016 'International Tables Vol C Tables 4.2.6.8 and 6.1.1.4'
H H 0.0000 0.0000 'International Tables Vol C Tables 4.2.6.8 and 6.1.1.4'
N N 0.0061 0.0033 'International Tables Vol C Tables 4.2.6.8 and 6.1.1.4'
O O 0.0106 0.0060 'International Tables Vol C Tables 4.2.6.8 and 6.1.1.4'
P P 0.1023 0.0942 'International Tables Vol C Tables 4.2.6.8 and 6.1.1.4'
Zn Zn 0.2839 1.4301 'International Tables Vol C Tables 4.2.6.8 and 6.1.1.4'
loop_
_geom_angle_atom_site_label_1
_geom_angle_atom_site_label_2
_geom_angle_atom_site_label_3
_geom_angle
_geom_angle_site_symmetry_1
_geom_angle_site_symmetry_3
N1 Zn1 N4 88.02(11) . .
N1 Zn1 N3 160.76(12) . .
N4 Zn1 N3 88.66(11) . .
N1 Zn1 N2 88.63(11) . .
N4 Zn1 N2 162.30(11) . .
N3 Zn1 N2 88.80(11) . .
N1 Zn1 O1 98.42(11) . .
N4 Zn1 O1 99.00(10) . .
N3 Zn1 O1 100.82(11) . .
N2 Zn1 O1 98.69(10) . .
O1 P1 O2 112.73(17) . .
O1 P1 O3 111.13(16) . .
O2 P1 O3 101.23(19) . .
O1 P1 C38 111.91(16) . .
O2 P1 C38 108.16(17) . .
O3 P1 C38 111.19(16) . .
P1 O1 Zn1 137.47(16) . .
C34A O2 P1 133.5(8) . .
C34 O2 P1 131.1(4) . .
C36 O3 P1 118.9(3) . .
C1 N1 C4 107.1(3) . .
C1 N1 Zn1 127.0(2) . .
C4 N1 Zn1 125.2(2) . .
C16 N2 C13 106.4(3) . .
C16 N2 Zn1 125.6(2) . .
C13 N2 Zn1 126.4(2) . .
C21 N3 C18 106.7(3) . .
C21 N3 Zn1 126.7(2) . .
C18 N3 Zn1 125.3(2) . .
C33 N4 C30 106.7(3) . .
C33 N4 Zn1 127.5(2) . .
C30 N4 Zn1 125.6(2) . .
N1 C1 C38 125.9(3) . 4_545
N1 C1 C2 108.7(3) . .
C38 C1 C2 125.4(3) 4_545 .
C3 C2 C1 107.3(4) . .
C2 C3 C4 107.7(3) . .
N1 C4 C5 126.5(3) . .
N1 C4 C3 109.2(3) . .
C5 C4 C3 124.3(3) . .
C4 C5 C13 126.0(3) . .
C4 C5 C6 116.1(3) . .
C13 C5 C6 117.9(3) . .
C12 C6 C7 118.2(3) . .
C12 C6 C5 121.0(3) . .
C7 C6 C5 120.8(3) . .
C8 C7 C6 120.4(4) . .
C7 C8 C9 120.4(4) . .
C11 C9 C8 119.1(4) . .
C11 C9 C10 119.3(4) . .
C8 C9 C10 121.6(4) . .
N5 C10 C9 178.7(6) . .
C9 C11 C12 120.2(4) . .
C6 C12 C11 121.5(4) . .
N2 C13 C5 124.4(3) . .
N2 C13 C14 109.5(3) . .
C5 C13 C14 126.2(3) . .
C15 C14 C13 107.6(3) . .
C14 C15 C16 106.0(3) . .
N2 C16 C17 124.8(3) . .
N2 C16 C15 110.6(3) . .
C17 C16 C15 124.7(4) . .
C18 C17 C16 127.2(4) . .
N3 C18 C17 125.5(3) . .
N3 C18 C19 109.5(3) . .
C17 C18 C19 125.0(3) . .
C20 C19 C18 107.3(3) . .
C19 C20 C21 106.9(3) . .
N3 C21 C22 124.8(3) . .
N3 C21 C20 109.7(3) . .
C22 C21 C20 125.6(3) . .
C30 C22 C21 126.0(3) . .
C30 C22 C23 116.7(3) . .
C21 C22 C23 117.3(3) . .
C29 C23 C24 118.4(3) . .
C29 C23 C22 120.3(3) . .
C24 C23 C22 121.1(3) . .
C23 C24 C25 120.5(4) . .
C26 C25 C24 119.7(4) . .
C28 C26 C25 120.3(3) . .
C28 C26 C27 119.9(4) . .
C25 C26 C27 119.8(4) . .
N6 C27 C26 178.7(5) . .
C26 C28 C29 119.9(4) . .
C28 C29 C23 121.1(4) . .
N4 C30 C22 125.8(3) . .
N4 C30 C31 109.2(3) . .
C22 C30 C31 125.0(3) . .
C32 C31 C30 107.7(3) . .
C31 C32 C33 107.7(3) . .
N4 C33 C38 124.5(3) . 4_545
N4 C33 C32 108.7(3) . .
C38 C33 C32 126.8(3) 4_545 .
O2 C34 C35 117.0(6) . .
O2 C34A C35 127.7(12) . .
O3 C36 C37 108.0(5) . .
C33 C38 C1 124.9(3) 4 4
C33 C38 P1 119.0(3) 4 .
C1 C38 P1 116.1(3) 4 .
loop_
_geom_bond_atom_site_label_1
_geom_bond_atom_site_label_2
_geom_bond_distance
_geom_bond_site_symmetry_2
Zn1 N1 2.067(3) .
Zn1 N4 2.073(3) .
Zn1 N3 2.074(3) .
Zn1 N2 2.074(3) .
Zn1 O1 2.081(2) .
P1 O1 1.468(3) .
P1 O2 1.549(3) .
P1 O3 1.556(3) .
P1 C38 1.799(4) .
O2 C34A 1.296(15) .
O2 C34 1.376(7) .
O3 C36 1.452(6) .
N1 C1 1.360(4) .
N1 C4 1.376(4) .
N2 C16 1.363(4) .
N2 C13 1.365(4) .
N3 C21 1.358(4) .
N3 C18 1.363(4) .
N4 C33 1.378(4) .
N4 C30 1.385(4) .
N5 C10 1.147(5) .
N6 C27 1.138(5) .
C1 C38 1.413(5) 4_545
C1 C2 1.459(5) .
C2 C3 1.332(5) .
C3 C4 1.435(5) .
C4 C5 1.392(5) .
C5 C13 1.397(5) .
C5 C6 1.505(5) .
C6 C12 1.371(5) .
C6 C7 1.383(5) .
C7 C8 1.376(6) .
C8 C9 1.383(6) .
C9 C11 1.362(5) .
C9 C10 1.441(6) .
C11 C12 1.376(5) .
C13 C14 1.441(5) .
C14 C15 1.350(5) .
C15 C16 1.441(5) .
C16 C17 1.391(5) .
C17 C18 1.386(5) .
C18 C19 1.437(5) .
C19 C20 1.336(5) .
C20 C21 1.441(5) .
C21 C22 1.409(5) .
C22 C30 1.393(5) .
C22 C23 1.498(5) .
C23 C29 1.386(5) .
C23 C24 1.391(5) .
C24 C25 1.391(5) .
C25 C26 1.379(5) .
C26 C28 1.373(5) .
C26 C27 1.444(5) .
C28 C29 1.379(5) .
C30 C31 1.428(5) .
C31 C32 1.343(5) .
C32 C33 1.444(5) .
C33 C38 1.411(5) 4_545
C34 C35 1.436(9) .
C34A C35 1.375(14) .
C36 C37 1.509(7) .
C38 C33 1.411(5) 4
C38 C1 1.413(5) 4
