#------------------------------------------------------------------------------
#$Date: 2019-11-08 00:08:20 +0200 (Fri, 08 Nov 2019) $
#$Revision: 224192 $
#$URL: file:///home/coder/svn-repositories/cod/cif/7/04/94/7049442.cif $
#------------------------------------------------------------------------------
#
# This file is available in the Crystallography Open Database (COD),
# http://www.crystallography.net/
#
# All data on this site have been placed in the public domain by the
# contributors.
#
data_7049442
loop_
_publ_author_name
'Nefedov, Sergey E.'
'Birin, Kirill P.'
'Bessmertnykh-Lemeune, Alla'
'Enakieva, Yulia Y.'
'Sinelshchikova, Anna A.'
'Gorbunova, Yulia G.'
'Tsivadze, Aslan Y.'
'Stern, Christine'
'Fang, Yuanyuan'
'Kadish, Karl M.'
_publ_section_title
;
 Coordination self-assembly through weak interactions in
 meso-dialkoxyphosphoryl-substituted zinc porphyrinates.
;
_journal_issue                   16
_journal_name_full
'Dalton transactions (Cambridge, England : 2003)'
_journal_page_first              5372
_journal_page_last               5383
_journal_paper_doi               10.1039/c9dt00706g
_journal_volume                  48
_journal_year                    2019
_chemical_formula_sum            'C152 H132 N16 O12 P4 Zn4'
_chemical_formula_weight         2760.09
_space_group_crystal_system      tetragonal
_space_group_IT_number           114
_space_group_name_Hall           'P -4 2n'
_space_group_name_H-M_alt        'P -4 21 c'
_symmetry_space_group_name_Hall  'P -4 2n'
_symmetry_space_group_name_H-M   'P -4 21 c'
_atom_sites_solution_hydrogens   geom
_audit_creation_method           SHELXL-2014/7
_audit_update_record
;
2018-05-23 deposited with the CCDC.    2019-03-25 downloaded from the CCDC.
;
_cell_angle_alpha                90
_cell_angle_beta                 90
_cell_angle_gamma                90
_cell_formula_units_Z            2
_cell_length_a                   21.1528(7)
_cell_length_b                   21.1528(7)
_cell_length_c                   15.1147(6)
_cell_measurement_reflns_used    6993
_cell_measurement_temperature    150(2)
_cell_measurement_theta_max      24.88
_cell_measurement_theta_min      2.15
_cell_volume                     6762.9(4)
_computing_structure_refinement  'SHELXL-2014/7 (Sheldrick, 2014)'
_diffrn_ambient_temperature      150(2)
_diffrn_measured_fraction_theta_full 0.999
_diffrn_measured_fraction_theta_max 0.999
_diffrn_measurement_device_type  'Bruker APEX-II CCD'
_diffrn_measurement_method       '\f and \w scans'
_diffrn_radiation_type           MoK\a
_diffrn_radiation_wavelength     0.71073
_diffrn_reflns_av_R_equivalents  0.0548
_diffrn_reflns_av_unetI/netI     0.0804
_diffrn_reflns_Laue_measured_fraction_full 0.999
_diffrn_reflns_Laue_measured_fraction_max 0.999
_diffrn_reflns_limit_h_max       25
_diffrn_reflns_limit_h_min       -29
_diffrn_reflns_limit_k_max       29
_diffrn_reflns_limit_k_min       -15
_diffrn_reflns_limit_l_max       21
_diffrn_reflns_limit_l_min       -19
_diffrn_reflns_number            35445
_diffrn_reflns_point_group_measured_fraction_full 1.000
_diffrn_reflns_point_group_measured_fraction_max 0.999
_diffrn_reflns_theta_full        25.242
_diffrn_reflns_theta_max         29.998
_diffrn_reflns_theta_min         1.925
_exptl_absorpt_coefficient_mu    0.817
_exptl_absorpt_correction_T_max  0.712
_exptl_absorpt_correction_T_min  0.634
_exptl_absorpt_correction_type   multi-scan
_exptl_absorpt_process_details   sadabs
_exptl_crystal_colour            purple
_exptl_crystal_density_diffrn    1.355
_exptl_crystal_description       prizm
_exptl_crystal_F_000             2864
_exptl_crystal_size_max          0.220
_exptl_crystal_size_mid          0.200
_exptl_crystal_size_min          0.180
_refine_diff_density_max         0.881
_refine_diff_density_min         -0.544
_refine_diff_density_rms         0.053
_refine_ls_abs_structure_details
;
 Refined as an inversion twin.
;
_refine_ls_abs_structure_Flack   1.012(10)
_refine_ls_extinction_method     none
_refine_ls_goodness_of_fit_ref   0.972
_refine_ls_hydrogen_treatment    constr
_refine_ls_matrix_type           full
_refine_ls_number_parameters     429
_refine_ls_number_reflns         9858
_refine_ls_number_restraints     0
_refine_ls_restrained_S_all      0.972
_refine_ls_R_factor_all          0.0631
_refine_ls_R_factor_gt           0.0391
_refine_ls_shift/su_max          0.001
_refine_ls_shift/su_mean         0.000
_refine_ls_structure_factor_coef Fsqd
_refine_ls_weighting_details
'w=1/[\s^2^(Fo^2^)+(0.0150P)^2^] where P=(Fo^2^+2Fc^2^)/3'
_refine_ls_weighting_scheme      calc
_refine_ls_wR_factor_gt          0.0608
_refine_ls_wR_factor_ref         0.0632
_reflns_Friedel_coverage         0.844
_reflns_Friedel_fraction_full    1.000
_reflns_Friedel_fraction_max     1.000
_reflns_number_gt                6734
_reflns_number_total             9858
_reflns_threshold_expression     'I > 2\s(I)'
_cod_data_source_file            c9dt00706g2.cif
_cod_data_source_block           mZn4me
_cod_depositor_comments
'Adding full bibliography for 7049441--7049445.cif.'
_cod_original_cell_volume        6762.9(5)
_cod_database_code               7049442
_shelx_shelxl_version_number     2014/7
_shelx_space_group_comment
;
The symmetry employed for this shelxl refinement is uniquely defined
by the following loop, which should always be used as a source of
symmetry information in preference to the above space-group names.
They are only intended as comments.
;
_shelx_estimated_absorpt_t_min   0.841
_shelx_estimated_absorpt_t_max   0.867
_shelx_res_file
;

    1.res created by SHELXL-2014/7


TITL 1 in P-42(1)c
CELL 0.71073  21.1528  21.1528  15.1147  90.000  90.000  90.000
ZERR    2.00   0.0007   0.0007   0.0006   0.000   0.000   0.000
LATT -1
SYMM -X, -Y, Z
SYMM Y, -X, -Z
SYMM -Y, X, -Z
SYMM 0.5-X, 0.5+Y, 0.5-Z
SYMM 0.5+X, 0.5-Y, 0.5-Z
SYMM 0.5-Y, 0.5-X, 0.5+Z
SYMM 0.5+Y, 0.5+X, 0.5+Z
SFAC C H N O P Zn
UNIT 304 264 32 24 8 8
omit -3 60
omit  1   1   0
TEMP -123.000
size 0.22 0.2 0.18
twin
acta
L.S. 12 0   21
BOND
FMAP 2
PLAN 20
abin
WGHT    0.015000
BASF   1.01192
FVAR       0.15415
ZN1   6    0.761942    0.442437    0.018496    11.00000    0.02305    0.02600 =
         0.02646   -0.00009   -0.00060   -0.00095
P1    5    0.690863    0.557654   -0.093686    11.00000    0.03533    0.02901 =
         0.03153   -0.00151   -0.00047    0.00673
O1    4    0.715409    0.525281   -0.014868    11.00000    0.03809    0.02868 =
         0.03177   -0.00090    0.00108    0.00837
O2    4    0.741096    0.572480   -0.166841    11.00000    0.04575    0.04242 =
         0.04376    0.00380    0.01435    0.00962
O3    4    0.646467    0.514558   -0.150945    11.00000    0.05118    0.03011 =
         0.04863   -0.00600   -0.01234    0.00691
N1    3    0.706856    0.377747   -0.049410    11.00000    0.02634    0.03060 =
         0.02121   -0.00054    0.00143   -0.00031
N2    3    0.826541    0.440731   -0.084827    11.00000    0.02558    0.02809 =
         0.02977   -0.00091    0.00343   -0.00027
N3    3    0.831181    0.482286    0.098161    11.00000    0.02197    0.03258 =
         0.03366   -0.00273   -0.00303    0.00063
N4    3    0.710853    0.420529    0.130484    11.00000    0.02685    0.02813 =
         0.02371   -0.00244   -0.00009   -0.00338
C1    1    0.649737    0.629551   -0.066977    11.00000    0.02834    0.02642 =
         0.02631    0.00123   -0.00003    0.00270
C2    1    0.655152    0.344270   -0.019791    11.00000    0.02508    0.02523 =
         0.02993   -0.00127   -0.00160   -0.00171
C3    1    0.632498    0.303694   -0.090436    11.00000    0.03621    0.03753 =
         0.04054   -0.00805    0.00316   -0.01287
AFIX  43
H3A   2    0.597904    0.275148   -0.087191    11.00000   -1.20000
AFIX   0
C4    1    0.669421    0.313934   -0.161162    11.00000    0.03749    0.05015 =
         0.02544   -0.01230   -0.00104   -0.00537
AFIX  43
H4A   2    0.665657    0.293969   -0.217215    11.00000   -1.20000
AFIX   0
C5    1    0.715818    0.360670   -0.136793    11.00000    0.02518    0.02932 =
         0.02939   -0.00233   -0.00099    0.00176
C6    1    0.762609    0.382734   -0.193646    11.00000    0.02840    0.03261 =
         0.02530   -0.00054    0.00252    0.00483
C7    1    0.756213    0.365397   -0.289475    11.00000    0.02612    0.03531 =
         0.02684   -0.00012    0.00768   -0.00398
C8    1    0.711914    0.395949   -0.341659    11.00000    0.05238    0.04991 =
         0.03745   -0.00485   -0.00193    0.01658
AFIX  43
H8A   2    0.686492    0.428303   -0.316470    11.00000   -1.20000
AFIX   0
C9    1    0.704011    0.380209   -0.429798    11.00000    0.05825    0.06180 =
         0.03424   -0.00201   -0.00829    0.01847
AFIX  43
H9A   2    0.673506    0.401954   -0.464466    11.00000   -1.20000
AFIX   0
C10   1    0.740051    0.333250   -0.467594    11.00000    0.03885    0.05272 =
         0.03046    0.00316    0.00085   -0.00147
C11   1    0.732160    0.313259   -0.564024    11.00000    0.06350    0.07348 =
         0.03141   -0.00860    0.00002    0.00853
AFIX 137
H11A  2    0.732003    0.267011   -0.567859    11.00000   -1.50000
H11B  2    0.767284    0.330097   -0.599129    11.00000   -1.50000
H11C  2    0.692129    0.329837   -0.586979    11.00000   -1.50000
AFIX   0
C12   1    0.783468    0.303367   -0.415596    11.00000    0.04567    0.05199 =
         0.04317   -0.01474    0.01070    0.01178
AFIX  43
H12A  2    0.808550    0.270792   -0.440894    11.00000   -1.20000
AFIX   0
C13   1    0.792487    0.318735   -0.326822    11.00000    0.04149    0.05415 =
         0.03243   -0.00353   -0.00118    0.00993
AFIX  43
H13A  2    0.823371    0.297163   -0.292603    11.00000   -1.20000
AFIX   0
C14   1    0.815037    0.419675   -0.168837    11.00000    0.02591    0.02786 =
         0.02878    0.00339    0.00233    0.00504
C15   1    0.865342    0.439327   -0.226771    11.00000    0.03126    0.03517 =
         0.03115    0.00661    0.00660    0.00358
AFIX  43
H15A  2    0.868895    0.430716   -0.288257    11.00000   -1.20000
AFIX   0
C16   1    0.906517    0.472426   -0.176521    11.00000    0.02755    0.03720 =
         0.04019    0.00549    0.00805    0.00105
AFIX  43
H16A  2    0.944721    0.491363   -0.196253    11.00000   -1.20000
AFIX   0
C17   1    0.882201    0.473797   -0.088303    11.00000    0.02355    0.03259 =
         0.03688    0.00337    0.00227    0.00228
C18   1    0.909383    0.504557   -0.017002    11.00000    0.02203    0.03460 =
         0.04535    0.00408   -0.00112   -0.00501
AFIX  43
H18A  2    0.947970    0.526025   -0.028476    11.00000   -1.20000
AFIX   0
C19   1    0.887114    0.507830    0.069133    11.00000    0.02298    0.03681 =
         0.04078   -0.00094   -0.00131   -0.00099
C20   1    0.917606    0.540698    0.140547    11.00000    0.03107    0.04219 =
         0.04658   -0.00158   -0.00612   -0.01147
AFIX  43
H20A  2    0.956760    0.562617    0.137911    11.00000   -1.20000
AFIX   0
C21   1    0.880033    0.534468    0.211923    11.00000    0.03360    0.04445 =
         0.04015   -0.00378   -0.00821   -0.00868
AFIX  43
H21A  2    0.887811    0.551119    0.269272    11.00000   -1.20000
AFIX   0
C22   1    0.825774    0.497826    0.185183    11.00000    0.02685    0.03059 =
         0.03167   -0.00093   -0.00634   -0.00028
C23   1    0.774551    0.480833    0.239455    11.00000    0.03477    0.02844 =
         0.02689   -0.00049   -0.00351    0.00121
C24   1    0.776120    0.502165    0.334776    11.00000    0.03661    0.03400 =
         0.03094   -0.00513   -0.00384   -0.00947
C25   1    0.735595    0.547369    0.366051    11.00000    0.05481    0.04110 =
         0.03660   -0.00487   -0.00945    0.00869
AFIX  43
H25A  2    0.706120    0.566094    0.326527    11.00000   -1.20000
AFIX   0
C26   1    0.736282    0.566567    0.453363    11.00000    0.06398    0.04683 =
         0.04552   -0.01141   -0.00156    0.00938
AFIX  43
H26A  2    0.707734    0.598387    0.472629    11.00000   -1.20000
AFIX   0
C27   1    0.778044    0.539993    0.513011    11.00000    0.05266    0.06384 =
         0.03353   -0.01443   -0.00392    0.00021
C28   1    0.778922    0.559699    0.609405    11.00000    0.08206    0.09915 =
         0.04348   -0.02401   -0.00751    0.01027
AFIX 137
H28A  2    0.789939    0.523226    0.646294    11.00000   -1.50000
H28B  2    0.737053    0.575415    0.626341    11.00000   -1.50000
H28C  2    0.810342    0.593199    0.617912    11.00000   -1.50000
AFIX   0
C29   1    0.818567    0.493827    0.481754    11.00000    0.05267    0.07738 =
         0.03046   -0.00469   -0.01774    0.00465
AFIX  43
H29A  2    0.847225    0.474386    0.521774    11.00000   -1.20000
AFIX   0
C30   1    0.818732    0.475166    0.394740    11.00000    0.04010    0.05816 =
         0.03433   -0.00918   -0.00683    0.00950
AFIX  43
H30A  2    0.847795    0.443899    0.375207    11.00000   -1.20000
AFIX   0
C31   1    0.722663    0.444963    0.214307    11.00000    0.02703    0.03052 =
         0.02429   -0.00294   -0.00278    0.00126
C32   1    0.674245    0.423389    0.273858    11.00000    0.04017    0.04332 =
         0.02095   -0.00104   -0.00046   -0.00545
AFIX  43
H32A  2    0.670812    0.433500    0.334908    11.00000   -1.20000
AFIX   0
C33   1    0.634819    0.386398    0.227529    11.00000    0.03321    0.04212 =
         0.03254   -0.00146    0.00491   -0.01055
AFIX  43
H33A  2    0.598799    0.364889    0.249964    11.00000   -1.20000
AFIX   0
C34   1    0.657365    0.385252    0.136480    11.00000    0.02614    0.03184 =
         0.02616    0.00215   -0.00212   -0.00080
C35   1    0.794574    0.612282   -0.144400    11.00000    0.05871    0.10741 =
         0.12394    0.06115    0.03511    0.01168
AFIX  23
H35A  2    0.791675    0.623834   -0.081057    11.00000   -1.20000
H35B  2    0.833935    0.587648   -0.152595    11.00000   -1.20000
AFIX   0
C36   1    0.798574    0.666346   -0.193332    11.00000    0.12137    0.08776 =
         0.10967   -0.00823   -0.01477   -0.00594
AFIX 137
H36A  2    0.834086    0.691950   -0.172116    11.00000   -1.50000
H36B  2    0.759234    0.690442   -0.187365    11.00000   -1.50000
H36C  2    0.805276    0.655476   -0.255658    11.00000   -1.50000
AFIX   0
C37   1    0.591944    0.485664   -0.110021    11.00000    0.03649    0.04873 =
         0.09402   -0.00701   -0.01468    0.00036
AFIX  23
H37A  2    0.561776    0.518501   -0.090125    11.00000   -1.20000
H37B  2    0.604916    0.460256   -0.058097    11.00000   -1.20000
AFIX   0
C38   1    0.561360    0.443376   -0.179960    11.00000    0.05279    0.07098 =
         0.16938   -0.05218   -0.02556    0.00986
AFIX 137
H38A  2    0.529386    0.416471   -0.151964    11.00000   -1.50000
H38B  2    0.593797    0.416786   -0.207502    11.00000   -1.50000
H38C  2    0.541289    0.469755   -0.225259    11.00000   -1.50000

AFIX   0
HKLF 4

REM  1 in P-42(1)c
REM R1 =  0.0391 for    6734 Fo > 4sig(Fo)  and  0.0631 for all    9858 data
REM    429 parameters refined using      0 restraints

END

WGHT      0.0276      0.0000

REM Highest difference peak  0.881,  deepest hole -0.544,  1-sigma level  0.053
Q1    1   0.7420  0.4193 -0.0243  11.00000  0.05    0.36
Q2    1   0.7574  0.4324  0.0822  11.00000  0.05    0.36
Q3    1   0.7709  0.4429 -0.0457  11.00000  0.05    0.35
Q4    1   0.7582  0.4811  0.0576  11.00000  0.05    0.33
Q5    1   0.7822  0.4646  0.0717  11.00000  0.05    0.33
Q6    1   0.7433  0.4782 -0.0121  11.00000  0.05    0.32
Q7    1   0.7583  0.4900  0.0174  11.00000  0.05    0.28
Q8    1   0.6713  0.6026 -0.0668  11.00000  0.05    0.28
Q9    1   0.8253  0.6430 -0.0986  11.00000  0.05    0.27
Q10   1   0.7655  0.3990  0.0460  11.00000  0.05    0.26
Q11   1   0.6803  0.5152 -0.0500  11.00000  0.05    0.25
Q12   1   0.7402  0.5326  0.4822  11.00000  0.05    0.25
Q13   1   0.9577  0.5607 -0.0549  11.00000  0.05    0.24
Q14   1   0.7203  0.5389 -0.0564  11.00000  0.05    0.24
Q15   1   0.7571  0.3974 -0.0172  11.00000  0.05    0.24
Q16   1   0.7097  0.5807 -0.1407  11.00000  0.05    0.22
Q17   1   0.6386  0.3886  0.1784  11.00000  0.05    0.22
Q18   1   0.7394  0.4189  0.1213  11.00000  0.05    0.22
Q19   1   0.7411  0.3792 -0.4583  11.00000  0.05    0.22
Q20   1   0.7214  0.4344  0.1692  11.00000  0.05    0.21
;
_shelx_res_checksum              57312
_shelx_fab_file
;
    0    2    0    113.20     -0.02
    1    2    0      0.82      0.00
    2    2    0     80.89     -0.02
    1    3    0     68.06     -0.01
    2    3    0      3.00      0.02
    3    3    0     28.98     -0.01
    0    4    0     38.42      0.00
    1    4    0      5.13      0.03
    2    4    0     22.96      0.00
    3    4    0      5.33      0.01
    4    4    0     -4.26      0.00
    1    5    0      9.37      0.01
    2    5    0     11.43      0.02
    3    5    0     -5.68      0.00
    4    5    0      6.40     -0.01
    5    5    0    -18.15     -0.01
    0    6    0     -3.32      0.01
    1    6    0      8.53      0.01
    2    6    0     -8.56      0.01
    3    6    0     15.01     -0.02
    4    6    0    -17.47      0.00
    5    6    0      6.02     -0.02
    6    6    0    -19.92     -0.01
    1    7    0    -10.51      0.02
    2    7    0     14.94     -0.01
    3    7    0    -15.48      0.00
    4    7    0     14.98     -0.04
    5    7    0    -18.63     -0.01
    6    7    0      4.79     -0.02
    7    7    0    -15.39      0.00
    0    8    0    -10.69      0.01
    1    8    0      8.38     -0.01
    2    8    0    -12.56      0.01
    3    8    0     17.25     -0.03
    4    8    0    -15.23      0.00
    5    8    0     12.55     -0.03
    6    8    0    -14.06      0.00
    7    8    0      3.22      0.00
    8    8    0     -8.59      0.00
    1    9    0     -9.36      0.01
    2    9    0     13.63      0.01
    3    9    0    -10.83      0.01
    4    9    0     16.06     -0.02
    5    9    0    -10.59      0.01
    6    9    0      8.81      0.00
    7    9    0     -7.40      0.00
    8    9    0      1.64      0.01
    9    9    0     -3.08     -0.01
    0   10    0     -6.27      0.01
    1   10    0      6.94      0.02
    2   10    0     -6.56      0.01
    3   10    0     14.99      0.00
    4   10    0     -6.24      0.01
    5   10    0     12.15     -0.01
    6   10    0     -4.35      0.00
    7   10    0      4.68      0.02
    8   10    0     -2.12     -0.01
    9   10    0      0.47      0.01
   10   10    0     -0.48     -0.02
    1   11    0     -3.11      0.00
    2   11    0     10.47      0.02
    3   11    0     -2.33      0.01
    4   11    0     12.38     -0.02
    5   11    0     -0.72      0.01
    6   11    0      6.78     -0.01
    7   11    0      0.31      0.00
    8   11    0      1.41      0.01
    9   11    0      0.21     -0.01
   10   11    0     -0.07      0.00
   11   11    0      0.07     -0.01
    0   12    0     -0.62      0.00
    1   12    0      4.59      0.00
    2   12    0      0.18      0.00
    3   12    0      9.59     -0.02
    4   12    0      2.06      0.00
    5   12    0      7.13     -0.04
    6   12    0      3.02      0.00
    7   12    0      2.09     -0.01
    8   12    0      1.95     -0.01
    9   12    0     -0.24     -0.01
   10   12    0      0.50     -0.01
   11   12    0     -0.20     -0.01
   12   12    0     -0.06      0.00
    1   13    0      1.08     -0.01
    2   13    0      5.28     -0.02
    3   13    0      3.01      0.00
    4   13    0      5.51     -0.05
    5   13    0      4.66      0.00
    6   13    0      2.04     -0.03
    7   13    0      3.82      0.00
    8   13    0     -0.51     -0.01
    9   13    0      1.59      0.00
   10   13    0     -0.74     -0.02
   11   13    0      0.21      0.00
   12   13    0     -0.26     -0.01
   13   13    0     -0.29      0.00
    0   14    0      0.99     -0.01
    1   14    0      1.69     -0.01
    2   14    0      2.23     -0.01
    3   14    0      2.98     -0.03
    4   14    0      4.45      0.00
    5   14    0      1.17     -0.04
    6   14    0      4.72      0.00
    7   14    0     -0.96      0.00
    8   14    0      2.74      0.00
    9   14    0     -1.47      0.00
   10   14    0      0.87      0.01
   11   14    0     -0.96     -0.01
   12   14    0     -0.05      0.00
   13   14    0     -0.33      0.01
   14   14    0     -0.46     -0.01
    1   15    0      0.83     -0.01
    2   15    0      1.05      0.01
    3   15    0      2.80     -0.01
    4   15    0      0.17     -0.02
    5   15    0      4.10      0.00
    6   15    0     -1.45      0.00
    7   15    0      3.14      0.00
    8   15    0     -2.17      0.02
    9   15    0      1.48      0.01
   10   15    0     -1.87      0.00
   11   15    0      0.49      0.00
   12   15    0     -1.10      0.02
   13   15    0     -0.20      0.00
   14   15    0     -0.32      0.02
   15   15    0     -0.37      0.00
    0   16    0     -0.06      0.00
    1   16    0      0.25      0.02
    2   16    0      0.94      0.00
    3   16    0     -0.19      0.00
    4   16    0      2.48     -0.01
    5   16    0     -1.56      0.00
    6   16    0      2.47      0.00
    7   16    0     -2.46      0.03
    8   16    0      1.47      0.00
    9   16    0     -2.58      0.02
   10   16    0      0.88      0.01
   11   16    0     -1.94      0.02
   12   16    0      0.37      0.00
   13   16    0     -0.97      0.04
   14   16    0     -0.17      0.00
   15   16    0     -0.28      0.01
   16   16    0     -0.09      0.01
    1   17    0     -0.25      0.00
    2   17    0     -0.04      0.01
    3   17    0      0.90      0.00
    4   17    0     -1.12     -0.01
    5   17    0      1.30     -0.01
    6   17    0     -2.18      0.01
    7   17    0      0.76      0.00
    8   17    0     -2.61      0.02
    9   17    0      0.65      0.00
   10   17    0     -2.37      0.01
   11   17    0      0.74      0.01
   12   17    0     -1.45      0.03
   13   17    0      0.29      0.01
   14   17    0     -0.69      0.03
   15   17    0     -0.01      0.01
   16   17    0     -0.28      0.00
   17   17    0      0.10      0.00
    0   18    0     -0.82      0.01
    1   18    0      0.03      0.01
    2   18    0     -0.18      0.00
    3   18    0     -0.54     -0.01
    4   18    0      0.42      0.00
    5   18    0     -1.54     -0.02
    6   18    0      0.00     -0.01
    7   18    0     -1.99      0.00
    8   18    0     -0.11     -0.01
    9   18    0     -2.00     -0.01
   10   18    0      0.51      0.00
   11   18    0     -1.42      0.01
   12   18    0      0.58      0.01
   13   18    0     -0.71      0.03
   14   18    0      0.18      0.00
   15   18    0     -0.60      0.00
   16   18    0      0.11     -0.01
   17   18    0     -0.32     -0.01
   18   18    0     -0.01     -0.04
    1   19    0     -1.03      0.01
    2   19    0     -0.30      0.00
    3   19    0     -0.07      0.00
    4   19    0     -0.99     -0.03
    5   19    0     -0.09     -0.01
    6   19    0     -1.22     -0.01
    7   19    0     -0.59     -0.01
    8   19    0     -1.06      0.00
    9   19    0     -0.17     -0.01
   10   19    0     -0.75     -0.01
   11   19    0      0.39      0.01
   12   19    0     -0.23      0.02
   13   19    0      0.27      0.00
   14   19    0     -0.32      0.02
   15   19    0      0.13     -0.02
   16   19    0     -0.70     -0.02
   17   19    0      0.02     -0.05
   18   19    0     -0.28      0.00
   19   19    0     -0.36     -0.06
    0   20    0     -1.59      0.01
    1   20    0     -0.28      0.01
    2   20    0     -0.64      0.00
    3   20    0     -0.79     -0.01
    4   20    0      0.34      0.00
    5   20    0     -0.78     -0.01
    6   20    0     -0.13      0.00
    7   20    0     -0.18      0.01
    8   20    0     -0.50     -0.01
    9   20    0      0.19      0.00
   10   20    0     -0.13      0.00
   11   20    0      0.51      0.01
   12   20    0      0.07      0.01
   13   20    0      0.45      0.03
   14   20    0      0.10     -0.02
   15   20    0     -0.43      0.00
   16   20    0      0.12     -0.06
   17   20    0     -0.68     -0.01
   18   20    0     -0.25     -0.07
   19   20    0     -0.10      0.01
   20   20    0     -0.61     -0.04
    1   21    0     -1.20      0.00
    2   21    0     -0.69      0.03
    3   21    0      0.52      0.00
    4   21    0     -0.68      0.00
    5   21    0      0.97      0.00
    6   21    0      0.20      0.02
    7   21    0      0.07      0.00
    8   21    0      0.85      0.03
    9   21    0     -0.37      0.00
   10   21    0      1.04      0.01
   11   21    0     -0.30      0.00
   12   21    0      1.16      0.03
   13   21    0     -0.09      0.00
   14   21    0      0.38      0.03
   15   21    0      0.21     -0.05
   16   21    0     -0.64      0.01
   17   21    0      0.05     -0.08
   18   21    0     -0.37      0.02
   19   21    0     -0.45     -0.05
   20   21    0      0.09      0.02
   21   21    0     -0.47     -0.01
    0   22    0     -1.06      0.00
    1   22    0     -0.39      0.03
    2   22    0      0.20      0.00
    3   22    0     -0.62      0.02
    4   22    0      1.69      0.00
    5   22    0      0.17      0.01
    6   22    0      1.16      0.01
    7   22    0      1.01      0.04
    8   22    0     -0.01      0.00
    9   22    0      1.09      0.03
   10   22    0     -0.49      0.00
   11   22    0      1.22      0.02
   12   22    0     -0.36      0.01
   13   22    0      1.07      0.04
   14   22    0      0.11     -0.02
   15   22    0     -0.07      0.02
   16   22    0      0.31     -0.06
   17   22    0     -0.57      0.02
   18   22    0     -0.07     -0.06
   19   22    0      0.04      0.04
   20   22    0     -0.33     -0.01
    1   23    0     -0.09     -0.01
    2   23    0     -0.39      0.02
    3   23    0      1.51      0.00
    4   23    0      0.08     -0.01
    5   23    0      1.82      0.01
    6   23    0      0.90      0.01
    7   23    0      0.57      0.01
    8   23    0      0.88      0.03
    9   23    0     -0.39      0.00
   10   23    0      0.64      0.01
   11   23    0     -0.53      0.00
   12   23    0      0.93      0.02
   13   23    0     -0.14      0.01
   14   23    0      0.53      0.03
   15   23    0      0.28     -0.02
   16   23    0     -0.41      0.01
   17   23    0      0.23     -0.05
   18   23    0     -0.28      0.02
    0   24    0     -0.08     -0.01
    1   24    0     -0.12      0.00
    2   24    0      0.76      0.00
    3   24    0      0.08     -0.02
    4   24    0      1.57      0.00
    5   24    0      0.78     -0.03
    6   24    0      0.78      0.00
    7   24    0      0.82      0.01
    8   24    0     -0.33      0.00
    9   24    0      0.07      0.00
   10   24    0     -0.60      0.00
   11   24    0      0.05     -0.01
   12   24    0     -0.34      0.01
   13   24    0      0.46      0.01
   14   24    0     -0.01      0.01
   15   24    0     -0.02      0.00
   16   24    0      0.15     -0.02
   17   24    0     -0.44     -0.01
    1   25    0     -0.05     -0.01
    2   25    0      0.04     -0.02
    3   25    0      0.71      0.00
    4   25    0      0.62     -0.05
    5   25    0      0.51      0.00
    6   25    0      0.95     -0.03
    7   25    0     -0.49      0.00
    8   25    0      0.12      0.00
    9   25    0     -0.82      0.00
   10   25    0     -0.71     -0.02
   11   25    0     -0.47      0.00
   12   25    0     -0.31     -0.01
   13   25    0     -0.25      0.01
   14   25    0      0.06      0.00
   15   25    0     -0.18      0.01
   16   25    0     -0.28     -0.02
    0   26    0     -0.65     -0.01
    1   26    0     -0.04      0.00
    2   26    0     -0.20     -0.01
    3   26    0      0.26     -0.03
    4   26    0      0.09     -0.01
    5   26    0      0.92     -0.04
    6   26    0     -0.60     -0.01
    7   26    0      0.66     -0.01
    8   26    0     -1.13      0.00
    9   26    0     -0.60     -0.01
   10   26    0     -0.74      0.00
   11   26    0     -1.02     -0.01
   12   26    0     -0.33      0.01
   13   26    0     -0.36      0.01
   14   26    0     -0.40      0.01
    1   27    0     -0.81      0.00
    2   27    0     -0.15      0.00
    3   27    0     -0.24     -0.01
    4   27    0      0.43     -0.03
    5   27    0     -0.38     -0.01
    6   27    0      0.96     -0.01
    7   27    0     -1.08     -0.01
    8   27    0      0.18      0.01
    9   27    0     -1.04      0.00
   10   27    0     -0.95      0.00
   11   27    0     -0.46      0.00
   12   27    0     -0.80      0.01
    0   28    0     -0.90      0.00
    1   28    0     -0.28      0.01
    2   28    0     -0.46      0.00
    3   28    0     -0.25     -0.01
    4   28    0     -0.04     -0.01
    5   28    0      0.57     -0.02
    6   28    0     -0.53     -0.01
    7   28    0      0.75      0.01
    8   28    0     -0.99      0.00
    9   28    0     -0.24      0.01
   10   28    0     -0.63      0.00
    1   29    0     -0.50      0.00
    2   29    0     -0.58      0.00
    3   29    0      0.06      0.00
    4   29    0     -0.17     -0.02
    5   29    0      0.07      0.00
    6   29    0      0.59     -0.01
    1    2    1     92.87     -2.77
    0    2    1      0.01     -3.31
    2    3    1     45.49     -5.49
    1    3    1      2.37     -4.85
    0    3    1     66.57     -0.03
    3    4    1      7.84     -6.44
    2    4    1      6.49     -4.59
    1    4    1     30.61     -3.08
    0    4    1      0.00     -6.99
    4    5    1    -11.99     -5.89
    3    5    1      9.76     -3.64
    2    5    1      2.41     -4.76
    1    5    1      6.47     -6.39
    0    5    1     10.73      0.02
    5    6    1    -17.99     -4.45
    4    6    1     10.63     -2.74
    3    6    1    -12.15     -5.02
    2    6    1     12.63     -4.88
    1    6    1     -4.35     -2.29
    0    6    1      0.00     -5.52
    6    7    1    -16.08     -2.13
    5    7    1      9.46     -1.87
    4    7    1    -16.17     -4.18
    3    7    1     15.45     -3.55
    2    7    1    -11.66     -3.41
    1    7    1      7.95     -3.87
    0    7    1     -8.78      0.00
    7    8    1    -10.36      0.39
    6    8    1      7.18     -1.02
    5    8    1    -13.84     -2.27
    4    8    1     14.93     -2.29
    3    8    1    -12.93     -3.29
    2    8    1     13.34     -2.52
    1    8    1    -10.18     -1.51
    0    8    1      0.00     -2.32
    8    9    1     -4.36      1.57
    7    9    1      4.42     -0.43
    6    9    1     -8.24     -0.06
    5    9    1     12.08     -1.09
    4    9    1    -10.02     -2.03
    3    9    1     15.15     -1.29
    2    9    1     -9.08     -1.87
    1    9    1      7.09     -1.03
    0    9    1     -8.07      0.00
    9   10    1     -0.75      0.95
    8   10    1      1.87     -0.16
    7   10    1     -2.58      1.05
    6   10    1      7.78     -0.34
    5   10    1     -4.72     -0.41
    4   10    1     13.55     -0.20
    3   10    1     -5.74     -1.23
    2   10    1     11.28      0.07
    1   10    1     -5.48     -0.58
    0   10    1      0.00      0.15
   10   11    1      0.24     -0.14
    9   11    1      0.24     -0.01
    8   11    1      0.61      0.67
    7   11    1      3.38     -0.11
    6   11    1      0.27      0.43
    5   11    1      9.22      0.28
    4   11    1     -1.04     -0.34
    3   11    1     11.61      0.85
    2   11    1     -2.17     -0.42
    1   11    1      5.42      0.99
    0   11    1     -2.47      0.02
   11   12    1     -0.01     -0.37
   10   12    1     -0.39      0.14
    9   12    1      1.18     -0.06
    8   12    1      0.36      0.02
    7   12    1      2.71      0.28
    6   12    1      4.06      0.21
    5   12    1      2.93      0.09
    4   12    1      8.33      0.94
    3   12    1      1.45     -0.10
    2   12    1      7.35      1.34
    1   12    1      0.03     -0.04
    0   12    1      0.00      1.30
   12   13    1     -0.35      0.03
   11   13    1     -0.51      0.20
   10   13    1      0.61     -0.11
    9   13    1     -0.93      0.25
    8   13    1      2.61     -0.02
    7   13    1      0.25      0.19
    6   13    1      4.44      0.06
    5   13    1      3.58      0.59
    4   13    1      4.10      0.03
    3   13    1      5.63      1.10
    2   13    1      2.09      0.00
    1   13    1      2.82      1.09
    0   13    1      1.02      0.00
   13   14    1     -0.44      0.15
   12   14    1     -0.55      0.12
   11   14    1      0.11      0.24
   10   14    1     -1.27      0.34
    9   14    1      1.51      0.09
    8   14    1     -1.53      0.38
    7   14    1      3.68      0.02
    6   14    1     -0.13      0.42
    5   14    1      4.77      0.12
    4   14    1      2.23      0.65
    3   14    1      3.40      0.10
    2   14    1      2.62      0.62
    1   14    1      1.40      0.00
    0   14    1      0.01      0.45
   14   15    1     -0.30     -0.20
   13   15    1     -0.56      0.03
   12   15    1     -0.04      0.25
   11   15    1     -1.34      0.20
   10   15    1      0.70      0.29
    9   15    1     -2.09      0.44
    8   15    1      2.09      0.12
    7   15    1     -1.95      0.51
    6   15    1      3.65      0.25
    5   15    1     -0.56      0.45
    4   15    1      3.53      0.35
    3   15    1      0.91      0.26
    2   15    1      1.66      0.13
    1   15    1      0.71     -0.04
    0   15    1      0.55     -0.01
   15   16    1     -0.05     -0.67
   14   16    1     -0.48      0.01
   13   16    1      0.02     -0.16
   12   16    1     -1.20      0.04
   11   16    1      0.43      0.12
   10   16    1     -2.12      0.21
    9   16    1      0.94      0.07
    8   16    1     -2.51      0.46
    7   16    1      1.87      0.24
    6   16    1     -1.97      0.45
    5   16    1      2.52      0.60
    4   16    1     -0.68      0.14
    3   16    1      1.65      0.43
    2   16    1      0.26     -0.18
    1   16    1      0.20      0.08
    0   16    1      0.01     -0.33
   16   17    1      0.15     -1.08
   15   17    1     -0.43      0.03
   14   17    1      0.10     -0.55
   13   17    1     -0.84      0.00
   12   17    1      0.38     -0.29
   11   17    1     -1.67     -0.03
   10   17    1      0.52     -0.24
    9   17    1     -2.35      0.15
    8   17    1      0.55     -0.05
    7   17    1     -2.32      0.35
    6   17    1      1.00      0.51
    5   17    1     -1.58      0.11
    4   17    1      1.09      0.66
    3   17    1     -0.42     -0.20
    2   17    1      0.18      0.22
    1   17    1      0.09     -0.22
    0   17    1     -0.46      0.01
   17   18    1      0.17     -1.46
   16   18    1     -0.45      0.08
   15   18    1      0.15     -0.75
   14   18    1     -0.53      0.04
   13   18    1      0.27     -0.51
   12   18    1     -0.86     -0.11
   11   18    1      0.41     -0.55
   10   18    1     -1.55     -0.18
    9   18    1      0.07     -0.40
    8   18    1     -1.88      0.07
    7   18    1     -0.12      0.13
    6   18    1     -1.76      0.06
    5   18    1      0.21      0.55
    4   18    1     -1.05     -0.28
    3   18    1      0.05      0.25
    2   18    1     -0.15     -0.20
    1   18    1     -0.69     -0.03
    0   18    1     -0.02      0.02
   18   19    1     -0.01     -1.69
   17   19    1     -0.45      0.18
   16   19    1      0.18     -0.88
   15   19    1     -0.48      0.13
   14   19    1      0.16     -0.41
   13   19    1     -0.18     -0.07
   12   19    1      0.25     -0.56
   11   19    1     -0.42     -0.34
   10   19    1      0.03     -0.56
    9   19    1     -0.82     -0.22
    8   19    1     -0.46     -0.16
    7   19    1     -1.12      0.05
    6   19    1     -0.35      0.27
    5   19    1     -1.24     -0.20
    4   19    1     -0.07      0.15
    3   19    1     -0.68     -0.33
    2   19    1     -0.68     -0.20
    1   19    1     -0.11      0.08
    0   19    1     -1.25      0.01
   19   20    1     -0.30     -1.55
   18   20    1     -0.29      0.28
   17   20    1      0.12     -0.99
   16   20    1     -0.56      0.30
   15   20    1      0.22     -0.19
   14   20    1      0.03      0.02
   13   20    1      0.10     -0.24
   12   20    1      0.47     -0.36
   11   20    1     -0.04     -0.43
   10   20    1      0.32     -0.44
    9   20    1     -0.37     -0.18
    8   20    1      0.05      0.01
    7   20    1     -0.37      0.14
    6   20    1     -0.58      0.17
    5   20    1      0.14      0.09
    4   20    1     -0.95     -0.17
    3   20    1     -0.16     -0.28
    2   20    1     -0.52     -0.04
    1   20    1     -1.33     -0.24
    0   20    1     -0.03      0.24
   20   21    1     -0.39     -1.00
   19   21    1      0.01      0.25
   18   21    1     -0.06     -0.96
   17   21    1     -0.48      0.47
   16   21    1      0.34     -0.11
   15   21    1     -0.15      0.21
   14   21    1      0.22      0.19
   13   21    1      0.75     -0.28
   12   21    1     -0.11     -0.11
   11   21    1      1.00     -0.56
   10   21    1     -0.32     -0.05
    9   21    1      0.92     -0.17
    8   21    1     -0.24      0.20
    7   21    1      0.53      0.49
    6   21    1      0.48      0.18
    5   21    1     -0.39      0.45
    4   21    1      0.80     -0.09
    3   21    1     -0.76      0.17
    2   21    1     -0.47     -0.26
    1   21    1     -0.32      0.32
    0   21    1     -1.51     -0.02
   19   22    1     -0.15     -0.72
   18   22    1     -0.21      0.43
   17   22    1      0.29     -0.22
   16   22    1     -0.38      0.39
   15   22    1      0.44      0.40
   14   22    1      0.49     -0.11
   13   22    1      0.05      0.26
   12   22    1      1.08     -0.53
   11   22    1     -0.33      0.09
   10   22    1      1.07     -0.38
    9   22    1     -0.31      0.26
    8   22    1      1.10      0.42
    7   22    1      0.44      0.30
    6   22    1      0.58      0.98
    5   22    1      1.44      0.20
    4   22    1     -0.32      0.79
    3   22    1      0.94      0.11
    2   22    1     -0.49      0.59
    1   22    1     -0.73      0.01
    0   22    1     -0.01      0.57
   18   23    1      0.16     -0.33
   17   23    1     -0.39      0.40
   16   23    1      0.43      0.26
   15   23    1      0.02      0.06
   14   23    1      0.26      0.44
   13   23    1      0.75     -0.39
   12   23    1     -0.20      0.19
   11   23    1      0.72     -0.42
   10   23    1     -0.44      0.19
    9   23    1      0.77      0.11
    8   23    1     -0.07      0.28
    7   23    1      0.99      0.90
    6   23    1      1.08      0.34
    5   23    1      0.49      1.20
    4   23    1      1.70      0.53
    3   23    1     -0.15      1.00
    2   23    1      0.54      0.48
    1   23    1     -0.16      0.85
    0   23    1     -0.47     -0.04
   17   24    1      0.24     -0.03
   16   24    1     -0.29      0.12
   15   24    1      0.20      0.31
   14   24    1      0.26     -0.25
   13   24    1     -0.05      0.21
   12   24    1      0.27     -0.33
   11   24    1     -0.39      0.07
   10   24    1      0.02     -0.04
    9   24    1     -0.55      0.13
    8   24    1      0.52      0.47
    7   24    1      0.04      0.28
    6   24    1      0.91      0.94
    5   24    1      1.15      0.66
    4   24    1      0.48      1.06
    3   24    1      1.15      0.94
    2   24    1      0.04      0.97
    1   24    1      0.06      0.46
    0   24    1      0.00      0.90
   16   25    1     -0.01      0.05
   15   25    1     -0.08     -0.17
   14   25    1     -0.15      0.09
   13   25    1     -0.06     -0.27
   12   25    1     -0.27     -0.05
   11   25    1     -0.56     -0.03
   10   25    1     -0.63     -0.05
    9   25    1     -0.32      0.20
    8   25    1     -0.81      0.13
    7   25    1      0.65      0.36
    6   25    1     -0.09      0.56
    5   25    1      0.91      0.55
    4   25    1      0.67      1.08
    3   25    1      0.42      0.70
    2   25    1      0.26      0.96
    1   25    1      0.07      0.73
    0   25    1     -0.28     -0.01
   14   26    1     -0.15     -0.23
   13   26    1     -0.30     -0.15
   12   26    1     -0.69     -0.05
   11   26    1     -0.43     -0.17
   10   26    1     -0.93      0.15
    9   26    1     -0.98      0.00
    8   26    1      0.04      0.04
    7   26    1     -0.98      0.40
    6   26    1      0.94     -0.09
    5   26    1     -0.21      0.96
    4   26    1      0.73      0.06
    3   26    1      0.04      1.13
    2   26    1      0.20      0.29
    1   26    1     -0.48      0.52
    0   26    1      0.00      0.37
   12   27    1     -0.28     -0.20
   11   27    1     -0.98      0.10
   10   27    1     -0.67     -0.06
    9   27    1     -0.50      0.02
    8   27    1     -1.14      0.27
    7   27    1      0.67     -0.34
    6   27    1     -0.73      0.78
    5   27    1      0.89     -0.48
    4   27    1     -0.17      1.06
    3   27    1      0.27     -0.24
    2   27    1     -0.43      0.75
    1   27    1     -0.03      0.00
    0   27    1     -0.79      0.03
    9   28    1     -0.79      0.18
    8   28    1      0.26     -0.23
    7   28    1     -0.78      0.56
    6   28    1      0.87     -0.57
    5   28    1     -0.18      0.88
    4   28    1      0.34     -0.57
    3   28    1     -0.11      0.75
    2   28    1     -0.19     -0.28
    1   28    1     -0.60      0.28
    0   28    1      0.01     -0.16
    6   29    1     -0.16      0.62
    5   29    1      0.44     -0.50
    4   29    1      0.18      0.64
    3   29    1     -0.26     -0.38
    2   29    1     -0.15      0.33
    1   29    1     -0.26     -0.15
    0    0    2     93.88     -0.19
    1    1    2     80.82     -2.80
    0    1    2      0.01     -1.57
    2    2    2     49.97     -7.91
    1    2    2      0.47     -3.82
    0    2    2     69.37     -0.10
    3    3    2     18.22    -11.05
    2    3    2      1.74     -4.36
    1    3    2     42.28     -5.40
    0    3    2      0.01     -9.29
    4    4    2     -2.91    -11.03
    3    4    2      3.22     -3.76
    2    4    2     14.49     -9.10
    1    4    2      3.02    -10.43
    0    4    2     24.26      0.02
    5    5    2    -12.08     -9.11
    4    5    2      4.09     -2.91
    3    5    2     -3.91     -9.86
    2    5    2      7.03     -8.81
    1    5    2      5.98     -4.59
    0    5    2      0.00    -11.36
    6    6    2    -13.02     -5.80
    5    6    2      4.10     -2.10
    4    6    2    -11.81     -8.63
    3    6    2      9.75     -6.68
    2    6    2     -5.89     -6.90
    1    6    2      5.40     -9.12
    0    6    2     -2.21      0.01
    7    7    2     -9.44     -1.38
    6    7    2      3.46     -1.27
    5    7    2    -12.36     -5.78
    4    7    2     10.30     -4.70
    3    7    2    -10.69     -7.10
    2    7    2      9.98     -6.53
    1    7    2     -7.10     -3.24
    0    7    2     -0.01     -6.74
    8    8    2     -4.44      2.15
    7    8    2      2.47     -0.57
    6    8    2     -8.75     -1.66
    5    8    2      9.02     -2.70
    4    8    2    -10.29     -5.30
    3    8    2     12.01     -4.23
    2    8    2     -8.49     -4.59
    1    8    2      5.76     -4.13
    0    8    2     -6.95     -0.02
    9    9    2     -0.70      2.69
    8    9    2      1.36     -0.20
    7    9    2     -3.83      1.70
    6    9    2      6.56     -1.08
    5    9    2     -6.63     -2.04
    4    9    2     11.39     -1.98
    3    9    2     -6.99     -3.89
    2    9    2      9.55     -1.92
    1    9    2     -5.72     -1.86
    0    9    2     -0.01     -1.63
   10   10    2      0.55      1.00
    9   10    2      0.45     -0.07
    8   10    2     -0.21      2.32
    7   10    2      3.62     -0.32
    6   10    2     -2.01      0.75
    5   10    2      8.65     -0.34
    4   10    2     -3.40     -1.81
    3   10    2     10.46      0.02
    2   10    2     -3.43     -1.98
    1   10    2      4.84      0.41
    0   10    2     -3.09      0.02
   11   11    2      0.04     -0.33
   10   11    2     -0.07      0.03
    9   11    2      0.94      0.92
    8   11    2      1.09     -0.11
    7   11    2      1.18      1.44
    6   11    2      4.80      0.15
    5   11    2      0.59      0.04
    4   11    2      8.52      1.07
    3   11    2     -0.24     -1.04
    2   11    2      7.20      1.80
    1   11    2     -0.72     -0.54
    0   11    2      0.00      1.96
   12   12    2     -0.74     -0.27
   11   12    2     -0.22      0.11
   10   12    2      0.37     -0.15
    9   12    2     -0.39      0.08
    8   12    2      1.98      0.64
    7   12    2      1.26      0.07
    6   12    2      3.01      0.56
    5   12    2      4.82      0.93
    4   12    2      2.77     -0.16
    3   12    2      6.57      2.08
    2   12    2      1.56     -0.36
    1   12    2      3.15      2.50
    0   12    2      0.86      0.02
   13   13    2     -0.85      0.12
   12   13    2     -0.17      0.12
   11   13    2     -0.46     -0.02
   10   13    2     -0.82      0.29
    9   13    2      1.19      0.12
    8   13    2     -0.90      0.18
    7   13    2      3.20      0.27
    6   13    2      1.15      0.43
    5   13    2      4.22      0.14
    4   13    2      3.88      1.38
    3   13    2      3.32     -0.06
    2   13    2      3.73      2.01
    1   13    2      1.75     -0.06
    0   13    2      0.01      2.06
   14   14    2     -0.34     -0.11
   13   14    2     -0.10      0.08
   12   14    2     -0.65      0.30
   11   14    2     -0.67      0.31
   10   14    2      0.21      0.35
    9   14    2     -1.58      0.41
    8   14    2      2.06      0.18
    7   14    2     -1.20      0.36
    6   14    2      3.81      0.19
    5   14    2      0.91      0.66
    4   14    2      3.91      0.22
    3   14    2      2.39      1.06
    2   14    2      2.29      0.07
    1   14    2      1.27      1.04
    0   14    2      1.25     -0.01
   15   15    2      0.21     -0.73
   14   15    2     -0.10      0.06
   13   15    2     -0.25     -0.02
   12   15    2     -0.44      0.19
   11   15    2     -0.20      0.46
   10   15    2     -1.39      0.39
    9   15    2      0.83      0.33
    8   15    2     -2.06      0.49
    7   15    2      2.40      0.25
    6   15    2     -1.12      0.47
    5   15    2      3.23      0.54
    4   15    2      0.55      0.41
    3   15    2      2.33      0.45
    2   15    2      1.01      0.21
    1   15    2      0.86      0.09
    0   15    2      0.00      0.03
   16   16    2      0.42     -1.28
   15   16    2     -0.13      0.08
   14   16    2      0.19     -0.65
   13   16    2     -0.34      0.16
   12   16    2     -0.08     -0.02
   11   16    2     -0.95      0.20
   10   16    2      0.15      0.15
    9   16    2     -1.90      0.35
    8   16    2      1.02      0.14
    7   16    2     -1.98      0.46
    6   16    2      1.91      0.64
    5   16    2     -0.87      0.24
    4   16    2      1.75      0.90
    3   16    2      0.18     -0.13
    2   16    2      0.64      0.39
    1   16    2      0.23     -0.36
    0   16    2      0.01      0.00
   17   17    2      0.41     -1.75
   16   17    2     -0.14      0.11
   15   17    2      0.35     -1.08
   14   17    2     -0.32      0.21
   13   17    2      0.13     -0.61
   12   17    2     -0.59      0.14
   11   17    2     -0.02     -0.42
   10   17    2     -1.29      0.06
    9   17    2      0.17     -0.31
    8   17    2     -1.87      0.23
    7   17    2      0.69      0.28
    6   17    2     -1.60      0.18
    5   17    2      0.86      0.98
    4   17    2     -0.68     -0.25
    3   17    2      0.29      0.64
    2   17    2     -0.03     -0.39
    1   17    2     -0.36      0.08
    0   17    2     -0.02     -0.31
   18   18    2      0.38     -2.20
   17   18    2     -0.11      0.17
   16   18    2      0.35     -1.35
   15   18    2     -0.29      0.29
   14   18    2      0.21     -0.76
   13   18    2     -0.36      0.21
   12   18    2      0.02     -0.83
   11   18    2     -0.66     -0.07
   10   18    2     -0.15     -0.82
    9   18    2     -1.16     -0.10
    8   18    2     -0.07     -0.30
    7   18    2     -1.50      0.06
    6   18    2      0.12      0.57
    5   18    2     -1.28     -0.30
    4   18    2     -0.12      0.60
    3   18    2     -0.55     -0.55
    2   18    2     -0.62     -0.06
    1   18    2     -0.07     -0.17
    0   18    2     -0.83      0.01
   19   19    2      0.26     -2.36
   18   19    2     -0.05      0.25
   17   19    2      0.36     -1.62
   16   19    2     -0.22      0.44
   15   19    2      0.28     -0.55
   14   19    2     -0.20      0.29
   13   19    2      0.13     -0.65
   12   19    2     -0.19     -0.07
   11   19    2     -0.12     -0.98
   10   19    2     -0.33     -0.33
    9   19    2     -0.33     -0.65
    8   19    2     -0.69     -0.06
    7   19    2     -0.25      0.10
    6   19    2     -1.18     -0.08
    5   19    2     -0.24      0.36
    4   19    2     -1.06     -0.61
    3   19    2     -0.68     -0.29
    2   19    2     -0.38     -0.40
    1   19    2     -1.16     -0.39
    0   19    2     -0.01      0.03
   20   20    2      0.06     -1.91
   19   20    2      0.04      0.25
   18   20    2      0.30     -1.77
   17   20    2     -0.11      0.64
   16   20    2      0.43     -0.40
   15   20    2     -0.09      0.45
   14   20    2      0.35     -0.02
   13   20    2      0.11     -0.05
   12   20    2      0.09     -0.60
   11   20    2      0.24     -0.47
   10   20    2     -0.25     -0.60
    9   20    2      0.26     -0.22
    8   20    2     -0.31     -0.04
    7   20    2     -0.29      0.33
    6   20    2     -0.07      0.26
    5   20    2     -0.99     -0.01
    4   20    2     -0.23     -0.27
    3   20    2     -0.76     -0.46
    2   20    2     -1.01     -0.76
    1   20    2     -0.17     -0.07
    0   20    2     -1.47     -0.01
   20   21    2      0.12      0.13
   19   21    2      0.11     -1.53
   18   21    2      0.02      0.68
   17   21    2      0.45     -0.50
   16   21    2     -0.08      0.68
   15   21    2      0.60      0.53
   14   21    2      0.21      0.06
   13   21    2      0.42      0.13
   12   21    2      0.48     -0.55
   11   21    2      0.02     -0.29
   10   21    2      0.75     -0.51
    9   21    2     -0.24      0.06
    8   21    2      0.71      0.44
    7   21    2      0.06      0.36
    6   21    2     -0.15      0.95
    5   21    2      0.43      0.06
    4   21    2     -0.72      0.35
    3   21    2     -0.15     -0.55
    2   21    2     -0.36      0.05
    1   21    2     -1.23     -0.44
    0   21    2      0.00      0.17
   19   22    2      0.17      0.40
   18   22    2      0.29     -0.67
   17   22    2     -0.08      0.78
   16   22    2      0.66      0.54
   15   22    2      0.10      0.25
   14   22    2      0.68      0.76
   13   22    2      0.48     -0.50
   12   22    2      0.32      0.15
   11   22    2      0.73     -0.71
   10   22    2     -0.11      0.14
    9   22    2      1.04      0.08
    8   22    2     -0.06      0.41
    7   22    2      0.77      1.34
    6   22    2      0.63      0.36
    5   22    2     -0.07      1.52
    4   22    2      0.83      0.08
    3   22    2     -0.28      0.86
    2   22    2     -0.26     -0.16
    1   22    2     -0.05      0.60
    0   22    2     -1.08     -0.04
   18   23    2     -0.02      0.54
   17   23    2      0.47      0.10
   16   23    2     -0.10      0.39
   15   23    2      0.66      0.85
   14   23    2      0.27     -0.36
   13   23    2      0.46      0.51
   12   23    2      0.46     -0.71
   11   23    2      0.04      0.14
   10   23    2      0.66     -0.28
    9   23    2     -0.26      0.25
    8   23    2      0.95      0.90
    7   23    2      0.17      0.36
    6   23    2      0.64      1.89
    5   23    2      1.01      0.50
    4   23    2      0.17      1.77
    3   23    2      0.74      0.55
    2   23    2      0.12      1.27
    1   23    2     -0.43      0.21
    0   23    2      0.00      1.08
   17   24    2     -0.18      0.34
   16   24    2      0.41      0.41
   15   24    2     -0.01     -0.21
   14   24    2      0.33      0.54
   13   24    2      0.16     -0.61
   12   24    2      0.08      0.10
   11   24    2      0.08     -0.34
   10   24    2     -0.34     -0.03
    9   24    2      0.36      0.35
    8   24    2     -0.47      0.11
    7   24    2      0.74      1.25
    6   24    2      0.26      0.47
    5   24    2      0.65      1.76
    4   24    2      0.88      0.97
    3   24    2      0.46      1.64
    2   24    2      0.23      0.88
    1   24    2      0.21      1.42
    0   24    2     -0.43     -0.03
   15   25    2      0.07      0.26
   14   25    2     -0.06     -0.51
   13   25    2     -0.05      0.00
   12   25    2     -0.31     -0.30
   11   25    2     -0.29     -0.28
   10   25    2     -0.40      0.17
    9   25    2     -0.76     -0.19
    8   25    2      0.18      0.50
    7   25    2     -0.66      0.23
    6   25    2      0.74      0.86
    5   25    2      0.16      0.94
    4   25    2      0.79      1.16
    3   25    2      0.34      1.29
    2   25    2      0.52      1.28
    1   25    2     -0.29      0.61
    0   25    2      0.00      1.29
   14   26    2     -0.21     -0.11
   13   26    2     -0.34     -0.32
   12   26    2     -0.23     -0.40
   11   26    2     -0.79      0.13
   10   26    2     -0.61     -0.38
    9   26    2     -0.52      0.22
    8   26    2     -1.04      0.02
    7   26    2      0.40      0.01
    6   26    2     -0.63      0.74
    5   26    2      0.91      0.13
    4   26    2     -0.01      1.29
    3   26    2      0.75      0.57
    2   26    2     -0.18      1.02
    1   26    2      0.27      0.89
    0   26    2     -0.47      0.02
   12   27    2     -0.62      0.00
   11   27    2     -0.29     -0.40
   10   27    2     -0.85      0.17
    9   27    2     -0.82     -0.10
    8   27    2     -0.09     -0.22
    7   27    2     -0.90      0.55
    6   27    2      0.81     -0.60
    5   27    2     -0.34      1.15
    4   27    2      0.87     -0.32
    3   27    2     -0.10      1.09
    2   27    2      0.42      0.28
    1   27    2     -0.34      0.44
    0   27    2      0.00      0.54
    9   28    2     -0.38     -0.11
    8   28    2     -0.68      0.36
    7   28    2      0.54     -0.63
    6   28    2     -0.37      0.93
    5   28    2      0.90     -0.79
    4   28    2      0.00      1.01
    3   28    2      0.48     -0.29
    2   28    2     -0.07      0.53
    1   28    2      0.08      0.24
    0   28    2     -0.17      0.04
    6   29    2      0.80     -0.65
    5   29    2      0.12      0.83
    4   29    2      0.54     -0.54
    3   29    2      0.14      0.51
    2   29    2      0.04     -0.01
    1   29    2      0.02      0.13
    0    1    3     40.71     -0.12
    1    2    3     30.37     -5.28
    0    2    3      0.01     -5.57
    2    3    3     15.34    -10.71
    1    3    3      0.63     -8.36
    0    3    3     22.33     -0.02
    3    4    3      2.28    -12.73
    2    4    3      1.93     -8.15
    1    4    3     10.59     -6.02
    0    4    3      0.01    -12.38
    4    5    3     -5.22    -11.69
    3    5    3      3.39     -6.58
    2    5    3      0.41     -9.33
    1    5    3      2.07    -11.77
    0    5    3      3.81      0.01
    5    6    3     -7.20     -8.86
    4    6    3      4.33     -4.83
    3    6    3     -5.41     -9.76
    2    6    3      4.69     -9.21
    1    6    3     -1.92     -4.45
    0    6    3     -0.02    -10.73
    6    7    3     -5.48     -4.46
    5    7    3      4.40     -3.07
    4    7    3     -6.78     -8.06
    3    7    3      6.56     -6.50
    2    7    3     -5.01     -6.57
    1    7    3      3.21     -7.78
    0    7    3     -3.42     -0.02
    7    8    3     -2.28      0.37
    6    8    3      3.68     -1.45
    5    8    3     -5.00     -4.42
    4    8    3      6.93     -3.83
    3    8    3     -5.30     -6.36
    2    8    3      5.91     -4.83
    1    8    3     -3.72     -3.00
    0    8    3     -0.03     -4.77
    8    9    3      0.44      3.07
    7    9    3      2.52     -0.44
    6    9    3     -1.91     -0.12
    5    9    3      5.85     -1.48
    4    9    3     -3.41     -3.94
    3    9    3      6.92     -2.12
    2    9    3     -2.83     -3.94
    1    9    3      3.20     -1.80
    0    9    3     -2.05      0.00
    9   10    3      1.45      2.63
    8   10    3      1.26     -0.14
    7   10    3      0.67      2.38
    6   10    3      3.90     -0.20
    5   10    3     -0.63     -0.67
    4   10    3      6.09     -0.04
    3   10    3     -0.91     -2.85
    2   10    3      5.00      0.56
    1   10    3     -0.45     -1.54
    0   10    3     -0.01      0.98
   10   11    3      0.77      0.91
    9   11    3      0.22     -0.14
    8   11    3      1.63      2.18
    7   11    3      1.74     -0.01
    6   11    3      1.52      1.32
    5   11    3      4.05      0.69
    4   11    3      1.33     -0.88
    3   11    3      4.94      1.81
    2   11    3      1.19     -1.51
    1   11    3      2.33      2.73
    0   11    3      1.08      0.02
   11   12    3     -0.52      0.01
   10   12    3     -0.31     -0.07
    9   12    3      1.02      0.91
    8   12    3     -0.03     -0.16
    7   12    3      2.15      1.37
    6   12    3      1.65      0.34
    5   12    3      2.76      0.41
    4   12    3      3.51      1.60
    3   12    3      2.67     -0.66
    2   12    3      3.11      2.96
    1   12    3      1.96     -0.46
    0   12    3      0.02      3.55
   12   13    3     -1.08     -0.01
   11   13    3     -0.27      0.06
   10   13    3     -0.13      0.32
    9   13    3     -0.91     -0.11
    8   13    3      1.47      0.70
    7   13    3     -0.37     -0.08
    6   13    3      2.80      0.59
    5   13    3      1.55      0.64
    4   13    3      3.33      0.05
    3   13    3      2.58      1.89
    2   13    3      2.53     -0.24
    1   13    3      1.27      2.86
    0   13    3      1.78      0.01
   13   14    3     -0.53     -0.13
   12   14    3      0.04      0.19
   11   14    3     -0.74      0.33
   10   14    3     -0.78      0.07
    9   14    3      0.40      0.45
    8   14    3     -1.40     -0.12
    7   14    3      1.90      0.38
    6   14    3     -0.23      0.00
    5   14    3      2.91      0.35
    4   14    3      1.42      0.60
    3   14    3      2.62      0.21
    2   14    3      1.42      1.39
    1   14    3      1.49      0.04
    0   14    3      0.00      1.74
   14   15    3      0.38     -0.58
   13   15    3      0.18      0.29
   12   15    3     -0.45      0.10
   11   15    3     -0.17      0.25
   10   15    3     -0.30      0.44
    9   15    3     -1.27      0.01
    8   15    3      0.83      0.29
    7   15    3     -1.29     -0.11
    6   15    3      1.90      0.39
    5   15    3      0.15     -0.04
    4   15    3      2.05      0.60
    3   15    3      0.93      0.23
    2   15    3      1.20      0.37
    1   15    3      0.42      0.53
    0   15    3      0.60      0.00
   15   16    3      0.78     -0.92
   14   16    3      0.08      0.36
   13   16    3      0.16     -0.42
   12   16    3      0.19      0.43
   11   16    3     -0.40      0.09
   10   16    3     -0.51      0.14
    9   16    3      0.03      0.14
    8   16    3     -1.33     -0.10
    7   16    3      0.95      0.26
    6   16    3     -0.80     -0.18
    5   16    3      1.23      0.73
    4   16    3      0.18     -0.25
    3   16    3      0.70      0.67
    2   16    3      0.27     -0.17
    1   16    3      0.10      0.19
    0   16    3     -0.03     -0.07
   16   17    3      0.65     -1.01
   15   17    3     -0.02      0.39
   14   17    3      0.45     -0.72
   13   17    3      0.10      0.58
   12   17    3     -0.16     -0.48
   11   17    3      0.04      0.34
   10   17    3     -0.36     -0.31
    9   17    3     -0.68     -0.06
    8   17    3      0.24     -0.10
    7   17    3     -1.06     -0.22
    6   17    3      0.62      0.51
    5   17    3     -0.57     -0.39
    4   17    3      0.16      0.71
    3   17    3     -0.16     -0.49
    2   17    3     -0.36      0.19
    1   17    3     -0.08     -0.29
    0   17    3     -0.44      0.01
   17   18    3      0.54     -1.10
   16   18    3      0.05      0.44
   15   18    3      0.43     -0.58
   14   18    3     -0.04      0.63
   13   18    3      0.10     -0.66
   12   18    3      0.04      0.53
   11   18    3     -0.35     -0.77
   10   18    3     -0.08      0.09
    9   18    3     -0.23     -0.55
    8   18    3     -0.62     -0.18
    7   18    3      0.23      0.08
    6   18    3     -0.92     -0.37
    5   18    3     -0.07      0.50
    4   18    3     -0.70     -0.70
    3   18    3     -0.75     -0.06
    2   18    3     -0.35     -0.58
    1   18    3     -0.86     -0.28
    0   18    3     -0.01     -0.31
   18   19    3      0.59     -1.34
   17   19    3      0.18      0.55
   16   19    3      0.43     -0.34
   15   19    3      0.07      0.67
   14   19    3      0.31     -0.24
   13   19    3     -0.08      0.56
   12   19    3      0.00     -0.79
   11   19    3      0.05      0.23
   10   19    3     -0.29     -0.82
    9   19    3      0.00     -0.03
    8   19    3     -0.05     -0.25
    7   19    3     -0.58     -0.06
    6   19    3     -0.01      0.30
    5   19    3     -0.98     -0.53
    4   19    3     -0.72     -0.18
    3   19    3     -0.68     -0.90
    2   19    3     -1.19     -0.86
    1   19    3     -0.18     -0.59
    0   19    3     -1.15      0.00
   19   20    3      0.53     -1.47
   18   20    3      0.22      0.59
   17   20    3      0.52     -0.37
   16   20    3      0.27      0.78
   15   20    3      0.51      0.42
   14   20    3      0.04      0.51
   13   20    3      0.48     -0.21
   12   20    3     -0.05      0.16
   11   20    3      0.12     -0.72
   10   20    3      0.28     -0.01
    9   20    3     -0.12     -0.35
    8   20    3      0.16      0.28
    7   20    3      0.03      0.24
    6   20    3     -0.64      0.26
    5   20    3     -0.29      0.05
    4   20    3     -0.86     -0.55
    3   20    3     -1.03     -0.96
    2   20    3     -0.32     -0.84
    1   20    3     -1.34     -0.77
    0   20    3      0.02     -0.67
   20   21    3      0.31     -1.14
   19   21    3      0.20      0.44
   18   21    3      0.47     -0.63
   17   21    3      0.31      0.85
   16   21    3      0.62      0.69
   15   21    3      0.25      0.51
   14   21    3      0.82      0.64
   13   21    3      0.00     -0.02
   12   21    3      0.71     -0.22
   11   21    3      0.19     -0.24
   10   21    3      0.19     -0.28
    9   21    3      0.63      0.23
    8   21    3      0.00      0.23
    7   21    3      0.18      1.00
    6   21    3      0.07      0.37
    5   21    3     -0.58      0.66
    4   21    3     -0.37     -0.41
    3   21    3     -0.37     -0.30
    2   21    3     -1.07     -1.01
    1   21    3      0.02     -0.53
    0   21    3     -1.36     -0.02
   19   22    3      0.26     -0.72
   18   22    3      0.24      0.70
   17   22    3      0.50      0.34
   16   22    3      0.27      0.55
   15   22    3      0.83      1.11
   14   22    3      0.13     -0.14
   13   22    3      1.01      0.47
   12   22    3      0.05     -0.51
   11   22    3      0.64     -0.09
   10   22    3      0.54     -0.18
    9   22    3      0.05      0.11
    8   22    3      0.76      0.97
    7   22    3      0.03      0.40
    6   22    3      0.08      1.71
    5   22    3      0.18      0.19
    4   22    3     -0.20      1.01
    3   22    3     -0.33     -0.46
    2   22    3      0.16      0.19
    1   22    3     -1.07     -0.43
    0   22    3      0.01      0.00
   18   23    3      0.28     -0.18
   17   23    3      0.15      0.53
   16   23    3      0.58      0.84
   15   23    3      0.14     -0.15
   14   23    3      0.84      0.89
   13   23    3      0.00     -0.67
   12   23    3      0.79      0.17
   11   23    3      0.15     -0.50
   10   23    3      0.19     -0.06
    9   23    3      0.65      0.40
    8   23    3     -0.24      0.11
    7   23    3      0.56      1.68
    6   23    3      0.10      0.26
    5   23    3      0.15      1.97
    4   23    3      0.27      0.15
    3   23    3      0.32      1.25
    2   23    3     -0.44     -0.13
    1   23    3      0.29      0.77
    0   23    3     -0.99     -0.03
   17   24    3      0.32      0.20
   16   24    3      0.05     -0.03
   15   24    3      0.44      0.76
   14   24    3     -0.02     -0.69
   13   24    3      0.51      0.34
   12   24    3     -0.17     -0.62
   11   24    3      0.23     -0.21
   10   24    3      0.05     -0.01
    9   24    3     -0.40     -0.27
    8   24    3      0.38      0.93
    7   24    3     -0.42     -0.06
    6   24    3      0.36      1.75
    5   24    3      0.19      0.26
    4   24    3      0.47      1.73
    3   24    3      0.11      0.31
    2   24    3      0.59      1.38
    1   24    3     -0.64      0.09
    0   24    3     -0.01      1.26
   15   25    3     -0.04     -0.51
   14   25    3      0.12      0.29
   13   25    3     -0.25     -0.64
   12   25    3      0.07     -0.28
   11   25    3     -0.44     -0.11
   10   25    3     -0.38     -0.56
    9   25    3     -0.25      0.39
    8   25    3     -0.80     -0.39
    7   25    3      0.13      0.84
    6   25    3     -0.38      0.07
    5   25    3      0.49      1.19
    4   25    3      0.16      0.42
    3   25    3      0.75      1.35
    2   25    3     -0.19      0.34
    1   25    3      0.40      1.47
    0   25    3     -0.57      0.00
   13   26    3     -0.10     -0.26
   12   26    3     -0.51     -0.17
   11   26    3     -0.24     -0.67
   10   26    3     -0.73      0.25
    9   26    3     -0.74     -0.58
    8   26    3     -0.38      0.21
    7   26    3     -0.78     -0.09
    6   26    3      0.30      0.22
    5   26    3     -0.19      0.39
    4   26    3      0.78      0.63
    3   26    3      0.05      0.42
    2   26    3      0.68      1.22
    1   26    3     -0.22      0.16
    0   26    3      0.00      1.49
   11   27    3     -0.69      0.14
   10   27    3     -0.37     -0.58
    9   27    3     -0.72      0.07
    8   27    3     -0.69     -0.15
    7   27    3     -0.01     -0.34
    6   27    3     -0.42      0.39
    5   27    3      0.71     -0.23
    4   27    3      0.02      0.48
    3   27    3      0.79      0.57
    2   27    3      0.12      0.17
    1   27    3      0.32      1.32
    0   27    3      0.13      0.03
    9   28    3     -0.32     -0.13
    8   28    3     -0.22     -0.35
    7   28    3     -0.31      0.33
    6   28    3      0.60     -0.65
    5   28    3     -0.01      0.54
    4   28    3      0.85     -0.13
    3   28    3      0.21      0.20
    2   28    3      0.47      0.86
    1   28    3      0.41     -0.02
    0   28    3      0.01      1.31
    5   29    3      0.86     -0.49
    4   29    3      0.17      0.27
    3   29    3      0.55      0.23
    2   29    3      0.34     -0.09
    1   29    3      0.13      0.96
    0    0    4      4.35     -0.04
    1    1    4      4.01     -2.81
    0    1    4      0.00     -1.25
    2    2    4      2.72     -8.40
    1    2    4     -0.02     -3.13
    0    2    4      3.71     -0.03
    3    3    4      0.43    -12.08
    2    3    4     -0.03     -3.71
    1    3    4      2.48     -5.75
    0    3    4      0.01     -7.81
    4    4    4     -1.74    -12.27
    3    4    4      0.16     -3.29
    2    4    4      0.32     -9.92
    1    4    4      0.02     -9.19
    0    4    4      1.57     -0.01
    5    5    4     -2.33    -10.18
    4    5    4      0.53     -2.50
    3    5    4     -1.73    -10.82
    2    5    4      0.51     -8.06
    1    5    4     -0.03     -4.96
    0    5    4     -0.01    -10.65
    6    6    4     -1.11     -6.71
    5    6    4      0.84     -1.66
    4    6    4     -2.30     -9.39
    3    6    4      1.42     -6.01
    2    6    4     -1.50     -7.33
    1    6    4      0.59     -9.06
    0    6    4     -0.52     -0.01
    7    7    4      0.79     -2.30
    6    7    4      0.91     -0.89
    5    7    4     -1.19     -6.35
    4    7    4      2.14     -3.87
    3    7    4     -1.87     -7.39
    2    7    4      1.71     -6.39
    1    7    4     -0.85     -3.39
    0    7    4     -0.05     -7.18
    8    8    4      2.16      1.54
    7    8    4      0.78     -0.34
    6    8    4      0.59     -2.18
    5    8    4      2.21     -1.93
    4    8    4     -0.93     -5.43
    3    8    4      2.50     -3.67
    2    8    4     -0.63     -4.87
    1    8    4      1.09     -4.26
    0    8    4      0.08      0.00
    9    9    4      2.45      3.02
    8    9    4      0.56     -0.13
    7    9    4      1.89      1.49
    6    9    4      1.79     -0.61
    5    9    4      0.53     -2.00
    4    9    4      2.43     -1.39
    3    9    4      0.20     -4.23
    2    9    4      1.89     -1.48
    1    9    4      0.94     -2.25
    0    9    4     -0.04     -1.21
   10   10    4      1.64      2.28
    9   10    4      0.29     -0.18
    8   10    4      2.18      2.90
    7   10    4      1.19     -0.20
    6   10    4      1.56      1.18
    5   10    4      1.80     -0.09
    4   10    4      1.23     -1.90
    3   10    4      1.85      0.42
    2   10    4      1.66     -2.76
    1   10    4      0.85      1.39
    0   10    4      2.01      0.00
   11   11    4      0.21      0.93
   10   11    4      0.05     -0.24
    9   11    4      1.45      2.19
    8   11    4      0.50     -0.38
    7   11    4      1.72      2.41
    6   11    4      1.04      0.06
    5   11    4      1.80      0.52
    4   11    4      1.34      0.96
    3   11    4      2.21     -1.63
    2   11    4      1.10      2.55
    1   11    4      2.40     -1.15
    0   11    4      0.01      3.54
   12   12    4     -0.81      0.09
   11   12    4     -0.01     -0.19
   10   12    4      0.19      0.95
    9   12    4     -0.09     -0.59
    8   12    4      1.10      1.83
    7   12    4      0.22     -0.37
    6   12    4      1.61      1.50
    5   12    4      0.78      0.41
    4   12    4      2.30     -0.06
    3   12    4      0.99      2.03
    2   12    4      2.47     -0.94
    1   12    4      0.48      3.93
    0   12    4      2.26      0.00
   13   13    4     -0.68     -0.34
   12   13    4      0.11     -0.01
   11   13    4     -0.73      0.20
   10   13    4     -0.21     -0.49
    9   13    4      0.13      0.86
    8   13    4     -0.47     -0.73
    7   13    4      0.89      1.14
    6   13    4      0.13     -0.36
    5   13    4      1.76      0.68
    4   13    4      0.82      0.67
    3   13    4      2.25     -0.09
    2   13    4      0.69      2.61
    1   13    4      1.85     -0.21
    0   13    4      0.02      3.78
   14   14    4      0.24     -0.66
   13   14    4      0.22      0.17
   12   14    4     -0.64     -0.18
   11   14    4      0.18     -0.08
   10   14    4     -0.56      0.35
    9   14    4     -0.56     -0.68
    8   14    4      0.12      0.54
    7   14    4     -0.50     -0.78
    6   14    4      0.91      0.53
    5   14    4      0.49     -0.37
    4   14    4      1.61      0.44
    3   14    4      0.78      0.81
    2   14    4      1.46      0.23
    1   14    4      0.28      2.35
    0   14    4      1.06      0.00
   15   15    4      0.88     -0.81
   14   15    4      0.19      0.26
   13   15    4      0.13     -0.50
   12   15    4      0.55      0.39
   11   15    4     -0.58      0.11
   10   15    4      0.05     -0.25
    9   15    4     -0.37      0.30
    8   15    4     -0.63     -0.81
    7   15    4      0.25      0.19
    6   15    4     -0.04     -0.79
    5   15    4      0.82      0.38
    4   15    4      0.66     -0.31
    3   15    4      0.91      0.55
    2   15    4      0.34      0.75
    1   15    4      0.53      0.27
    0   15    4     -0.03      1.43
   16   16    4      0.83     -0.63
   15   16    4      0.09      0.26
   14   16    4      0.68     -0.68
   13   16    4      0.50      0.66
   12   16    4     -0.13     -0.20
   11   16    4      0.64      0.35
   10   16    4     -0.50      0.19
    9   16    4     -0.08     -0.48
    8   16    4     -0.09      0.08
    7   16    4     -0.32     -0.86
    6   16    4      0.34      0.12
    5   16    4      0.27     -0.71
    4   16    4      0.32      0.42
    3   16    4      0.22     -0.21
    2   16    4      0.05      0.38
    1   16    4     -0.09      0.44
    0   16    4     -0.07      0.00
   17   17    4      0.56     -0.21
   16   17    4      0.09      0.24
   15   17    4      0.64     -0.50
   14   17    4      0.23      0.67
   13   17    4      0.26     -0.45
   12   17    4      0.62      0.78
   11   17    4     -0.33     -0.07
   10   17    4      0.53      0.13
    9   17    4     -0.26      0.04
    8   17    4     -0.07     -0.62
    7   17    4      0.21      0.01
    6   17    4     -0.09     -0.80
    5   17    4      0.07      0.15
    4   17    4     -0.02     -0.63
    3   17    4     -0.41      0.07
    2   17    4     -0.31     -0.29
    1   17    4     -0.51     -0.05
    0   17    4     -0.03     -0.06
   18   18    4      0.52      0.02
   17   18    4      0.16      0.26
   16   18    4      0.43     -0.03
   15   18    4      0.19      0.60
   14   18    4      0.34     -0.31
   13   18    4      0.26      0.85
   12   18    4      0.00     -0.37
   11   18    4      0.55      0.66
   10   18    4     -0.25     -0.15
    9   18    4      0.38     -0.06
    8   18    4      0.10     -0.02
    7   18    4     -0.08     -0.58
    6   18    4      0.17      0.10
    5   18    4     -0.26     -0.77
    4   18    4     -0.57     -0.20
    3   18    4     -0.47     -0.80
    2   18    4     -0.94     -0.58
    1   18    4     -0.32     -0.65
    0   18    4     -0.80      0.00
   19   19    4      0.57     -0.18
   18   19    4      0.19      0.28
   17   19    4      0.41      0.29
   16   19    4      0.38      0.61
   15   19    4      0.30      0.24
   14   19    4      0.14      0.71
   13   19    4      0.33     -0.30
   12   19    4      0.16      0.78
   11   19    4      0.09     -0.40
   10   19    4      0.44      0.47
    9   19    4      0.04     -0.14
    8   19    4      0.23     -0.02
    7   19    4      0.24      0.19
    6   19    4     -0.27     -0.43
    5   19    4     -0.34      0.00
    4   19    4     -0.53     -0.94
    3   19    4     -1.16     -0.89
    2   19    4     -0.45     -1.18
    1   19    4     -1.12     -0.70
    0   19    4      0.02     -1.14
   20   20    4      0.46     -0.48
   19   20    4      0.14      0.23
   18   20    4      0.45      0.12
   17   20    4      0.46      0.63
   16   20    4      0.30      0.74
   15   20    4      0.35      0.59
   14   20    4      0.53      0.25
   13   20    4     -0.06      0.54
   12   20    4      0.66     -0.40
   11   20    4      0.11      0.54
   10   20    4      0.32     -0.33
    9   20    4      0.42      0.43
    8   20    4      0.20      0.14
    7   20    4      0.04      0.29
    6   20    4     -0.06      0.39
    5   20    4     -0.45     -0.35
    4   20    4     -0.95     -0.46
    3   20    4     -0.41     -1.18
    2   20    4     -1.35     -1.22
    1   20    4     -0.11     -1.43
    0   20    4     -1.20      0.00
   20   21    4      0.08      0.11
   19   21    4      0.35     -0.27
   18   21    4      0.35      0.53
   17   21    4      0.27      0.67
   16   21    4      0.51      0.51
   15   21    4      0.50      0.88
   14   21    4      0.09      0.20
   13   21    4      1.02      0.06
   12   21    4     -0.21      0.17
   11   21    4      0.89     -0.37
   10   21    4      0.23      0.35
    9   21    4      0.31     -0.09
    8   21    4      0.38      0.73
    7   21    4      0.02      0.43
    6   21    4     -0.16      0.69
    5   21    4     -0.52      0.23
    4   21    4     -0.32     -0.32
    3   21    4     -1.22     -0.90
    2   21    4      0.00     -1.14
    1   21    4     -1.34     -0.77
    0   21    4      0.02     -1.28
   19   22    4      0.21      0.31
   18   22    4      0.15      0.16
   17   22    4      0.42      0.44
   16   22    4      0.29      0.96
   15   22    4      0.30     -0.05
   14   22    4      0.88      0.66
   13   22    4     -0.22     -0.32
   12   22    4      1.24     -0.09
   11   22    4     -0.15     -0.12
   10   22    4      0.64     -0.26
    9   22    4      0.37      0.51
    8   22    4     -0.02      0.08
    7   22    4      0.19      1.25
    6   22    4     -0.26      0.40
    5   22    4     -0.18      0.92
    4   22    4     -0.73     -0.20
    3   22    4      0.11     -0.18
    2   22    4     -1.24     -0.87
    1   22    4      0.21     -0.66
    0   22    4     -1.38      0.00
   18   23    4      0.26      0.36
   17   23    4      0.09      0.46
   16   23    4      0.33     -0.07
   15   23    4      0.44      0.87
   14   23    4     -0.04     -0.65
   13   23    4      1.00      0.34
   12   23    4     -0.39     -0.59
   11   23    4      0.84     -0.22
   10   23    4     -0.05     -0.02
    9   23    4      0.00     -0.30
    8   23    4      0.21      0.97
    7   23    4     -0.35     -0.01
    6   23    4     -0.05      1.53
    5   23    4     -0.32      0.04
    4   23    4      0.10      0.89
    3   23    4     -0.73     -0.53
    2   23    4      0.43      0.19
    1   23    4     -1.24     -0.46
    0   23    4     -0.01      0.06
   16   24    4      0.11      0.56
   15   24    4      0.13     -0.63
   14   24    4      0.44      0.56
   13   24    4     -0.32     -0.86
   12   24    4      0.64     -0.05
   11   24    4     -0.47     -0.39
   10   24    4      0.06     -0.48
    9   24    4     -0.19      0.39
    8   24    4     -0.54     -0.48
    7   24    4     -0.14      1.22
    6   24    4     -0.33     -0.25
    5   24    4     -0.03      1.30
    4   24    4     -0.19     -0.35
    3   24    4      0.45      0.82
    2   24    4     -0.71     -0.55
    1   24    4      0.35      0.70
    0   24    4     -1.07      0.00
   15   25    4      0.06      0.48
   14   25    4     -0.09     -0.79
   13   25    4      0.23      0.08
   12   25    4     -0.51     -0.53
   11   25    4      0.06     -0.50
   10   25    4     -0.64      0.08
    9   25    4     -0.55     -0.70
    8   25    4     -0.53      0.62
    7   25    4     -0.58     -0.53
    6   25    4     -0.28      0.91
    5   25    4     -0.05     -0.39
    4   25    4      0.26      0.88
    3   25    4     -0.07     -0.54
    2   25    4      0.53      1.02
    1   25    4     -0.52     -0.33
    0   25    4      0.00      1.21
   13   26    4     -0.24     -0.49
   12   26    4      0.02     -0.42
   11   26    4     -0.67     -0.03
   10   26    4     -0.33     -0.73
    9   26    4     -0.85      0.30
    8   26    4     -0.62     -0.59
    7   26    4     -0.59      0.33
    6   26    4     -0.22     -0.36
    5   26    4      0.00      0.43
    4   26    4      0.22     -0.44
    3   26    4      0.48      0.91
    2   26    4      0.12     -0.51
    1   26    4      0.31      1.56
    0   26    4      0.01      0.00
   11   27    4     -0.05     -0.61
   10   27    4     -0.77      0.18
    9   27    4     -0.33     -0.53
    8   27    4     -0.76      0.05
    7   27    4     -0.25     -0.22
    6   27    4     -0.17     -0.09
    5   27    4      0.15     -0.19
    4   27    4      0.38      0.45
    3   27    4      0.40     -0.48
    2   27    4      0.40      1.51
    1   27    4      0.53     -0.31
    0   27    4      0.03      2.07
    8   28    4     -0.05     -0.12
    7   28    4     -0.19     -0.31
    6   28    4      0.12      0.03
    5   28    4      0.39     -0.08
    4   28    4      0.29     -0.25
    3   28    4      0.45      0.99
    2   28    4      0.61     -0.47
    1   28    4      0.18      2.04
    0   28    4      0.90      0.01
    3   29    4      0.26     -0.40
    2   29    4      0.24      1.29
    1   29    4      0.77     -0.28
    0    1    5    -15.72      0.03
    1    2    5    -11.75     -3.76
    0    2    5      0.01     -2.55
    2    3    5     -6.65     -7.98
    1    3    5     -0.33     -4.02
    0    3    5     -8.63     -0.02
    3    4    5     -2.83     -9.78
    2    4    5     -0.77     -4.09
    1    4    5     -4.67     -4.50
    0    4    5      0.01     -6.34
    4    5    5     -0.37     -9.06
    3    5    5     -0.88     -3.23
    2    5    5     -1.69     -6.99
    1    5    5     -0.71     -6.45
    0    5    5     -2.06     -0.02
    5    6    5      1.55     -6.91
    4    6    5     -0.64     -2.10
    3    6    5      0.24     -7.16
    2    6    5     -1.06     -5.04
    1    6    5     -0.02     -3.20
    0    6    5     -0.03     -6.47
    6    7    5      2.94     -3.95
    5    7    5     -0.38     -1.14
    4    7    5      1.74     -5.74
    3    7    5     -0.98     -3.12
    2    7    5      1.35     -4.55
    1    7    5     -0.64     -4.77
    0    7    5      1.53      0.01
    7    8    5      3.41     -0.75
    6    8    5     -0.20     -0.57
    5    8    5      2.76     -3.18
    4    8    5     -0.85     -1.53
    3    8    5      2.30     -4.27
    2    8    5     -0.97     -2.50
    1    8    5      2.57     -2.12
    0    8    5     -0.06     -2.82
    8    9    5      3.01      1.63
    7    9    5     -0.01     -0.42
    6    9    5      2.95     -0.21
    5    9    5     -0.72     -0.65
    4    9    5      2.72     -2.47
    3    9    5     -1.23     -0.72
    2    9    5      3.01     -2.94
    1    9    5     -0.65     -0.40
    0    9    5      3.33      0.00
    9   10    5      2.11      2.39
    8   10    5      0.14     -0.56
    7   10    5      2.40      1.90
    6   10    5     -0.41     -0.49
    5   10    5      2.44      0.05
    4   10    5     -1.27     -0.02
    3   10    5      2.85     -2.11
    2   10    5     -1.18      1.20
    1   10    5      3.32     -1.46
    0   10    5     -0.02      2.07
   10   11    5      0.95      1.77
    9   11    5      0.15     -0.76
    8   11    5      1.49      2.35
    7   11    5     -0.07     -0.76
    6   11    5      1.61      1.82
    5   11    5     -0.87     -0.21
    4   11    5      2.14     -0.22
    3   11    5     -1.32      1.28
    2   11    5      2.74     -1.53
    1   11    5     -0.63      3.38
    0   11    5      2.95     -0.02
   11   12    5     -0.09      0.68
   10   12    5      0.14     -0.75
    9   12    5      0.49      1.54
    8   12    5      0.06     -1.11
    7   12    5      0.63      1.97
    6   12    5     -0.31     -0.72
    5   12    5      1.08      1.20
    4   12    5     -0.84      0.34
    3   12    5      1.87     -0.38
    2   12    5     -0.82      2.83
    1   12    5      2.19     -0.58
    0   12    5      0.03      4.47
   12   13    5     -0.48     -0.17
   11   13    5      0.26     -0.41
   10   13    5     -0.29      0.50
    9   13    5      0.11     -1.18
    8   13    5     -0.18      1.08
    7   13    5     -0.02     -1.15
    6   13    5      0.05      1.26
    5   13    5     -0.16     -0.61
    4   13    5      0.85      0.65
    3   13    5     -0.43      1.15
    2   13    5      1.40     -0.06
    1   13    5     -0.27      3.74
    0   13    5      1.45     -0.01
   13   14    5     -0.18     -0.59
   12   14    5      0.41      0.10
   11   14    5     -0.52     -0.12
   10   14    5      0.35     -0.75
    9   14    5     -0.62      0.26
    8   14    5      0.07     -1.31
    7   14    5     -0.62      0.50
    6   14    5      0.19     -1.12
    5   14    5     -0.07      0.64
    4   14    5      0.15     -0.27
    3   14    5      0.65      0.56
    2   14    5     -0.18      1.87
    1   14    5      0.80      0.22
    0   14    5      0.00      3.32
   14   15    5      0.24     -0.74
   13   15    5      0.39      0.41
   12   15    5     -0.21     -0.33
   11   15    5      0.65      0.00
   10   15    5     -0.60      0.02
    9   15    5      0.33     -1.00
    8   15    5     -0.80      0.01
    7   15    5      0.25     -1.29
    6   15    5     -0.58      0.03
    5   15    5      0.46     -0.91
    4   15    5     -0.01      0.40
    3   15    5      0.07      0.26
    2   15    5      0.26      0.53
    1   15    5     -0.18      1.92
    0   15    5      0.23      0.00
   15   16    5      0.34     -0.63
   14   16    5      0.23      0.40
   13   16    5      0.15     -0.43
   12   16    5      0.65      0.55
   11   16    5     -0.27      0.09
   10   16    5      0.67     -0.26
    9   16    5     -0.59      0.15
    8   16    5      0.37     -1.11
    7   16    5     -0.59     -0.22
    6   16    5      0.49     -1.10
    5   16    5     -0.32     -0.19
    4   16    5      0.28     -0.52
    3   16    5     -0.17      0.21
    2   16    5     -0.31      0.51
    1   16    5     -0.22      0.20
    0   16    5     -0.03      1.16
   16   17    5      0.22     -0.09
   15   17    5      0.15      0.26
   14   17    5      0.22     -0.44
   13   17    5      0.38      0.61
   12   17    5      0.08      0.02
   11   17    5      0.71      0.45
   10   17    5     -0.23      0.44
    9   17    5      0.60     -0.45
    8   17    5     -0.33      0.13
    7   17    5      0.48     -1.00
    6   17    5     -0.24     -0.33
    5   17    5      0.40     -0.81
    4   17    5     -0.35     -0.37
    3   17    5     -0.27     -0.36
    2   17    5     -0.54     -0.17
    1   17    5     -0.39      0.08
    0   17    5     -0.57      0.00
   17   18    5      0.17      0.70
   16   18    5      0.24      0.23
   15   18    5      0.10     -0.07
   14   18    5      0.21      0.42
   13   18    5      0.22     -0.20
   12   18    5      0.42      0.68
   11   18    5      0.14      0.34
   10   18    5      0.65      0.33
    9   18    5     -0.03      0.49
    8   18    5      0.55     -0.46
    7   18    5      0.00      0.08
    6   18    5      0.46     -0.79
    5   18    5     -0.24     -0.37
    4   18    5     -0.02     -0.77
    3   18    5     -0.71     -0.67
    2   18    5     -0.56     -0.75
    1   18    5     -0.79     -0.39
    0   18    5      0.00     -0.75
   18   19    5      0.20      1.07
   17   19    5      0.32      0.27
   16   19    5      0.00      0.62
   15   19    5      0.30      0.29
   14   19    5      0.17     -0.13
   13   19    5      0.17      0.48
   12   19    5      0.46     -0.07
   11   19    5      0.41      0.68
   10   19    5      0.32      0.37
    9   19    5      0.56      0.28
    8   19    5      0.19      0.41
    7   19    5      0.47     -0.33
    6   19    5     -0.04      0.16
    5   19    5      0.22     -0.76
    4   19    5     -0.71     -0.50
    3   19    5     -0.35     -1.15
    2   19    5     -1.01     -0.89
    1   19    5     -0.34     -1.40
    0   19    5     -0.86      0.00
   19   20    5      0.17      0.71
   18   20    5      0.27      0.23
   17   20    5     -0.03      1.01
   16   20    5      0.45      0.26
   15   20    5      0.00      0.36
   14   20    5      0.17      0.18
   13   20    5      0.56     -0.27
   12   20    5      0.10      0.46
   11   20    5      0.73     -0.10
   10   20    5      0.40      0.62
    9   20    5      0.39      0.23
    8   20    5      0.47      0.32
    7   20    5      0.10      0.47
    6   20    5      0.29     -0.24
    5   20    5     -0.56      0.22
    4   20    5     -0.04     -0.99
    3   20    5     -1.21     -0.74
    2   20    5     -0.29     -1.56
    1   20    5     -1.07     -0.63
    0   20    5      0.01     -1.71
   19   21    5      0.15      0.12
   18   21    5     -0.06      0.72
   17   21    5      0.43      0.20
   16   21    5     -0.19      0.76
   15   21    5      0.32     -0.07
   14   21    5      0.34      0.02
   13   21    5     -0.07     -0.06
   12   21    5      0.97     -0.36
   11   21    5      0.04      0.31
   10   21    5      0.70     -0.21
    9   21    5      0.34      0.55
    8   21    5      0.17      0.17
    7   21    5      0.26      0.44
    6   21    5     -0.35      0.57
    5   21    5      0.06     -0.28
    4   21    5     -1.17     -0.03
    3   21    5     -0.07     -1.18
    2   21    5     -1.41     -0.81
    1   21    5     -0.06     -1.51
    0   21    5     -1.20      0.02
   18   22    5      0.29      0.13
   17   22    5     -0.29      0.61
   16   22    5      0.42     -0.17
   15   22    5     -0.04      0.41
   14   22    5      0.01     -0.53
   13   22    5      0.78     -0.15
   12   22    5     -0.31     -0.32
   11   22    5      0.92     -0.39
   10   22    5     -0.04      0.19
    9   22    5      0.26     -0.33
    8   22    5      0.13      0.66
    7   22    5     -0.23      0.17
    6   22    5     -0.02      0.52
    5   22    5     -0.81      0.35
    4   22    5     -0.01     -0.40
    3   22    5     -1.44     -0.48
    2   22    5      0.08     -1.00
    1   22    5     -1.47     -0.52
    0   22    5     -0.01     -1.01
   17   23    5      0.38     -0.06
   16   23    5     -0.30      0.44
   15   23    5      0.22     -0.68
   14   23    5      0.29      0.22
   13   23    5     -0.37     -0.86
   12   23    5      0.82     -0.19
   11   23    5     -0.52     -0.41
   10   23    5      0.34     -0.49
    9   23    5     -0.24      0.34
    8   23    5     -0.28     -0.42
    7   23    5     -0.22      0.85
    6   23    5     -0.47      0.02
    5   23    5     -0.19      0.38
    4   23    5     -0.93     -0.22
    3   23    5      0.12     -0.40
    2   23    5     -1.37     -0.71
    1   23    5      0.14     -0.50
    0   23    5     -1.44      0.02
   16   24    5      0.35     -0.38
   15   24    5     -0.10      0.37
   14   24    5     -0.08     -0.98
   13   24    5      0.44      0.14
   12   24    5     -0.66     -0.82
   11   24    5      0.34     -0.30
   10   24    5     -0.70     -0.12
    9   24    5     -0.35     -0.62
    8   24    5     -0.57      0.64
    7   24    5     -0.44     -0.48
    6   24    5     -0.51      0.73
    5   24    5     -0.31     -0.34
    4   24    5     -0.11      0.09
    3   24    5     -0.69     -0.72
    2   24    5      0.24     -0.12
    1   24    5     -1.04     -0.50
    0   24    5     -0.01      0.05
   14   25    5      0.08      0.31
   13   25    5     -0.33     -0.86
   12   25    5      0.26     -0.05
   11   25    5     -0.80     -0.39
   10   25    5     -0.24     -0.47
    9   25    5     -0.89      0.31
    8   25    5     -0.55     -0.62
    7   25    5     -0.84      0.62
    6   25    5     -0.11     -0.50
    5   25    5     -0.50      0.30
    4   25    5      0.08     -0.67
    3   25    5      0.06      0.11
    2   25    5     -0.25     -0.78
    1   25    5      0.17      0.50
    0   25    5     -0.42      0.00
   12   26    5     -0.42     -0.41
   11   26    5     -0.01     -0.29
   10   26    5     -0.84      0.11
    9   26    5     -0.40     -0.47
    8   26    5     -0.99      0.40
    7   26    5     -0.17     -0.42
    6   26    5     -0.79      0.24
    5   26    5      0.38     -0.49
    4   26    5     -0.28      0.19
    3   26    5      0.44     -0.77
    2   26    5      0.11      0.81
    1   26    5      0.29     -0.46
    0   26    5      0.03      1.30
   10   27    5     -0.06     -0.31
    9   27    5     -0.79      0.26
    8   27    5     -0.07     -0.24
    7   27    5     -0.79      0.11
    6   27    5      0.32     -0.21
    5   27    5     -0.44      0.08
    4   27    5      0.59     -0.50
    3   27    5     -0.07      0.83
    2   27    5      0.67     -0.63
    1   27    5      0.07      1.84
    0   27    5      0.76     -0.01
    7   28    5      0.31     -0.02
    6   28    5     -0.30     -0.09
    5   28    5      0.42     -0.19
    4   28    5     -0.07      0.50
    3   28    5      0.51     -0.53
    2   28    5     -0.01      1.70
    1   28    5      0.80     -0.34
    0   28    5      0.06      2.37
    0    0    6    -22.96      0.07
    1    1    6    -20.21     -1.33
    0    1    6      0.00     -0.23
    2    2    6    -13.60     -4.26
    1    2    6     -0.09     -0.64
    0    2    6    -17.72      0.02
    3    3    6     -6.49     -6.37
    2    3    6     -0.36     -0.80
    1    3    6    -11.79     -2.94
    0    3    6      0.01     -1.71
    4    4    6     -1.15     -6.62
    3    4    6     -0.66     -0.67
    2    4    6     -5.38     -5.16
    1    4    6     -0.63     -2.20
    0    4    6     -7.42     -0.03
    5    5    6      2.03     -5.55
    4    5    6     -0.83     -0.37
    3    5    6     -0.49     -5.63
    2    5    6     -1.49     -1.90
    1    5    6     -2.64     -2.48
    0    5    6     -0.01     -2.90
    6    6    6      3.39     -3.96
    5    6    6     -0.86     -0.14
    4    6    6      2.42     -4.80
    3    6    6     -2.12     -1.09
    2    6    6      1.10     -3.46
    1    6    6     -1.24     -2.57
    0    6    6      0.44      0.01
    7    7    6      3.43     -2.12
    6    7    6     -0.76     -0.14
    5    7    6      3.61     -3.35
    4    7    6     -2.36     -0.43
    3    7    6      3.31     -3.25
    2    7    6     -2.44     -1.46
    1    7    6      2.83     -1.43
    0    7    6     -0.04     -2.14
    8    8    6      2.80     -0.21
    7    8    6     -0.56     -0.30
    6    8    6      3.50     -1.58
    5    8    6     -2.19     -0.35
    4    8    6      4.00     -2.22
    3    8    6     -3.17     -0.46
    2    8    6      4.07     -1.96
    1    8    6     -1.63     -0.86
    0    8    6      4.01      0.02
    9    9    6      2.05      1.25
    8    9    6     -0.32     -0.47
    7    9    6      2.73      0.23
    6    9    6     -1.64     -0.72
    5    9    6      3.47     -0.62
    4    9    6     -3.16     -0.26
    3    9    6      4.03     -1.55
    2    9    6     -2.87      0.34
    1    9    6      4.23     -1.00
    0    9    6     -0.03      0.66
   10   10    6      1.29      1.70
    9   10    6     -0.10     -0.56
    8   10    6      1.86      1.45
    7   10    6     -0.91     -1.13
    6   10    6      2.35      0.98
    5   10    6     -2.42     -0.74
    4   10    6      3.00     -0.24
    3   10    6     -3.19      0.51
    2   10    6      3.52     -1.21
    1   10    6     -1.56      1.98
    0   10    6      3.73     -0.02
   11   11    6      0.50      1.16
   10   11    6      0.05     -0.52
    9   11    6      1.06      1.62
    8   11    6     -0.27     -1.34
    7   11    6      1.25      1.74
    6   11    6     -1.30     -1.27
    5   11    6      1.58      1.19
    4   11    6     -2.49     -0.22
    3   11    6      2.20     -0.33
    2   11    6     -2.23      2.03
    1   11    6      2.73     -0.62
    0   11    6      0.01      3.45
   12   12    6     -0.16      0.30
   11   12    6      0.15     -0.33
   10   12    6      0.32      0.92
    9   12    6      0.16     -1.27
    8   12    6      0.38      1.37
    7   12    6     -0.32     -1.52
    6   12    6      0.34      1.66
    5   12    6     -1.27     -1.01
    4   12    6      0.78      0.88
    3   12    6     -1.83      0.87
    2   12    6      1.52     -0.23
    1   12    6     -0.90      3.55
    0   12    6      1.90     -0.03
   13   13    6     -0.54     -0.23
   12   13    6      0.18     -0.05
   11   13    6     -0.21      0.10
   10   13    6      0.40     -0.87
    9   13    6     -0.20      0.42
    8   13    6      0.28     -1.51
    7   13    6     -0.49      0.97
    6   13    6     -0.20     -1.36
    5   13    6     -0.35      1.21
    4   13    6     -0.88     -0.38
    3   13    6      0.39      0.62
    2   13    6     -0.96      2.20
    1   13    6      1.08      0.06
    0   13    6      0.02      3.95
   14   14    6     -0.71     -0.44
   13   14    6      0.14      0.13
   12   14    6     -0.47     -0.28
   11   14    6      0.45     -0.24
   10   14    6     -0.43     -0.21
    9   14    6      0.53     -1.17
    8   14    6     -0.86      0.00
    7   14    6      0.39     -1.39
    6   14    6     -1.03      0.48
    5   14    6     -0.02     -0.99
    4   14    6     -0.46      0.76
    3   14    6     -0.53      0.54
    2   14    6      0.31      0.55
    1   14    6     -0.36      2.89
    0   14    6      0.65     -0.01
   15   15    6     -0.71     -0.57
   14   15    6      0.06      0.12
   13   15    6     -0.54     -0.36
   12   15    6      0.30      0.22
   11   15    6     -0.34     -0.22
   10   15    6      0.51     -0.55
    9   15    6     -0.76     -0.30
    8   15    6      0.57     -1.22
    7   15    6     -1.21     -0.30
    6   15    6      0.48     -1.10
    5   15    6     -0.92      0.04
    4   15    6     -0.02     -0.41
    3   15    6     -0.26      0.49
    2   15    6     -0.44      1.25
    1   15    6      0.09      0.32
    0   15    6      0.00      2.40
   16   16    6     -0.52     -0.40
   15   16    6      0.03      0.02
   14   16    6     -0.53     -0.47
   13   16    6      0.11      0.23
   12   16    6     -0.18     -0.05
   11   16    6      0.29      0.02
   10   16    6     -0.33      0.09
    9   16    6      0.45     -0.75
    8   16    6     -0.94     -0.25
    7   16    6      0.63     -1.02
    6   16    6     -0.99     -0.55
    5   16    6      0.44     -0.68
    4   16    6     -0.53     -0.22
    3   16    6     -0.27      0.10
    2   16    6     -0.32      0.22
    1   16    6     -0.35      1.14
    0   16    6     -0.33     -0.01
   17   17    6     -0.26      0.37
   16   17    6      0.06     -0.03
   15   17    6     -0.43     -0.40
   14   17    6      0.04      0.01
   13   17    6     -0.13     -0.18
   12   17    6      0.09      0.17
   11   17    6      0.10      0.44
   10   17    6      0.24     -0.16
    9   17    6     -0.39      0.40
    8   17    6      0.50     -0.71
    7   17    6     -0.76     -0.29
    6   17    6      0.72     -0.71
    5   17    6     -0.54     -0.68
    4   17    6      0.18     -0.39
    3   17    6     -0.42     -0.35
    2   17    6     -0.51      0.04
    1   17    6     -0.61     -0.03
    0   17    6     -0.01      0.32
   18   18    6     -0.13      1.27
   17   18    6      0.10      0.01
   16   18    6     -0.29      0.23
   15   18    6      0.10     -0.10
   14   18    6     -0.18     -0.38
   13   18    6      0.03     -0.01
   12   18    6      0.27      0.19
   11   18    6      0.15      0.16
   10   18    6      0.17      0.77
    9   18    6      0.33     -0.15
    8   18    6     -0.33      0.41
    7   18    6      0.70     -0.54
    6   18    6     -0.42     -0.32
    5   18    6      0.66     -0.57
    4   18    6     -0.39     -0.61
    3   18    6     -0.21     -0.54
    2   18    6     -0.60     -0.39
    1   18    6     -0.40     -0.53
    0   18    6     -0.71     -0.01
   19   19    6     -0.15      1.43
   18   19    6      0.12      0.04
   17   19    6     -0.23      1.04
   16   19    6      0.21     -0.03
   15   19    6     -0.30     -0.12
   14   19    6      0.08     -0.17
   13   19    6      0.14     -0.34
   12   19    6      0.16      0.08
   11   19    6      0.46      0.40
   10   19    6      0.35      0.26
    9   19    6      0.12      0.69
    8   19    6      0.55     -0.09
    7   19    6     -0.19      0.30
    6   19    6      0.81     -0.51
    5   19    6     -0.37     -0.18
    4   19    6      0.32     -0.77
    3   19    6     -0.62     -0.48
    2   19    6     -0.44     -0.97
    1   19    6     -0.69     -0.28
    0   19    6     -0.01     -1.05
   20   20    6     -0.18      0.83
   19   20    6      0.09      0.01
   18   20    6     -0.25      1.23
   17   20    6      0.26      0.02
   16   20    6     -0.44      0.46
   15   20    6      0.16     -0.22
   14   20    6     -0.19     -0.48
   13   20    6      0.12     -0.23
   12   20    6      0.39     -0.29
   11   20    6      0.39      0.19
   10   20    6      0.41      0.28
    9   20    6      0.53      0.30
    8   20    6      0.07      0.41
    7   20    6      0.66     -0.13
    6   20    6     -0.27      0.33
    5   20    6      0.59     -0.70
    4   20    6     -0.76     -0.04
    3   20    6     -0.11     -1.09
    2   20    6     -0.89     -0.39
    1   20    6     -0.31     -1.20
    0   20    6     -0.72      0.01
   19   21    6     -0.22      0.72
   18   21    6      0.24     -0.02
   17   21    6     -0.49      0.70
   16   21    6      0.26     -0.22
   15   21    6     -0.54     -0.16
   14   21    6      0.05     -0.52
   13   21    6      0.05     -0.63
   12   21    6      0.18     -0.29
   11   21    6      0.43     -0.33
   10   21    6      0.45      0.20
    9   21    6      0.21     -0.05
    8   21    6      0.48      0.25
    7   21    6     -0.09      0.24
    6   21    6      0.47     -0.29
    5   21    6     -0.72      0.37
    4   21    6      0.16     -0.94
    3   21    6     -1.26     -0.13
    2   21    6     -0.28     -1.16
    1   21    6     -1.06     -0.25
    0   21    6     -0.01     -1.08
   18   22    6     -0.38      0.43
   17   22    6      0.32     -0.17
   16   22    6     -0.67      0.14
   15   22    6      0.14     -0.65
   14   22    6     -0.35     -0.45
   13   22    6     -0.13     -0.83
   12   22    6      0.24     -0.56
   11   22    6      0.04     -0.35
   10   22    6      0.18     -0.49
    9   22    6      0.22      0.23
    8   22    6     -0.04     -0.31
    7   22    6      0.18      0.20
    6   22    6     -0.41      0.20
    5   22    6      0.10     -0.49
    4   22    6     -1.22      0.15
    3   22    6     -0.12     -1.02
    2   22    6     -1.47     -0.32
    1   22    6     -0.15     -0.92
    0   22    6     -1.25      0.03
   16   23    6      0.33     -0.46
   15   23    6     -0.54     -0.12
   14   23    6     -0.11     -1.04
   13   23    6      0.00     -0.34
   12   23    6     -0.43     -0.94
   11   23    6      0.11     -0.47
   10   23    6     -0.28     -0.20
    9   23    6     -0.20     -0.65
    8   23    6     -0.18      0.37
    7   23    6     -0.24     -0.35
    6   23    6     -0.21      0.06
    5   23    6     -0.65      0.05
    4   23    6     -0.15     -0.71
    3   23    6     -1.30     -0.25
    2   23    6     -0.09     -0.87
    1   23    6     -1.29     -0.28
    0   23    6     -0.01     -0.65
   15   24    6      0.21     -0.72
   14   24    6     -0.15     -0.04
   13   24    6     -0.43     -1.13
   12   24    6      0.12     -0.14
   11   24    6     -0.71     -0.65
   10   24    6     -0.27     -0.47
    9   24    6     -0.58      0.18
    8   24    6     -0.41     -0.63
    7   24    6     -0.55      0.40
    6   24    6     -0.18     -0.27
    5   24    6     -0.45     -0.27
    4   24    6     -0.48     -0.21
    3   24    6     -0.14     -0.76
    2   24    6     -0.82     -0.44
    1   24    6      0.02     -0.52
    0   24    6     -0.79      0.01
   13   25    6      0.15      0.12
   12   25    6     -0.61     -0.80
   11   25    6     -0.07     -0.06
   10   25    6     -0.78     -0.09
    9   25    6     -0.50     -0.40
    8   25    6     -0.76      0.43
    7   25    6     -0.17     -0.39
    6   25    6     -0.78      0.07
    5   25    6      0.23     -0.20
    4   25    6     -0.47     -0.52
    3   25    6      0.05     -0.39
    2   25    6     -0.05     -0.35
    1   25    6     -0.10     -0.29
    0   25    6      0.02      0.00
   11   26    6     -0.53     -0.25
   10   26    6     -0.23     -0.02
    9   26    6     -0.69      0.30
    8   26    6     -0.25     -0.18
    7   26    6     -0.84      0.22
    6   26    6      0.37     -0.09
    5   26    6     -0.79     -0.28
    4   26    6      0.66     -0.18
    3   26    6     -0.35     -0.15
    2   26    6      0.52     -0.36
    1   26    6      0.00      0.55
    0   26    6      0.47     -0.01
    9   27    6     -0.05      0.07
    8   27    6     -0.58      0.24
    7   27    6      0.27      0.08
    6   27    6     -0.76     -0.12
    5   27    6      0.70      0.05
    4   27    6     -0.61     -0.05
    3   27    6      0.72     -0.22
    2   27    6     -0.21      0.84
    1   27    6      0.62     -0.22
    0   27    6      0.07      1.46
    5   28    6     -0.48     -0.06
    4   28    6      0.50     -0.04
    3   28    6     -0.34      0.69
    2   28    6      0.41     -0.26
    1   28    6     -0.07      1.67
    0   28    6      0.43     -0.02
    0    1    7    -19.22      0.03
    1    2    7    -15.06     -1.03
    0    2    7      0.00      0.29
    2    3    7     -8.60     -2.16
    1    3    7     -0.20      0.40
    0    3    7    -11.65     -0.01
    3    4    7     -2.40     -2.57
    2    4    7     -0.69      0.44
    1    4    7     -6.28     -1.13
    0    4    7      0.00      0.53
    4    5    7      1.61     -2.35
    3    5    7     -1.37      0.53
    2    5    7     -0.99     -1.56
    1    5    7     -0.84      0.52
    0    5    7     -2.56     -0.01
    5    6    7      2.91     -1.98
    4    6    7     -1.93      0.54
    3    6    7      2.54     -1.40
    2    6    7     -2.14      0.65
    1    6    7      1.17     -0.48
    0    6    7     -0.01      0.45
    6    7    7      2.41     -1.54
    5    7    7     -2.06      0.23
    4    7    7      3.69     -1.09
    3    7    7     -3.27      0.74
    2    7    7      3.66     -0.45
    1    7    7     -1.69      0.59
    0    7    7      3.16      0.01
    7    8    7      1.54     -0.80
    6    8    7     -1.74     -0.37
    5    8    7      3.09     -0.67
    4    8    7     -3.59      0.37
    3    8    7      4.29     -0.25
    2    8    7     -3.35      0.84
    1    8    7      4.23     -0.08
    0    8    7     -0.01      0.86
    8    9    7      1.07      0.18
    7    9    7     -1.20     -0.93
    6    9    7      1.99     -0.03
    5    9    7     -3.00     -0.50
    4    9    7      3.39      0.14
    3    9    7     -3.98      0.61
    2    9    7      4.02     -0.03
    1    9    7     -1.98      1.31
    0    9    7      4.02     -0.01
    9   10    7      0.88      0.90
    8   10    7     -0.66     -1.17
    7   10    7      1.23      0.66
    6   10    7     -1.96     -1.36
    5   10    7      2.00      0.75
    4   10    7     -3.35     -0.25
    3   10    7      2.77      0.33
    2   10    7     -3.01      1.30
    1   10    7      3.15     -0.06
    0   10    7      0.00      2.06
   10   11    7      0.54      0.92
    9   11    7     -0.19     -1.01
    8   11    7      0.79      0.90
    7   11    7     -0.96     -1.72
    6   11    7      0.93      1.17
    5   11    7     -2.08     -1.19
    4   11    7      1.24      0.98
    3   11    7     -2.69      0.50
    2   11    7      1.85      0.19
    1   11    7     -1.33      2.32
    0   11    7      2.23     -0.03
   11   12    7     -0.06      0.48
   10   12    7      0.15     -0.60
    9   12    7      0.37      0.52
    8   12    7     -0.16     -1.53
    7   12    7      0.29      0.92
    6   12    7     -0.87     -1.62
    5   12    7      0.10      1.31
    4   12    7     -1.64     -0.55
    3   12    7      0.50      0.77
    2   12    7     -1.50      1.61
    1   12    7      1.33      0.10
    0   12    7      0.01      2.93
   12   13    7     -0.78      0.18
   11   13    7      0.25     -0.14
   10   13    7     -0.09     -0.03
    9   13    7      0.32     -0.99
    8   13    7     -0.13      0.13
    7   13    7      0.01     -1.47
    6   13    7     -0.52      0.84
    5   13    7     -0.62     -1.13
    4   13    7     -0.48      1.05
    3   13    7     -1.00      0.37
    2   13    7      0.40      0.51
    1   13    7     -0.50      2.46
    0   13    7      1.06     -0.02
   13   14    7     -1.40      0.12
   12   14    7      0.12      0.11
   11   14    7     -0.49     -0.21
   10   14    7      0.34     -0.41
    9   14    7     -0.34     -0.50
    8   14    7      0.44     -1.05
    7   14    7     -0.81     -0.08
    6   14    7      0.11     -1.09
    5   14    7     -0.98      0.56
    4   14    7     -0.42     -0.48
    3   14    7     -0.39      0.67
    2   14    7     -0.50      1.20
    1   14    7      0.52      0.27
    0   14    7      0.02      2.38
   14   15    7     -1.61     -0.05
   13   15    7     -0.03      0.06
   12   15    7     -0.78     -0.05
   11   15    7      0.00     -0.07
   10   15    7     -0.31     -0.48
    9   15    7      0.29     -0.62
    8   15    7     -0.81     -0.62
    7   15    7      0.46     -0.80
    6   15    7     -1.17     -0.26
    5   15    7      0.11     -0.60
    4   15    7     -0.81      0.22
    3   15    7     -0.33      0.14
    2   15    7     -0.14      0.38
    1   15    7     -0.21      1.41
    0   15    7      0.23     -0.01
   15   16    7     -1.28     -0.29
   14   16    7     -0.07     -0.13
   13   16    7     -0.87     -0.07
   12   16    7     -0.28     -0.10
   11   16    7     -0.14     -0.09
   10   16    7     -0.22     -0.36
    9   16    7     -0.49     -0.39
    8   16    7      0.27     -0.55
    7   16    7     -1.12     -0.60
    6   16    7      0.50     -0.41
    5   16    7     -0.94     -0.46
    4   16    7      0.06     -0.20
    3   16    7     -0.48      0.04
    2   16    7     -0.30      0.42
    1   16    7     -0.31      0.16
    0   16    7      0.01      0.93
   16   17    7     -0.71     -0.06
   15   17    7     -0.02     -0.20
   14   17    7     -0.71     -0.33
   13   17    7     -0.28     -0.31
   12   17    7     -0.05      0.01
   11   17    7     -0.51     -0.32
   10   17    7     -0.02      0.13
    9   17    7     -0.21     -0.39
    8   17    7     -0.79     -0.22
    7   17    7      0.48     -0.29
    6   17    7     -0.94     -0.64
    5   17    7      0.57     -0.16
    4   17    7     -0.51     -0.45
    3   17    7     -0.06     -0.04
    2   17    7     -0.48      0.05
    1   17    7     -0.23      0.28
    0   17    7     -0.61     -0.01
   17   18    7     -0.38      0.74
   16   18    7      0.03     -0.10
   15   18    7     -0.49     -0.29
   14   18    7     -0.16     -0.36
   13   18    7     -0.12     -0.33
   12   18    7     -0.36     -0.41
   11   18    7      0.22      0.22
   10   18    7     -0.35     -0.30
    9   18    7     -0.29      0.32
    8   18    7      0.18     -0.22
    7   18    7     -0.75     -0.21
    6   18    7      0.78     -0.17
    5   18    7     -0.49     -0.56
    4   18    7      0.45     -0.16
    3   18    7     -0.34     -0.19
    2   18    7     -0.25     -0.08
    1   18    7     -0.61      0.06
    0   18    7     -0.02      0.03
   18   19    7     -0.37      1.32
   17   19    7      0.10      0.02
   16   19    7     -0.42      0.28
   15   19    7     -0.07     -0.22
   14   19    7     -0.33     -0.58
   13   19    7     -0.14     -0.45
   12   19    7      0.05     -0.24
   11   19    7     -0.02     -0.31
   10   19    7      0.01      0.37
    9   19    7      0.16     -0.11
    8   19    7     -0.40      0.26
    7   19    7      0.64     -0.17
    6   19    7     -0.42     -0.24
    5   19    7      0.79     -0.31
    4   19    7     -0.30     -0.28
    3   19    7      0.04     -0.28
    2   19    7     -0.44      0.03
    1   19    7     -0.27     -0.14
    0   19    7     -0.54     -0.01
   19   20    7     -0.38      1.09
   18   20    7      0.18      0.04
   17   20    7     -0.46      0.79
   16   20    7      0.04     -0.07
   15   20    7     -0.59     -0.34
   14   20    7     -0.11     -0.43
   13   20    7     -0.39     -0.73
   12   20    7      0.22     -0.47
   11   20    7     -0.13     -0.14
   10   20    7      0.50     -0.11
    9   20    7     -0.16      0.25
    8   20    7      0.57     -0.05
    7   20    7     -0.20      0.04
    6   20    7      0.74     -0.37
    5   20    7     -0.33     -0.15
    4   20    7      0.35     -0.53
    3   20    7     -0.55     -0.03
    2   20    7     -0.31     -0.35
    1   20    7     -0.54      0.04
    0   20    7     -0.03     -0.19
   18   21    7     -0.38      0.71
   17   21    7      0.22     -0.01
   16   21    7     -0.68      0.06
   15   21    7     -0.08     -0.39
   14   21    7     -0.77     -0.76
   13   21    7      0.03     -0.73
   12   21    7     -0.50     -0.68
   11   21    7      0.59     -0.41
   10   21    7     -0.27     -0.20
    9   21    7      0.72      0.02
    8   21    7     -0.05     -0.07
    7   21    7      0.58     -0.18
    6   21    7     -0.16     -0.09
    5   21    7      0.39     -0.62
    4   21    7     -0.75     -0.04
    3   21    7     -0.16     -0.64
    2   21    7     -0.90     -0.01
    1   21    7     -0.28     -0.38
    0   21    7     -0.71      0.01
   17   22    7     -0.49      0.19
   16   22    7      0.14     -0.27
   15   22    7     -0.83     -0.45
   14   22    7     -0.17     -0.88
   13   22    7     -0.74     -0.79
   12   22    7      0.12     -0.91
   11   22    7     -0.51     -0.60
   10   22    7      0.60     -0.23
    9   22    7     -0.22     -0.44
    8   22    7      0.51      0.08
    7   22    7      0.02     -0.30
    6   22    7      0.24     -0.37
    5   22    7     -0.54     -0.08
    4   22    7     -0.05     -0.77
    3   22    7     -1.19     -0.05
    2   22    7     -0.28     -0.69
    1   22    7     -1.01     -0.04
    0   22    7     -0.02     -0.52
   16   23    7     -0.59     -0.18
   15   23    7      0.02     -0.68
   14   23    7     -0.66     -0.53
   13   23    7     -0.32     -1.19
   12   23    7     -0.51     -0.59
   11   23    7     -0.01     -0.71
   10   23    7     -0.46     -0.62
    9   23    7      0.31      0.07
    8   23    7     -0.14     -0.61
    7   23    7      0.10      0.03
    6   23    7     -0.13     -0.25
    5   23    7     -0.14     -0.56
    4   23    7     -0.85     -0.02
    3   23    7     -0.20     -0.84
    2   23    7     -1.08     -0.09
    1   23    7     -0.11     -0.72
    0   23    7     -0.85      0.02
   14   24    7     -0.18     -0.95
   13   24    7     -0.26     -0.31
   12   24    7     -0.49     -1.02
   11   24    7     -0.37     -0.39
   10   24    7     -0.15     -0.21
    9   24    7     -0.44     -0.61
    8   24    7     -0.01      0.25
    7   24    7     -0.08     -0.44
    6   24    7     -0.29     -0.19
    5   24    7     -0.15      0.00
    4   24    7     -0.31     -0.73
    3   24    7     -0.55      0.01
    2   24    7     -0.08     -0.75
    1   24    7     -0.46     -0.07
    0   24    7      0.01     -0.61
   12   25    7     -0.02     -0.02
   11   25    7     -0.45     -0.45
   10   25    7     -0.40     -0.22
    9   25    7     -0.15      0.22
    8   25    7     -0.33     -0.37
    7   25    7     -0.31      0.08
    6   25    7      0.18     -0.01
    5   25    7     -0.54     -0.52
    4   25    7      0.24      0.20
    3   25    7     -0.26     -0.63
    2   25    7      0.13     -0.01
    1   25    7      0.02     -0.32
    0   25    7      0.18      0.00
   10   26    7     -0.17      0.06
    9   26    7     -0.33     -0.01
    8   26    7     -0.17      0.20
    7   26    7      0.05      0.05
    6   26    7     -0.57     -0.32
    5   26    7      0.62      0.34
    4   26    7     -0.58     -0.54
    3   26    7      0.65      0.18
    2   26    7     -0.15     -0.04
    1   26    7      0.48     -0.03
    0   26    7      0.05      0.34
    7   27    7     -0.32     -0.14
    6   27    7      0.49      0.36
    5   27    7     -0.66     -0.47
    4   27    7      0.76      0.34
    3   27    7     -0.43     -0.01
    2   27    7      0.48      0.01
    1   27    7     -0.04      0.77
    0   27    7      0.26     -0.02
    2   28    7     -0.20      0.66
    1   28    7     -0.12     -0.08
    0   28    7      0.07      1.16
    0    0    8    -14.21     -0.01
    1    1    8    -12.64      0.05
    0    1    8      0.00      0.25
    2    2    8     -8.47      0.30
    1    2    8     -0.02      0.62
    0    2    8    -11.24      0.00
    3    3    8     -3.25      0.76
    2    3    8     -0.12      0.78
    1    3    8     -7.45      0.27
    0    3    8     -0.01      1.62
    4    4    8      0.77      1.01
    3    4    8     -0.38      0.74
    2    4    8     -2.63      0.79
    1    4    8     -0.27      2.04
    0    4    8     -4.63      0.00
    5    5    8      2.13      0.68
    4    5    8     -0.74      0.58
    3    5    8      1.19      1.16
    2    5    8     -1.02      1.94
    1    5    8     -0.93      0.64
    0    5    8     -0.01      2.59
    6    6    8      1.25      0.00
    5    6    8     -0.95      0.32
    4    6    8      2.57      0.95
    3    6    8     -2.02      1.54
    2    6    8      2.17      1.26
    1    6    8     -1.04      2.48
    0    6    8      1.30     -0.01
    7    7    8     -0.04     -0.39
    6    7    8     -0.90     -0.01
    5    7    8      1.77      0.34
    4    7    8     -2.61      0.91
    3    7    8      3.36      1.37
    2    7    8     -2.51      2.00
    1    7    8      3.10      0.83
    0    7    8      0.01      2.38
    8    8    8     -0.44     -0.22
    7    8    8     -0.67     -0.35
    6    8    8      0.46     -0.09
    5    8    8     -2.42      0.09
    4    8    8      2.63      0.99
    3    8    8     -3.41      1.30
    2    8    8      3.61      1.32
    1    8    8     -1.70      1.97
    0    8    8      3.49     -0.01
    9    9    8     -0.09      0.19
    8    9    8     -0.42     -0.55
    7    9    8     -0.09     -0.03
    6    9    8     -1.73     -0.77
    5    9    8      1.24      0.61
    4    9    8     -3.14      0.37
    3    9    8      2.71      1.33
    2    9    8     -2.88      1.43
    1    9    8      3.12      0.72
    0    9    8      0.01      1.74
   10   10    8      0.14      0.37
    9   10    8     -0.21     -0.50
    8   10    8      0.08      0.21
    7   10    8     -1.02     -1.30
    6   10    8      0.38      0.47
    5   10    8     -2.13     -0.66
    4   10    8      1.24      1.16
    3   10    8     -2.76      0.69
    2   10    8      2.01      1.09
    1   10    8     -1.38      1.47
    0   10    8      2.27     -0.01
   11   11    8     -0.23      0.30
   10   11    8     -0.04     -0.26
    9   11    8      0.22      0.23
    8   11    8     -0.47     -1.23
    7   11    8      0.22      0.36
    6   11    8     -1.13     -1.36
    5   11    8      0.20      0.98
    4   11    8     -1.80     -0.23
    3   11    8      0.64      1.20
    2   11    8     -1.62      0.99
    1   11    8      1.36      0.52
    0   11    8      0.00      1.48
   12   12    8     -1.07      0.29
   11   12    8      0.06      0.01
   10   12    8     -0.11      0.05
    9   12    8     -0.04     -0.68
    8   12    8      0.23      0.03
    7   12    8     -0.41     -1.37
    6   12    8     -0.15      0.65
    5   12    8     -0.86     -0.95
    4   12    8     -0.37      1.12
    3   12    8     -1.06      0.21
    2   12    8      0.39      0.77
    1   12    8     -0.51      1.22
    0   12    8      1.07     -0.01
   13   13    8     -1.93      0.45
   12   13    8      0.06      0.12
   11   13    8     -0.79      0.02
   10   13    8      0.13     -0.07
    9   13    8      0.04     -0.37
    8   13    8      0.04     -0.80
    7   13    8     -0.15      0.07
    6   13    8     -0.23     -1.04
    5   13    8     -0.75      0.77
    4   13    8     -0.48     -0.48
    3   13    8     -0.45      0.78
    2   13    8     -0.37      0.54
    1   13    8      0.69      0.27
    0   13    8      0.01      1.13
   14   14    8     -2.24      0.47
   13   14    8      0.02      0.05
   12   14    8     -1.46      0.20
   11   14    8      0.01      0.17
   10   14    8     -0.28     -0.50
    9   14    8      0.10     -0.20
    8   14    8     -0.15     -0.51
    7   14    8      0.14     -0.59
    6   14    8     -0.73      0.16
    5   14    8     -0.08     -0.60
    4   14    8     -0.90      0.52
    3   14    8     -0.15     -0.16
    2   14    8      0.02      0.33
    1   14    8     -0.02      0.58
    0   14    8      0.79     -0.01
   15   15    8     -1.73      0.22
   14   15    8      0.02     -0.06
   13   15    8     -1.67      0.27
   12   15    8     -0.17     -0.01
   11   15    8     -0.52     -0.32
   10   15    8     -0.26     -0.04
    9   15    8     -0.13     -0.76
    8   15    8      0.09     -0.16
    7   15    8     -0.63     -0.43
    6   15    8      0.22     -0.22
    5   15    8     -0.98      0.05
    4   15    8      0.05     -0.32
    3   15    8     -0.56      0.21
    2   15    8      0.04     -0.02
    1   15    8      0.26      0.10
    0   15    8      0.03      0.33
   16   16    8     -0.86      0.11
   15   16    8      0.03     -0.09
   14   16    8     -1.25      0.07
   13   16    8     -0.17     -0.25
   12   16    8     -0.55     -0.17
   11   16    8     -0.62     -0.27
   10   16    8     -0.03     -0.62
    9   16    8     -0.41     -0.15
    8   16    8     -0.48     -0.68
    7   16    8      0.23      0.10
    6   16    8     -0.91     -0.42
    5   16    8      0.34      0.03
    4   16    8     -0.76     -0.08
    3   16    8      0.15     -0.15
    2   16    8     -0.33      0.16
    1   16    8      0.06      0.06
    0   16    8     -0.06     -0.01
   17   17    8     -0.38      0.50
   16   17    8      0.02     -0.01
   15   17    8     -0.59     -0.04
   14   17    8     -0.10     -0.24
   13   17    8     -0.36     -0.27
   12   17    8     -0.60     -0.48
   11   17    8      0.06     -0.44
   10   17    8     -0.82     -0.43
    9   17    8     -0.26     -0.55
    8   17    8     -0.17      0.00
    7   17    8     -0.78     -0.59
    6   17    8      0.47      0.28
    5   17    8     -0.71     -0.44
    4   17    8      0.40      0.12
    3   17    8     -0.47      0.07
    2   17    8      0.12      0.11
    1   17    8     -0.46      0.19
    0   17    8      0.00      0.27
   18   18    8     -0.41      1.06
   17   18    8      0.02      0.08
   16   18    8     -0.29      0.31
   15   18    8     -0.10     -0.01
   14   18    8     -0.19     -0.37
   13   18    8     -0.39     -0.39
   12   18    8      0.01     -0.50
   11   18    8     -0.70     -0.59
   10   18    8     -0.14     -0.34
    9   18    8     -0.46     -0.30
    8   18    8     -0.58     -0.37
    7   18    8      0.26      0.14
    6   18    8     -0.58     -0.62
    5   18    8      0.58      0.26
    4   18    8     -0.32     -0.29
    3   18    8      0.27      0.29
    2   18    8     -0.42      0.29
    1   18    8      0.00      0.54
    0   18    8     -0.58     -0.01
   19   19    8     -0.48      1.10
   18   19    8      0.08      0.11
   17   19    8     -0.37      0.82
   16   19    8     -0.06      0.21
   15   19    8     -0.26     -0.15
   14   19    8     -0.32     -0.10
   13   19    8     -0.25     -0.65
   12   19    8     -0.34     -0.50
   11   19    8     -0.33     -0.39
   10   19    8     -0.21     -0.46
    9   19    8     -0.47     -0.07
    8   19    8      0.10     -0.13
    7   19    8     -0.40     -0.40
    6   19    8      0.46      0.05
    5   19    8     -0.16     -0.64
    4   19    8      0.38      0.22
    3   19    8     -0.21     -0.02
    2   19    8      0.02      0.59
    1   19    8     -0.46      0.23
    0   19    8     -0.03      0.84
   18   20    8     -0.41      0.89
   17   20    8      0.14      0.28
   16   20    8     -0.42      0.26
   15   20    8     -0.27      0.12
   14   20    8     -0.56     -0.59
   13   20    8     -0.27     -0.37
   12   20    8     -0.72     -0.65
   11   20    8      0.20     -0.48
   10   20    8     -0.66     -0.09
    9   20    8      0.40     -0.23
    8   20    8     -0.30     -0.03
    7   20    8      0.34     -0.16
    6   20    8     -0.02     -0.60
    5   20    8      0.28     -0.10
    4   20    8     -0.16     -0.52
    3   20    8      0.05      0.26
    2   20    8     -0.39      0.09
    1   20    8     -0.09      0.64
    0   20    8     -0.47     -0.01
   17   21    8     -0.36      0.42
   16   21    8      0.00      0.20
   15   21    8     -0.67     -0.29
   14   21    8     -0.36     -0.33
   13   21    8     -0.97     -0.77
   12   21    8      0.13     -0.63
   11   21    8     -0.98     -0.44
   10   21    8      0.77     -0.28
    9   21    8     -0.47      0.02
    8   21    8      0.60     -0.11
    7   21    8      0.08     -0.28
    6   21    8      0.16     -0.29
    5   21    8     -0.12     -0.69
    4   21    8     -0.02     -0.17
    3   21    8     -0.58     -0.33
    2   21    8     -0.10      0.11
    1   21    8     -0.58      0.02
    0   21    8     -0.03      0.22
   16   22    8     -0.45     -0.04
   15   22    8     -0.18     -0.26
   14   22    8     -0.87     -0.60
   13   22    8     -0.26     -0.84
   12   22    8     -1.04     -0.72
   11   22    8      0.54     -0.55
   10   22    8     -0.73     -0.34
    9   22    8      0.93     -0.02
    8   22    8     -0.06     -0.19
    7   22    8      0.36     -0.15
    6   22    8      0.01     -0.47
    5   22    8     -0.11     -0.35
    4   22    8     -0.65     -0.50
    3   22    8     -0.11     -0.29
    2   22    8     -0.84     -0.17
    1   22    8     -0.03     -0.35
    0   22    8     -0.66      0.00
   15   23    8     -0.50     -0.33
   14   23    8     -0.33     -0.80
   13   23    8     -0.72     -0.65
   12   23    8     -0.11     -0.89
   11   23    8     -0.71     -0.63
   10   23    8      0.73     -0.16
    9   23    8     -0.33     -0.44
    8   23    8      0.72      0.08
    7   23    8      0.03     -0.33
    6   23    8      0.01     -0.25
    5   23    8     -0.37     -0.29
    4   23    8     -0.19     -0.36
    3   23    8     -0.82     -0.19
    2   23    8      0.02     -0.53
    1   23    8     -0.61     -0.06
    0   23    8     -0.01     -0.70
   13   24    8     -0.42     -0.91
   12   24    8     -0.37     -0.53
   11   24    8      0.08     -0.43
   10   24    8     -0.40     -0.57
    9   24    8      0.74      0.15
    8   24    8     -0.18     -0.44
    7   24    8      0.34     -0.07
    6   24    8     -0.08     -0.09
    5   24    8     -0.23     -0.32
    4   24    8     -0.35      0.07
    3   24    8     -0.07     -0.35
    2   24    8     -0.34     -0.02
    1   24    8      0.09     -0.54
    0   24    8     -0.15      0.00
   11   25    8     -0.15     -0.31
   10   25    8      0.35      0.05
    9   25    8     -0.30     -0.43
    8   25    8      0.57      0.06
    7   25    8     -0.11     -0.12
    6   25    8     -0.09     -0.33
    5   25    8      0.14      0.31
    4   25    8     -0.30     -0.28
    3   25    8      0.18      0.20
    2   25    8      0.04     -0.11
    1   25    8      0.22     -0.01
    0   25    8      0.01     -0.10
    9   26    8      0.50      0.12
    8   26    8     -0.23     -0.12
    7   26    8      0.17     -0.27
    6   26    8      0.19      0.30
    5   26    8     -0.39     -0.44
    4   26    8      0.58      0.40
    3   26    8     -0.24     -0.01
    2   26    8      0.46      0.04
    1   26    8      0.04      0.37
    0   26    8      0.27      0.00
    5   27    8      0.53      0.43
    4   27    8     -0.42     -0.27
    3   27    8      0.54      0.12
    2   27    8     -0.12      0.39
    1   27    8      0.01     -0.09
    0   27    8      0.04      0.73
    0    1    9     -6.82     -0.04
    1    2    9     -5.13      0.85
    0    2    9     -0.01      0.93
    2    3    9     -2.30      2.25
    1    3    9     -0.03      1.54
    0    3    9     -3.81      0.01
    3    4    9      0.42      3.31
    2    4    9     -0.23      1.65
    1    4    9     -1.49      1.47
    0    4    9     -0.01      2.64
    4    5    9      1.57      3.21
    3    5    9     -0.70      1.32
    2    5    9      0.88      2.74
    1    5    9     -0.36      2.92
    0    5    9      0.01      0.01
    5    6    9      0.85      2.07
    4    6    9     -1.16      0.80
    3    6    9      2.03      2.99
    2    6    9     -1.15      2.43
    1    6    9      1.66      1.53
    0    6    9      0.00      3.35
    6    7    9     -0.57      0.82
    5    7    9     -1.25      0.30
    4    7    9      1.50      2.19
    3    7    9     -1.91      1.61
    2    7    9      2.51      2.35
    1    7    9     -0.93      2.85
    0    7    9      2.38     -0.03
    7    8    9     -1.28      0.15
    6    8    9     -0.96     -0.16
    5    8    9      0.15      1.09
    4    8    9     -2.04      0.82
    3    8    9      2.03      2.20
    2    8    9     -1.86      1.96
    1    8    9      2.58      1.24
    0    8    9      0.01      2.39
    8    9    9     -1.01     -0.08
    7    9    9     -0.55     -0.54
    6    9    9     -0.75      0.36
    5    9    9     -1.50      0.09
    4    9    9      0.73      1.50
    3    9    9     -2.03      1.16
    2    9    9      1.91      1.79
    1    9    9     -1.00      1.57
    0    9    9      2.15     -0.01
    9   10    9     -0.50     -0.24
    8   10    9     -0.24     -0.66
    7   10    9     -0.75      0.00
    6   10    9     -0.81     -0.57
    5   10    9     -0.36      0.82
    4   10    9     -1.43      0.46
    3   10    9      0.66      1.67
    2   10    9     -1.29      0.93
    1   10    9      1.38      0.94
    0   10    9      0.00      0.85
   10   11    9     -0.49     -0.36
    9   11    9     -0.07     -0.38
    8   11    9     -0.38     -0.26
    7   11    9     -0.34     -0.84
    6   11    9     -0.66      0.32
    5   11    9     -0.69     -0.22
    4   11    9     -0.45      1.20
    3   11    9     -0.85      0.45
    2   11    9      0.39      1.26
    1   11    9     -0.41      0.33
    0   11    9      0.88      0.01
   11   12    9     -1.11     -0.25
   10   12    9      0.01      0.05
    9   12    9     -0.26     -0.44
    8   12    9     -0.10     -0.49
    7   12    9     -0.39     -0.05
    6   12    9     -0.24     -0.56
    5   12    9     -0.87      0.71
    4   12    9     -0.29     -0.03
    3   12    9     -0.52      1.05
    2   12    9     -0.17      0.02
    1   12    9      0.45      0.51
    0   12    9      0.01     -0.16
   12   13    9     -1.91      0.05
   11   13    9      0.01      0.24
   10   13    9     -0.58     -0.44
    9   13    9     -0.05      0.11
    8   13    9     -0.08     -0.34
    7   13    9     -0.05     -0.28
    6   13    9     -0.65      0.30
    5   13    9      0.01     -0.27
    4   13    9     -0.99      0.68
    3   13    9      0.17     -0.25
    2   13    9     -0.11      0.47
    1   13    9      0.15     -0.50
    0   13    9      0.66      0.00
   13   14    9     -2.18      0.30
   12   14    9      0.04      0.10
   11   14    9     -1.05     -0.28
   10   14    9     -0.17      0.34
    9   14    9     -0.02     -0.54
    8   14    9     -0.06      0.26
    7   14    9     -0.22     -0.06
    6   14    9      0.13      0.02
    5   14    9     -0.92      0.39
    4   14    9      0.31     -0.29
    3   14    9     -0.66      0.28
    2   14    9      0.41     -0.67
    1   14    9      0.47      0.05
    0   14    9      0.02     -0.83
   14   15    9     -1.54      0.35
   13   15    9      0.14     -0.09
   12   15    9     -1.18     -0.14
   11   15    9     -0.27      0.06
   10   15    9     -0.13     -0.65
    9   15    9     -0.32      0.37
    8   15    9      0.09     -0.44
    7   15    9      0.12      0.47
    6   15    9     -0.54      0.09
    5   15    9      0.36      0.10
    4   15    9     -0.86      0.18
    3   15    9      0.50     -0.53
    2   15    9     -0.12      0.02
    1   15    9      0.32     -0.88
    0   15    9      0.55     -0.01
   15   16    9     -0.48      0.33
   14   16    9      0.21     -0.08
   13   16    9     -0.71     -0.11
   12   16    9     -0.18     -0.24
   11   16    9     -0.19     -0.68
   10   16    9     -0.61     -0.04
    9   16    9      0.16     -0.74
    8   16    9     -0.16      0.45
    7   16    9     -0.17     -0.32
    6   16    9      0.35      0.56
    5   16    9     -0.66     -0.02
    4   16    9      0.48      0.00
    3   16    9     -0.54      0.08
    2   16    9      0.47     -0.51
    1   16    9      0.07      0.06
    0   16    9      0.02     -0.61
   16   17    9      0.05      0.47
   15   17    9      0.12      0.12
   14   17    9     -0.03     -0.07
   13   17    9     -0.07     -0.16
   12   17    9     -0.05     -0.66
   11   17    9     -0.65     -0.40
   10   17    9      0.03     -0.85
    9   17    9     -0.54     -0.05
    8   17    9     -0.03     -0.60
    7   17    9      0.12      0.51
    6   17    9     -0.27     -0.41
    5   17    9      0.40      0.48
    4   17    9     -0.46     -0.11
    3   17    9      0.46      0.11
    2   17    9     -0.34      0.23
    1   17    9      0.26      0.04
    0   17    9     -0.17      0.00
   17   18    9     -0.18      0.74
   16   18    9      0.01      0.30
   15   18    9      0.21      0.12
   14   18    9     -0.13      0.19
   13   18    9      0.11     -0.57
   12   18    9     -0.52     -0.29
   11   18    9     -0.19     -0.81
   10   18    9     -0.65     -0.45
    9   18    9     -0.22     -0.56
    8   18    9     -0.22      0.01
    7   18    9     -0.05     -0.58
    6   18    9      0.13      0.45
    5   18    9     -0.06     -0.63
    4   18    9      0.28      0.52
    3   18    9     -0.25      0.00
    2   18    9      0.35      0.64
    1   18    9     -0.39      0.24
    0   18    9     -0.01      0.80
   18   19    9     -0.50      0.83
   17   19    9      0.06      0.36
   16   19    9     -0.09      0.42
   15   19    9     -0.22      0.49
   14   19    9      0.04     -0.34
   13   19    9     -0.51      0.08
   12   19    9     -0.41     -0.72
   11   19    9     -0.50     -0.39
   10   19    9     -0.64     -0.37
    9   19    9     -0.26     -0.35
    8   19    9     -0.21     -0.24
    7   19    9     -0.15      0.03
    6   19    9      0.22     -0.84
    5   19    9     -0.09      0.41
    4   19    9      0.09     -0.71
    3   19    9      0.23      0.80
    2   19    9     -0.29      0.09
    1   19    9      0.21      1.12
    0   19    9     -0.48      0.00
   18   20    9      0.22      0.32
   17   20    9     -0.35      0.57
   16   20    9     -0.05      0.57
   15   20    9     -0.21     -0.01
   14   20    9     -0.54      0.31
   13   20    9     -0.56     -0.59
   12   20    9     -0.47     -0.19
   11   20    9     -0.99     -0.36
   10   20    9      0.00     -0.33
    9   20    9     -0.63      0.20
    8   20    9     -0.03     -0.23
    7   20    9      0.12     -0.33
    6   20    9     -0.40      0.02
    5   20    9      0.26     -1.13
    4   20    9     -0.14      0.51
    3   20    9     -0.14     -0.60
    2   20    9      0.31      0.87
    1   20    9     -0.46      0.01
    0   20    9     -0.02      0.96
   16   21    9     -0.27      0.22
   15   21    9     -0.30      0.35
   14   21    9     -0.55     -0.35
   13   21    9     -0.57     -0.16
   12   21    9     -1.03     -0.50
   11   21    9      0.08     -0.25
   10   21    9     -0.95      0.15
    9   21    9      0.47     -0.14
    8   21    9     -0.23      0.33
    7   21    9     -0.18     -0.18
    6   21    9      0.12     -0.66
    5   21    9     -0.51      0.11
    4   21    9     -0.20     -1.08
    3   21    9      0.14      0.44
    2   21    9     -0.50     -0.41
    1   21    9      0.28      0.29
    0   21    9     -0.58     -0.01
   15   22    9     -0.33     -0.10
   14   22    9     -0.46     -0.21
   13   22    9     -0.73     -0.52
   12   22    9     -0.19     -0.40
   11   22    9     -0.88     -0.30
   10   22    9      0.74     -0.03
    9   22    9     -0.48      0.32
    8   22    9      0.57     -0.06
    7   22    9     -0.13      0.08
    6   22    9     -0.38     -0.13
    5   22    9     -0.38     -0.72
    4   22    9     -0.23      0.18
    3   22    9     -0.66     -0.72
    2   22    9      0.40     -0.09
    1   22    9     -0.62     -0.21
    0   22    9     -0.02     -0.51
   14   23    9     -0.34     -0.36
   13   23    9     -0.40     -0.55
   12   23    9     -0.51     -0.58
   11   23    9      0.42     -0.16
   10   23    9     -0.39     -0.24
    9   23    9      1.13      0.12
    8   23    9     -0.25      0.17
    7   23    9      0.36     -0.16
    6   23    9     -0.45     -0.02
    5   23    9     -0.35      0.01
    4   23    9     -0.71     -0.40
    3   23    9      0.17      0.06
    2   23    9     -0.61     -0.35
    1   23    9      0.31     -0.63
    0   23    9     -0.47     -0.01
   12   24    9     -0.11     -0.34
   11   24    9     -0.11     -0.58
   10   24    9      0.95      0.14
    9   24    9     -0.13     -0.29
    8   24    9      1.07     -0.06
    7   24    9     -0.37      0.14
    6   24    9      0.06     -0.21
    5   24    9     -0.53      0.16
    4   24    9     -0.16      0.20
    3   24    9     -0.41     -0.14
    2   24    9      0.29     -0.03
    1   24    9     -0.22     -0.15
    0   24    9     -0.02     -0.48
   10   25    9      0.06     -0.51
    9   25    9      1.10      0.07
    8   25    9     -0.21     -0.21
    7   25    9      0.63     -0.33
    6   25    9     -0.31      0.31
    5   25    9     -0.17     -0.06
    4   25    9     -0.04      0.22
    3   25    9     -0.03      0.42
    2   25    9      0.10     -0.16
    1   25    9      0.14      0.23
    0   25    9      0.03      0.00
    7   26    9     -0.22      0.05
    6   26    9      0.09     -0.38
    5   26    9      0.15      0.34
    4   26    9     -0.26      0.21
    3   26    9      0.42     -0.08
    2   26    9     -0.02      0.64
    1   26    9      0.11     -0.20
    0   26    9      0.00      0.68
    0    0   10     -1.37     -0.06
    1    1   10     -1.02      0.51
    0    1   10      0.00      0.17
    2    2   10     -0.21      2.02
    1    2   10      0.00      0.46
    0    2   10     -0.74     -0.01
    3    3   10      0.58      3.67
    2    3   10     -0.01      0.60
    1    3   10     -0.05      1.49
    0    3   10      0.01      1.30
    4    4   10      0.80      4.31
    3    4   10     -0.09      0.53
    2    4   10      0.68      3.18
    1    4   10     -0.04      1.76
    0    4   10      0.40      0.03
    5    5   10      0.24      3.48
    4    5   10     -0.22      0.34
    3    5   10      0.95      3.94
    2    5   10     -0.24      1.65
    1    5   10      0.98      1.81
    0    5   10      0.00      2.55
    6    6   10     -0.66      1.96
    5    6   10     -0.30      0.16
    4    6   10      0.51      3.30
    3    6   10     -0.55      1.15
    2    6   10      1.32      2.90
    1    6   10     -0.24      2.52
    0    6   10      1.38     -0.01
    7    7   10     -1.27      0.73
    6    7   10     -0.26      0.04
    5    7   10     -0.36      1.94
    4    7   10     -0.74      0.66
    3    7   10      1.07      2.78
    2    7   10     -0.61      1.88
    1    7   10      1.67      1.42
    0    7   10     -0.01      2.55
    8    8   10     -1.30     -0.01
    7    8   10     -0.13     -0.07
    6    8   10     -1.06      0.78
    5    8   10     -0.64      0.34
    4    8   10      0.27      1.90
    3    8   10     -0.83      1.21
    2    8   10      1.47      1.98
    1    8   10     -0.38      1.82
    0    8   10      1.76     -0.02
    9    9   10     -1.00     -0.56
    8    9   10      0.00     -0.16
    7    9   10     -1.23      0.05
    6    9   10     -0.33      0.03
    5    9   10     -0.61      0.98
    4    9   10     -0.70      0.79
    3    9   10      0.69      1.78
    2    9   10     -0.57      1.08
    1    9   10      1.44      0.99
    0    9   10     -0.01      0.99
   10   10   10     -0.87     -0.91
    9   10   10      0.05     -0.13
    8   10   10     -1.02     -0.47
    7   10   10     -0.04     -0.22
    6   10   10     -1.08      0.32
    5   10   10     -0.36      0.42
    4   10   10     -0.30      1.25
    3   10   10     -0.44      0.72
    2   10   10      0.68      1.36
    1   10   10     -0.18      0.18
    0   10   10      1.02      0.02
   11   11   10     -1.17     -0.88
   10   11   10      0.03      0.00
    9   11   10     -0.84     -0.80
    8   11   10      0.07     -0.17
    7   11   10     -1.03     -0.16
    6   11   10     -0.06      0.10
    5   11   10     -0.96      0.71
    4   11   10     -0.13      0.52
    3   11   10     -0.23      1.22
    2   11   10     -0.03     -0.10
    1   11   10      0.45      0.65
    0   11   10      0.01     -0.71
   12   12   10     -1.77     -0.58
   11   12   10      0.01      0.06
   10   12   10     -0.98     -0.78
    9   12   10      0.01      0.13
    8   12   10     -0.72     -0.44
    7   12   10      0.04      0.14
    6   12   10     -1.01      0.31
    5   12   10      0.11      0.35
    4   12   10     -0.88      0.85
    3   12   10      0.28     -0.05
    2   12   10     -0.16      0.72
    1   12   10      0.20     -1.06
    0   12   10      0.27      0.02
   13   13   10     -2.08     -0.28
   12   13   10      0.05      0.00
   11   13   10     -1.40     -0.57
   10   13   10     -0.08      0.28
    9   13   10     -0.50     -0.49
    8   13   10     -0.05      0.50
    7   13   10     -0.57      0.08
    6   13   10      0.17      0.47
    5   13   10     -0.98      0.56
    4   13   10      0.48      0.08
    3   13   10     -0.67      0.50
    2   13   10      0.57     -0.92
    1   13   10      0.13      0.17
    0   13   10      0.02     -1.53
   14   14   10     -1.55     -0.02
   13   14   10      0.16     -0.08
   12   14   10     -1.62     -0.38
   11   14   10     -0.02      0.08
   10   14   10     -0.56     -0.49
    9   14   10     -0.19      0.64
    8   14   10     -0.05     -0.08
    7   14   10      0.11      0.84
    6   14   10     -0.53      0.40
    5   14   10      0.50      0.40
    4   14   10     -0.87      0.37
    3   14   10      0.78     -0.56
    2   14   10     -0.19      0.05
    1   14   10      0.45     -1.48
    0   14   10      0.41      0.00
   15   15   10     -0.39      0.26
   14   15   10      0.24     -0.04
   13   15   10     -1.16     -0.21
   12   15   10      0.21     -0.15
   11   15   10     -0.66     -0.55
   10   15   10     -0.22      0.30
    9   15   10      0.18     -0.30
    8   15   10     -0.03      0.92
    7   15   10      0.15      0.20
    6   15   10      0.42      0.83
    5   15   10     -0.55      0.31
    4   15   10      0.73     -0.04
    3   15   10     -0.52      0.04
    2   15   10      0.74     -1.03
    1   15   10      0.31     -0.07
    0   15   10      0.00     -1.44
   16   16   10      0.39      0.47
   15   16   10      0.20      0.08
   14   16   10     -0.17      0.02
   13   16   10      0.37     -0.07
   12   16   10     -0.44     -0.58
   11   16   10     -0.12     -0.08
   10   16   10      0.05     -0.57
    9   16   10     -0.20      0.45
    8   16   10      0.53     -0.11
    7   16   10      0.26      0.89
    6   16   10      0.15      0.10
    5   16   10      0.51      0.50
    4   16   10     -0.44      0.02
    3   16   10      0.67     -0.35
    2   16   10     -0.09     -0.03
    1   16   10      0.39     -0.89
    0   16   10      0.39      0.00
   17   17   10      0.20      0.54
   16   17   10      0.09      0.17
   15   17   10      0.47      0.24
   14   17   10      0.28      0.24
   13   17   10      0.10     -0.45
   12   17   10     -0.06     -0.04
   11   17   10     -0.14     -0.71
   10   17   10     -0.36     -0.06
    9   17   10      0.33     -0.32
    8   17   10     -0.02      0.39
    7   17   10      0.66     -0.15
    6   17   10      0.18      0.63
    5   17   10      0.17     -0.29
    4   17   10      0.29      0.29
    3   17   10     -0.22     -0.12
    2   17   10      0.47     -0.12
    1   17   10      0.07      0.05
    0   17   10     -0.01     -0.23
   18   18   10     -0.40      0.51
   17   18   10      0.03      0.19
   16   18   10      0.25      0.36
   15   18   10      0.05      0.47
   14   18   10      0.44     -0.23
   13   18   10     -0.20      0.31
   12   18   10     -0.14     -0.66
   11   18   10     -0.53     -0.10
   10   18   10     -0.25     -0.33
    9   18   10     -0.33     -0.15
    8   18   10      0.48     -0.09
    7   18   10     -0.18      0.22
    6   18   10      0.75     -0.57
    5   18   10     -0.24      0.50
    4   18   10      0.20     -0.63
    3   18   10      0.21      0.50
    2   18   10     -0.14     -0.06
    1   18   10      0.30      0.44
    0   18   10     -0.13      0.01
   18   19   10      0.07      0.16
   17   19   10     -0.31      0.40
   16   19   10     -0.01      0.51
   15   19   10      0.24     -0.01
   14   19   10     -0.38      0.56
   13   19   10     -0.03     -0.51
   12   19   10     -0.75      0.18
   11   19   10     -0.67     -0.29
   10   19   10     -0.58     -0.21
    9   19   10     -0.27      0.29
    8   19   10     -0.42     -0.23
    7   19   10      0.63     -0.23
    6   19   10     -0.73      0.20
    5   19   10      0.65     -1.09
    4   19   10     -0.33      0.68
    3   19   10      0.05     -0.67
    2   19   10      0.46      0.78
    1   19   10     -0.33     -0.04
    0   19   10      0.01      0.74
   17   20   10      0.16      0.45
   16   20   10     -0.17      0.16
   15   20   10     -0.26      0.58
   14   20   10     -0.03     -0.29
   13   20   10     -0.85      0.34
   12   20   10     -0.66     -0.33
   11   20   10     -0.77      0.02
   10   20   10     -0.88      0.44
    9   20   10     -0.39     -0.24
    8   20   10     -0.12      0.57
    7   20   10     -0.82     -0.18
    6   20   10      0.45     -0.68
    5   20   10     -0.94      0.43
    4   20   10      0.20     -1.25
    3   20   10      0.24      0.79
    2   20   10     -0.31     -0.50
    1   20   10      0.53      0.53
    0   20   10     -0.56     -0.01
   15   21   10     -0.10     -0.05
   14   21   10     -0.58      0.30
   13   21   10     -0.37     -0.33
   12   21   10     -0.82      0.11
   11   21   10     -0.85      0.15
   10   21   10     -0.21      0.03
    9   21   10     -0.71      0.93
    8   21   10     -0.31     -0.21
    7   21   10     -0.27      0.37
    6   21   10     -1.07      0.02
    5   21   10     -0.18     -0.93
    4   21   10     -0.35      0.61
    3   21   10     -0.38     -0.98
    2   21   10      0.82      0.31
    1   21   10     -0.62     -0.28
    0   21   10      0.00     -0.18
   14   22   10     -0.11     -0.20
   13   22   10     -0.62      0.01
   12   22   10     -0.40     -0.23
   11   22   10     -0.13      0.16
   10   22   10     -0.59      0.48
    9   22   10      0.43      0.05
    8   22   10     -0.69      0.93
    7   22   10     -0.37     -0.21
    6   22   10     -0.83      0.13
    5   22   10     -0.76      0.28
    4   22   10     -0.76     -0.73
    3   22   10      0.47      0.38
    2   22   10     -0.67     -0.57
    1   22   10      0.66     -0.54
    0   22   10     -0.72     -0.02
   12   23   10     -0.17      0.06
   11   23   10     -0.10     -0.18
   10   23   10      0.78      0.26
    9   23   10     -0.39      0.49
    8   23   10      0.71     -0.16
    7   23   10     -1.02      0.76
    6   23   10     -0.38     -0.12
    5   23   10     -1.18      0.14
    4   23   10     -0.15      0.45
    3   23   10     -0.79     -0.41
    2   23   10      0.71     -0.11
    1   23   10     -0.61     -0.26
    0   23   10     -0.02     -0.85
   10   24   10      0.17     -0.23
    9   24   10      1.25      0.04
    8   24   10     -0.51      0.40
    7   24   10      0.54     -0.38
    6   24   10     -1.13      0.68
    5   24   10     -0.28      0.17
    4   24   10     -0.81      0.14
    3   24   10      0.19      0.49
    2   24   10     -0.41     -0.31
    1   24   10      0.33     -0.23
    0   24   10     -0.42     -0.01
    8   25   10      1.05     -0.32
    7   25   10     -0.60      0.39
    6   25   10      0.17     -0.25
    5   25   10     -0.60      0.49
    4   25   10     -0.20      0.53
    3   25   10     -0.12     -0.15
    2   25   10      0.11      0.57
    1   25   10     -0.17     -0.27
    0   25   10     -0.02      0.24
    3   26   10     -0.19      0.72
    2   26   10      0.14     -0.45
    1   26   10     -0.04      0.70
    0   26   10     -0.16      0.01
    0    1   11      2.28     -0.03
    1    2   11      2.09      0.86
    0    2   11      0.02      0.23
    2    3   11      1.45      2.36
    1    3   11      0.02      0.43
    0    3   11      1.91      0.01
    3    4   11      0.45      3.57
    2    4   11      0.03      0.49
    1    4   11      1.40      1.49
    0    4   11      0.02      0.88
    4    5   11     -0.38      3.61
    3    5   11      0.06      0.37
    2    5   11      0.66      2.75
    1    5   11      0.05      1.09
    0    5   11      1.20      0.01
    5    6   11     -0.70      2.57
    4    6   11      0.06      0.23
    3    6   11      0.06      2.99
    2    6   11      0.13      0.93
    1    6   11      0.90      1.37
    0    6   11     -0.02      1.44
    6    7   11     -0.67      1.28
    5    7   11      0.03      0.17
    4    7   11     -0.22      2.25
    3    7   11      0.16      0.65
    2    7   11      0.65      1.92
    1    7   11      0.10      1.24
    0    7   11      1.05     -0.01
    7    8   11     -0.69      0.27
    6    8   11      0.03      0.14
    5    8   11     -0.36      1.27
    4    8   11      0.09      0.51
    3    8   11      0.44      1.69
    2    8   11      0.18      0.80
    1    8   11      1.05      0.81
    0    8   11     -0.05      0.88
    8    9   11     -0.86     -0.49
    7    9   11      0.08      0.07
    6    9   11     -0.61      0.49
    5    9   11      0.02      0.46
    4    9   11      0.10      1.19
    3    9   11      0.11      0.58
    2    9   11      0.84      1.02
    1    9   11      0.09      0.23
    0    9   11      1.06      0.00
    9   10   11     -1.06     -0.99
    8   10   11      0.12      0.05
    7   10   11     -0.93     -0.13
    6   10   11      0.05      0.39
    5   10   11     -0.40      0.75
    4   10   11      0.02      0.59
    3   10   11      0.39      0.95
    2   10   11      0.12     -0.08
    1   10   11      0.76      0.43
    0   10   11     -0.01     -0.64
   10   11   11     -1.17     -1.07
    9   11   11      0.09      0.09
    8   11   11     -1.08     -0.58
    7   11   11      0.09      0.40
    6   11   11     -0.84      0.34
    5   11   11      0.03      0.64
    4   11   11     -0.20      0.80
    3   11   11      0.14      0.05
    2   11   11      0.29      0.56
    1   11   11      0.14     -1.07
    0   11   11      0.36      0.02
   11   12   11     -1.27     -0.87
   10   12   11      0.04      0.04
    9   12   11     -1.01     -0.69
    8   12   11      0.05      0.54
    7   12   11     -0.93      0.01
    6   12   11      0.09      0.79
    5   12   11     -0.64      0.60
    4   12   11      0.25      0.34
    3   12   11     -0.18      0.54
    2   12   11      0.35     -0.88
    1   12   11      0.03      0.18
    0   12   11      0.03     -1.61
   12   13   11     -1.35     -0.71
   11   13   11      0.09     -0.17
   10   13   11     -0.90     -0.59
    9   13   11      0.00      0.50
    8   13   11     -0.62     -0.12
    7   13   11      0.10      1.05
    6   13   11     -0.63      0.41
    5   13   11      0.38      0.69
    4   13   11     -0.51      0.48
    3   13   11      0.62     -0.40
    2   13   11     -0.19      0.17
    1   13   11      0.36     -1.49
    0   13   11     -0.05      0.01
   13   14   11     -1.16     -0.55
   12   14   11      0.26     -0.32
   11   14   11     -0.89     -0.55
   10   14   11      0.08      0.15
    9   14   11     -0.26     -0.12
    8   14   11      0.10      1.08
    7   14   11     -0.13      0.32
    6   14   11      0.41      1.06
    5   14   11     -0.42      0.41
    4   14   11      0.75      0.10
    3   14   11     -0.37      0.14
    2   14   11      0.73     -1.01
    1   14   11      0.05     -0.03
    0   14   11      0.00     -1.50
   14   15   11     -0.52     -0.20
   13   15   11      0.39     -0.20
   12   15   11     -0.79     -0.55
   11   15   11      0.26     -0.17
   10   15   11     -0.21     -0.20
    9   15   11      0.15      0.67
    8   15   11      0.42      0.29
    7   15   11      0.39      1.15
    6   15   11      0.19      0.35
    5   15   11      0.65      0.55
    4   15   11     -0.31      0.10
    3   15   11      0.81     -0.47
    2   15   11     -0.01     -0.10
    1   15   11      0.41     -1.14
    0   15   11      0.38      0.00
   15   16   11      0.18      0.17
   14   16   11      0.35      0.10
   13   16   11     -0.37     -0.39
   12   16   11      0.33     -0.07
   11   16   11     -0.36     -0.33
   10   16   11      0.15      0.21
    9   16   11      0.47      0.26
    8   16   11      0.33      0.76
    7   16   11      0.92      0.35
    6   16   11      0.43      0.70
    5   16   11      0.28     -0.02
    4   16   11      0.48      0.03
    3   16   11     -0.08     -0.20
    2   16   11      0.52     -0.65
    1   16   11      0.41     -0.10
    0   16   11     -0.03     -0.90
   16   17   11      0.30      0.22
   15   17   11      0.19      0.28
   14   17   11      0.16     -0.17
   13   17   11      0.17      0.30
   12   17   11     -0.34     -0.39
   11   17   11     -0.07      0.16
   10   17   11     -0.01      0.21
    9   17   11      0.10      0.26
    8   17   11      1.03      0.50
    7   17   11      0.19      0.41
    6   17   11      1.11     -0.09
    5   17   11     -0.03      0.29
    4   17   11      0.29     -0.49
    3   17   11      0.20     -0.10
    2   17   11      0.18     -0.28
    1   17   11      0.23     -0.50
    0   17   11      0.45      0.00
   17   18   11     -0.13      0.08
   16   18   11      0.07      0.27
   15   18   11      0.29     -0.12
   14   18   11     -0.06      0.49
   13   18   11     -0.06     -0.39
   12   18   11     -0.47      0.40
   11   18   11     -0.47      0.09
   10   18   11     -0.42      0.12
    9   18   11      0.32      0.74
    8   18   11     -0.15     -0.02
    7   18   11      1.28      0.20
    6   18   11     -0.49      0.17
    5   18   11      0.95     -0.75
    4   18   11     -0.39      0.32
    3   18   11      0.22     -0.70
    2   18   11      0.28     -0.01
    1   18   11      0.15     -0.17
    0   18   11      0.00     -0.29
   16   19   11     -0.05     -0.14
   15   19   11     -0.10      0.42
   14   19   11      0.14     -0.41
   13   19   11     -0.71      0.50
   12   19   11     -0.44     -0.13
   11   19   11     -1.01      0.28
   10   19   11     -0.51      0.79
    9   19   11     -0.61     -0.12
    8   19   11      0.48      0.81
    7   19   11     -0.77     -0.15
    6   19   11      1.00     -0.46
    5   19   11     -0.98      0.38
    4   19   11      0.49     -1.11
    3   19   11      0.05      0.46
    2   19   11     -0.05     -0.55
    1   19   11      0.45     -0.11
    0   19   11     -0.19      0.00
   15   20   11      0.04     -0.34
   14   20   11     -0.53      0.37
   13   20   11     -0.12     -0.33
   12   20   11     -1.23      0.36
   11   20   11     -0.68      0.46
   10   20   11     -0.99      0.09
    9   20   11     -0.51      1.17
    8   20   11     -0.81     -0.26
    7   20   11      0.11      0.41
    6   20   11     -1.28      0.11
    5   20   11      0.24     -0.89
    4   20   11     -0.48      0.69
    3   20   11     -0.10     -0.94
    2   20   11      0.83      0.19
    1   20   11     -0.47     -0.28
    0   20   11      0.03     -0.39
   14   21   11      0.08     -0.33
   13   21   11     -0.89      0.25
   12   21   11     -0.27      0.01
   11   21   11     -1.02      0.30
   10   21   11     -0.72      0.89
    9   21   11     -0.56     -0.05
    8   21   11     -0.85      1.10
    7   21   11     -0.98     -0.18
    6   21   11     -0.75      0.07
    5   21   11     -0.98      0.49
    4   21   11     -0.52     -0.76
    3   21   11      0.63      0.53
    2   21   11     -0.57     -0.53
    1   21   11      0.86     -0.46
    0   21   11     -0.77     -0.01
   12   22   11     -0.67      0.31
   11   22   11     -0.23      0.28
   10   22   11     -0.17      0.26
    9   22   11     -0.87      0.97
    8   22   11     -0.16     -0.21
    7   22   11     -1.54      0.93
    6   22   11     -0.87      0.02
    4   22   11     -0.08      0.60
    3   22   11     -0.83     -0.39
    2   22   11      1.12     -0.09
    1   22   11     -0.79     -0.22
    0   22   11      0.01     -0.87
    5   22   11     -1.40      0.10
   10   23   11     -0.16      0.32
    9   23   11      0.63      0.01
    8   23   11     -1.24      0.91
    7   23   11     -0.03     -0.34
    6   23   11     -1.92      0.90
    5   23   11     -0.47      0.26
    4   23   11     -1.29      0.22
    3   23   11      0.52      0.38
    2   23   11     -0.73     -0.22
    1   23   11      0.62     -0.56
    0   23   11     -0.78     -0.02
    8   24   11      0.80     -0.36
    7   24   11     -1.39      0.89
    6   24   11     -0.08     -0.21
    5   24   11     -1.46      0.79
    4   24   11     -0.14      0.45
    3   24   11     -0.67      0.04
    2   24   11      0.40      0.13
    1   24   11     -0.54     -0.18
    0   24   11     -0.02     -0.39
    4   25   11     -0.54      0.31
    3   25   11     -0.12      0.52
    2   25   11     -0.21     -0.27
    1   25   11      0.04      0.16
    0   25   11     -0.37      0.00
    0    0   12      3.69     -0.01
    1    1   12      3.39      0.24
    0    1   12      0.01     -0.03
    2    2   12      2.29      1.04
    1    2   12      0.02     -0.07
    0    2   12      3.11      0.00
    3    3   12      0.56      2.16
    2    3   12      0.04     -0.08
    1    3   12      2.15      0.79
    0    3   12      0.04     -0.15
    4    4   12     -0.88      2.81
    3    4   12      0.11     -0.07
    2    4   12      0.63      1.88
    1    4   12      0.09     -0.12
    0    4   12      1.61      0.00
    5    5   12     -1.16      2.47
    4    5   12      0.21     -0.04
    3    5   12     -0.64      2.54
    2    5   12      0.30     -0.07
    1    5   12      0.68      1.07
    0    5   12      0.01     -0.02
    6    6   12     -0.48      1.48
    5    6   12      0.25     -0.01
    4    6   12     -0.88      2.28
    3    6   12      0.55     -0.02
    2    6   12     -0.12      1.76
    1    6   12      0.27      0.06
    0    6   12      0.50      0.00
    7    7   12      0.10      0.47
    6    7   12      0.18      0.03
    5    7   12     -0.31      1.43
    4    7   12      0.61      0.06
    3    7   12     -0.25      1.69
    2    7   12      0.59      0.07
    1    7   12      0.29      0.74
    0    7   12     -0.06      0.07
    8    8   12     -0.07     -0.28
    7    8   12      0.09      0.06
    6    8   12      0.15      0.58
    5    8   12      0.41      0.17
    4    8   12      0.12      1.17
    3    8   12      0.64      0.11
    2    8   12      0.32      0.84
    1    8   12      0.28     -0.10
    0    8   12      0.47      0.00
    9    9   12     -0.73     -0.73
    8    9   12      0.01      0.08
    7    9   12     -0.08     -0.06
    6    9   12      0.14      0.26
    5    9   12      0.31      0.70
    4    9   12      0.35      0.25
    3    9   12      0.50      0.63
    2    9   12      0.34     -0.20
    1    9   12      0.52      0.18
    0    9   12     -0.05     -0.53
   10   10   12     -1.19     -0.79
    9   10   12     -0.01      0.09
    8   10   12     -0.72     -0.50
    7   10   12     -0.03      0.38
    6   10   12     -0.02      0.32
    5   10   12      0.02      0.44
    4   10   12      0.49      0.51
    3   10   12      0.11     -0.07
    2   10   12      0.52      0.10
    1   10   12      0.07     -0.84
    0   10   12      0.37      0.00
   11   11   12     -1.08     -0.57
   10   11   12      0.02      0.02
    9   11   12     -1.12     -0.62
    8   11   12     -0.07      0.47
    7   11   12     -0.58     -0.05
    6   11   12     -0.12      0.70
    5   11   12      0.15      0.42
    4   11   12     -0.07      0.23
    3   11   12      0.43      0.13
    2   11   12      0.02     -0.74
    1   11   12      0.19     -0.09
    0   11   12      0.03     -1.29
   12   12   12     -0.65     -0.42
   11   12   12      0.12     -0.16
   10   12   12     -0.97     -0.47
    9   12   12      0.06      0.33
    8   12   12     -0.83     -0.25
    7   12   12     -0.07      0.96
    6   12   12     -0.26      0.22
    5   12   12     -0.03      0.63
    4   12   12      0.20      0.22
    3   12   12      0.09     -0.36
    2   12   12      0.12     -0.10
    1   12   12      0.10     -1.22
    0   12   12     -0.11      0.00
   13   13   12     -0.37     -0.39
   12   13   12      0.20     -0.31
   11   13   12     -0.56     -0.36
   10   13   12      0.32     -0.09
    9   13   12     -0.60     -0.21
    8   13   12      0.16      0.93
    7   13   12     -0.32      0.03
    6   13   12      0.14      1.01
    5   13   12     -0.01      0.19
    4   13   12      0.32      0.09
    3   13   12      0.08      0.01
    2   13   12      0.34     -0.82
    1   13   12     -0.05     -0.08
    0   13   12      0.03     -1.18
   14   14   12     -0.36     -0.20
   13   14   12      0.21     -0.25
   12   14   12     -0.36     -0.36
   11   14   12      0.52     -0.47
   10   14   12     -0.26     -0.11
    9   14   12      0.50      0.49
    8   14   12      0.03      0.09
    7   14   12      0.39      1.12
    6   14   12      0.15      0.10
    5   14   12      0.47      0.46
    4   14   12      0.04      0.02
    3   14   12      0.59     -0.44
    2   14   12      0.09     -0.07
    1   14   12      0.30     -0.87
    0   14   12      0.13      0.00
   15   15   12     -0.33      0.13
   14   15   12      0.13     -0.04
   13   15   12     -0.40     -0.25
   12   15   12      0.46     -0.39
   11   15   12     -0.25     -0.11
   10   15   12      0.67      0.02
    9   15   12      0.31      0.32
    8   15   12      0.65      0.81
    7   15   12      0.66      0.25
    6   15   12      0.51      0.62
    5   15   12      0.32     -0.05
    4   15   12      0.53     -0.15
    3   15   12      0.13     -0.15
    2   15   12      0.49     -0.62
    1   15   12      0.43     -0.07
    0   15   12     -0.04     -0.73
   16   16   12     -0.19      0.20
   15   16   12      0.05      0.12
   14   16   12     -0.39     -0.02
   13   16   12      0.20      0.05
   12   16   12     -0.48     -0.13
   11   16   12      0.41      0.00
   10   16   12      0.09      0.48
    9   16   12      0.66      0.38
    8   16   12      0.99      0.67
    7   16   12      0.54      0.45
    6   16   12      0.98      0.07
    5   16   12      0.23      0.02
    4   16   12      0.33     -0.35
    3   16   12      0.29     -0.41
    2   16   12      0.42     -0.26
    1   16   12      0.18     -0.69
    0   16   12      0.73      0.00
   17   17   12     -0.14     -0.08
   16   17   12      0.02      0.13
   15   17   12     -0.22     -0.01
   14   17   12     -0.02      0.36
   13   17   12     -0.53     -0.17
   12   17   12     -0.13      0.35
   11   17   12     -0.42      0.43
   10   17   12      0.15      0.30
    9   17   12      0.62      1.09
    8   17   12      0.39      0.17
    7   17   12      1.40      0.53
    6   17   12     -0.04      0.01
    5   17   12      0.88     -0.42
    4   17   12     -0.20     -0.14
    3   17   12      0.35     -0.59
    2   17   12      0.13     -0.55
    1   17   12      0.63     -0.22
    0   17   12     -0.04     -0.86
   16   18   12     -0.13     -0.24
   15   18   12     -0.04      0.31
   14   18   12     -0.29     -0.33
   13   18   12     -0.48      0.53
   12   18   12     -0.62      0.14
   11   18   12     -0.65      0.49
   10   18   12     -0.16      1.15
    9   18   12     -0.18      0.12
    8   18   12      0.96      1.12
    7   18   12     -0.25     -0.12
    6   18   12      1.21     -0.10
    5   18   12     -0.64      0.08
    4   18   12      0.53     -0.83
    3   18   12     -0.13     -0.10
    2   18   12      0.29     -0.56
    1   18   12      0.20     -0.87
    0   18   12      0.41      0.00
   15   19   12     -0.08     -0.52
   14   19   12     -0.38      0.34
   13   19   12     -0.32     -0.28
   12   19   12     -1.11      0.52
   11   19   12     -0.56      0.75
   10   19   12     -0.96      0.29
    9   19   12      0.00      1.37
    8   19   12     -0.55     -0.15
    7   19   12      0.66      0.52
    6   19   12     -0.85      0.08
    5   19   12      0.52     -0.65
    4   19   12     -0.46      0.42
    3   19   12      0.09     -0.79
    2   19   12      0.47     -0.38
    1   19   12     -0.04     -0.28
    0   19   12      0.02     -1.13
   14   20   12      0.02     -0.53
   13   20   12     -0.90      0.28
   12   20   12     -0.30      0.14
   11   20   12     -1.35      0.39
   10   20   12     -0.54      1.06
    9   20   12     -0.87      0.01
    8   20   12     -0.41      0.97
    7   20   12     -0.84     -0.08
    6   20   12     -0.26     -0.05
    5   20   12     -0.76      0.56
    4   20   12     -0.23     -0.64
    3   20   12      0.50      0.36
    2   20   12     -0.35     -0.42
    1   20   12      0.70     -0.86
    0   20   12     -0.49      0.00
   12   21   12     -1.07      0.30
   11   21   12     -0.32      0.46
   10   21   12     -0.91      0.23
    9   21   12     -0.91      0.88
    8   21   12     -0.60     -0.13
    7   21   12     -1.33      0.53
    6   21   12     -0.79      0.26
    5   21   12     -1.09     -0.06
    4   21   12      0.10      0.72
    3   21   12     -0.65     -0.25
    2   21   12      1.18     -0.16
    1   21   12     -0.72     -0.11
    0   21   12      0.04     -0.99
   10   22   12     -0.51      0.45
    9   22   12     -0.16      0.01
    8   22   12     -1.59      0.65
    7   22   12     -0.38     -0.12
    6   22   12     -2.01      0.54
    5   22   12     -0.33      0.46
    4   22   12     -1.25      0.23
    3   22   12      0.85      0.38
    2   22   12     -0.76     -0.01
    1   22   12      0.81     -0.60
    0   22   12     -0.89     -0.01
    8   23   12      0.26     -0.24
    7   23   12     -1.98      0.71
    6   23   12     -0.25     -0.03
    5   23   12     -1.81      0.72
    4   23   12      0.12      0.40
    3   23   12     -0.86      0.27
    2   23   12      0.78     -0.06
    1   23   12     -0.73     -0.01
    0   23   12      0.00     -0.58
    5   24   12     -0.18      0.12
    4   24   12     -0.98      0.56
    3   24   12      0.14      0.20
    2   24   12     -0.47      0.03
    1   24   12      0.23     -0.25
    0   24   12     -0.59      0.00
    0    1   13      3.58      0.02
    1    2   13      2.61      0.15
    0    2   13      0.02     -0.30
    2    3   13      0.83      0.68
    1    3   13      0.07     -0.47
    0    3   13      1.96     -0.01
    3    4   13     -0.87      1.41
    2    4   13      0.25     -0.46
    1    4   13      0.71      0.50
    0    4   13      0.02     -0.74
    4    5   13     -1.40      1.66
    3    5   13      0.53     -0.34
    2    5   13     -0.55      1.20
    1    5   13      0.28     -0.74
    0    5   13      0.25     -0.01
    5    6   13     -0.62      1.19
    4    6   13      0.72     -0.17
    3    6   13     -0.94      1.48
    2    6   13      0.70     -0.55
    1    6   13     -0.30      0.66
    0    6   13     -0.03     -0.76
    6    7   13      0.45      0.44
    5    7   13      0.65     -0.03
    4    7   13     -0.34      1.12
    3    7   13      0.96     -0.29
    2    7   13     -0.46      0.95
    1    7   13      0.40     -0.63
    0    7   13     -0.30      0.01
    7    8   13      0.74     -0.05
    6    8   13      0.32      0.08
    5    8   13      0.49      0.55
    4    8   13      0.81     -0.05
    3    8   13     -0.06      0.70
    2    8   13      0.62     -0.42
    1    8   13     -0.27      0.28
    0    8   13     -0.06     -0.65
    8    9   13      0.10     -0.20
    7    9   13     -0.06      0.21
    6    9   13      0.68      0.17
    5    9   13      0.33      0.17
    4    9   13      0.47      0.34
    3    9   13      0.42     -0.18
    2    9   13     -0.02      0.06
    1    9   13      0.13     -0.63
    0    9   13     -0.26      0.00
    9   10   13     -0.76     -0.12
    8   10   13     -0.27      0.33
    7   10   13      0.14     -0.02
    6   10   13     -0.17      0.42
    5   10   13      0.58      0.13
    4   10   13      0.03      0.09
    3   10   13      0.29     -0.20
    2   10   13     -0.04     -0.48
    1   10   13     -0.19     -0.24
    0   10   13      0.00     -0.80
   10   11   13     -0.95      0.10
    9   11   13     -0.14      0.28
    8   11   13     -0.54     -0.11
    7   11   13     -0.37      0.68
    6   11   13      0.23     -0.03
    5   11   13     -0.25      0.40
    4   11   13      0.41     -0.25
    3   11   13     -0.21     -0.24
    2   11   13      0.02     -0.51
    1   11   13     -0.12     -0.75
    0   11   13     -0.28     -0.01
   11   12   13     -0.27      0.31
   10   12   13      0.27     -0.02
    9   12   13     -0.66     -0.04
    8   12   13     -0.09      0.71
    7   12   13     -0.16     -0.22
    6   12   13     -0.24      0.72
    5   12   13      0.29     -0.29
    4   12   13     -0.16      0.02
    3   12   13      0.22     -0.50
    2   12   13     -0.13     -0.54
    1   12   13     -0.09     -0.32
    0   12   13      0.04     -0.75
   12   13   13      0.51      0.38
   11   13   13      0.61     -0.39
   10   13   13     -0.11      0.12
    9   13   13      0.58      0.33
    8   13   13     -0.14     -0.24
    7   13   13      0.15      0.85
    6   13   13      0.20     -0.42
    5   13   13      0.04      0.26
    4   13   13      0.28     -0.44
    3   13   13      0.09     -0.37
    2   13   13      0.20     -0.35
    1   13   13      0.05     -0.53
    0   13   13      0.11      0.00
   13   14   13      0.50      0.41
   12   14   13      0.56     -0.49
   11   14   13      0.42      0.24
   10   14   13      1.10     -0.19
    9   14   13      0.26      0.01
    8   14   13      0.81      0.61
    7   14   13      0.39     -0.35
    6   14   13      0.33      0.38
    5   14   13      0.37     -0.47
    4   14   13      0.26     -0.29
    3   14   13      0.35     -0.31
    2   14   13      0.25     -0.43
    1   14   13      0.51     -0.10
    0   14   13     -0.01     -0.37
   14   15   13     -0.19      0.48
   13   15   13      0.18     -0.20
   12   15   13      0.24      0.28
   11   15   13      0.93     -0.35
   10   15   13      0.47      0.33
    9   15   13      1.25      0.20
    8   15   13      0.75      0.12
    7   15   13      0.72      0.29
    6   15   13      0.68     -0.33
    5   15   13      0.23     -0.25
    4   15   13      0.41     -0.38
    3   15   13      0.25     -0.47
    2   15   13      0.64     -0.15
    1   15   13      0.14     -0.38
    0   15   13      0.89      0.01
   15   16   13     -0.66      0.39
   14   16   13     -0.13      0.17
   13   16   13     -0.42      0.25
   12   16   13      0.21     -0.01
   11   16   13      0.07      0.45
   10   16   13      0.92      0.07
    9   16   13      0.76      0.72
    8   16   13      0.93      0.12
    7   16   13      1.06      0.23
    6   16   13      0.22     -0.24
    5   16   13      0.64     -0.35
    4   16   13     -0.04     -0.43
    3   16   13      0.51     -0.34
    2   16   13      0.12     -0.51
    1   16   13      0.97     -0.10
    0   16   13     -0.05     -0.61
   16   17   13     -0.50      0.03
   15   17   13     -0.16      0.29
   14   17   13     -0.76      0.06
   13   17   13     -0.37      0.40
   12   17   13     -0.57      0.31
   11   17   13     -0.01      0.33
   10   17   13      0.21      0.99
    9   17   13      0.54      0.12
    8   17   13      1.01      0.94
    7   17   13      0.24     -0.22
    6   17   13      0.92      0.05
    5   17   13     -0.32     -0.26
    4   17   13      0.43     -0.48
    3   17   13     -0.13     -0.35
    2   17   13      0.61     -0.35
    1   17   13      0.06     -0.89
    0   17   13      0.93      0.00
   15   18   13     -0.48     -0.26
   14   18   13     -0.39      0.44
   13   18   13     -0.73     -0.06
   12   18   13     -0.74      0.56
   11   18   13     -0.40      0.78
   10   18   13     -0.35      0.34
    9   18   13      0.40      1.29
    8   18   13      0.01     -0.12
    7   18   13      0.77      0.62
    6   18   13     -0.37     -0.11
    5   18   13      0.39     -0.29
    4   18   13     -0.36      0.10
    3   18   13      0.19     -0.52
    2   18   13      0.15     -0.66
    1   18   13      0.46     -0.22
    0   18   13     -0.02     -1.39
   13   19   13     -0.74      0.43
   12   19   13     -0.49      0.25
   11   19   13     -1.03      0.49
   10   19   13     -0.21      1.07
    9   19   13     -0.52      0.09
    8   19   13      0.09      0.91
    7   19   13     -0.34     -0.06
    6   19   13      0.00      0.07
    5   19   13     -0.38      0.44
    4   19   13     -0.17     -0.39
    3   19   13      0.26      0.09
    2   19   13     -0.09     -0.33
    1   19   13      0.38     -1.25
    0   19   13      0.01      0.00
   12   20   13     -1.00      0.35
   11   20   13     -0.29      0.52
   10   20   13     -0.91      0.26
    9   20   13     -0.48      0.73
    8   20   13     -0.40     -0.03
    7   20   13     -0.76      0.26
    6   20   13     -0.28      0.38
    5   20   13     -0.76     -0.11
    4   20   13      0.28      0.70
    3   20   13     -0.51     -0.15
    2   20   13      0.87     -0.42
    1   20   13     -0.45     -0.07
    0   20   13      0.02     -1.38
   10   21   13     -0.46      0.35
    9   21   13     -0.41      0.06
    8   21   13     -1.22      0.16
    7   21   13     -0.15      0.13
    6   21   13     -1.52      0.06
    5   21   13      0.15      0.69
    4   21   13     -0.99      0.14
    3   21   13      0.97      0.37
    2   21   13     -0.66      0.10
    1   21   13      0.74     -0.79
    0   21   13     -0.76      0.00
    8   22   13      0.03     -0.02
    7   22   13     -1.79      0.03
    6   22   13      0.05      0.29
    5   22   13     -1.53      0.32
    4   22   13      0.57      0.53
    3   22   13     -0.77      0.34
    2   22   13      1.00     -0.10
    1   22   13     -0.73      0.11
    0   22   13      0.02     -0.62
    5   23   13      0.11      0.25
    4   23   13     -0.92      0.47
    3   23   13      0.56      0.15
    2   23   13     -0.51      0.22
    1   23   13      0.43     -0.27
    0   23   13     -0.67      0.01
    0    0   14      3.61      0.04
    1    1   14      2.91     -0.12
    0    1   14      0.00     -0.12
    2    2   14      1.10     -0.24
    1    2   14      0.03     -0.30
    0    2   14      2.33      0.01
    3    3   14     -0.82      0.09
    2    3   14      0.12     -0.34
    1    3   14      0.84     -0.12
    0    3   14      0.00     -0.75
    4    4   14     -1.66      0.54
    3    4   14      0.29     -0.28
    2    4   14     -0.77      0.21
    1    4   14      0.23     -0.88
    0    4   14      0.10     -0.03
    5    5   14     -1.02      0.49
    4    5   14      0.46     -0.17
    3    5   14     -1.45      0.66
    2    5   14      0.64     -0.72
    1    5   14     -0.75      0.29
    0    5   14     -0.01     -1.05
    6    6   14      0.27      0.01
    5    6   14      0.49     -0.08
    4    6   14     -0.89      0.62
    3    6   14      1.03     -0.44
    2    6   14     -1.09      0.73
    1    6   14      0.48     -0.88
    0    6   14     -0.89     -0.01
    7    7   14      1.08     -0.25
    6    7   14      0.33     -0.01
    5    7   14      0.24      0.15
    4    7   14      1.10     -0.19
    3    7   14     -0.68      0.71
    2    7   14      0.89     -0.54
    1    7   14     -0.92      0.42
    0    7   14     -0.03     -0.74
    8    8   14      0.93     -0.01
    7    8   14      0.04      0.06
    6    8   14      0.94     -0.15
    5    8   14      0.72      0.00
    4    8   14      0.06      0.26
    3    8   14      0.92     -0.21
    2    8   14     -0.67      0.42
    1    8   14      0.33     -0.48
    0    8   14     -0.92      0.01
    9    9   14      0.12      0.39
    8    9   14     -0.23      0.13
    7    9   14      0.80     -0.01
    6    9   14      0.06      0.19
    5    9   14      0.51     -0.11
    4    9   14      0.53      0.06
    3    9   14     -0.30     -0.02
    2    9   14      0.30     -0.18
    1    9   14     -0.81      0.00
    0    9   14     -0.02     -0.34
   10   10   14     -0.50      0.61
    9   10   14     -0.27      0.16
    8   10   14      0.12      0.25
    7   10   14     -0.51      0.38
    6   10   14      0.44     -0.18
    5   10   14     -0.04      0.29
    4   10   14     -0.06     -0.42
    3   10   14      0.03      0.06
    2   10   14     -0.61     -0.39
    1   10   14     -0.09     -0.17
    0   10   14     -0.80     -0.01
   11   11   14     -0.17      0.75
   10   11   14     -0.02      0.08
    9   11   14     -0.38      0.37
    8   11   14     -0.53      0.46
    7   11   14      0.09     -0.18
    6   11   14     -0.46      0.48
    5   11   14     -0.02     -0.61
    4   11   14     -0.19      0.21
    3   11   14     -0.42     -0.74
    2   11   14     -0.26     -0.01
    1   11   14     -0.55     -0.37
    0   11   14      0.01     -0.14
   12   12   14      0.88      0.96
   11   12   14      0.31     -0.08
   10   12   14     -0.05      0.47
    9   12   14      0.13      0.30
    8   12   14     -0.10     -0.22
    7   12   14     -0.34      0.56
    6   12   14     -0.02     -0.74
    5   12   14     -0.25      0.26
    4   12   14     -0.26     -0.90
    3   12   14     -0.22      0.01
    2   12   14     -0.24     -0.64
    1   12   14     -0.15     -0.05
    0   12   14     -0.14     -0.02
   13   13   14      1.45      1.17
   12   13   14      0.41     -0.20
   11   13   14      0.86      0.69
   10   13   14      0.95     -0.05
    9   13   14      0.24     -0.11
    8   13   14      0.46      0.43
    7   13   14      0.13     -0.78
    6   13   14     -0.03      0.23
    5   13   14     -0.06     -0.99
    4   13   14     -0.06     -0.11
    3   13   14     -0.02     -0.70
    2   13   14     -0.07     -0.08
    1   13   14      0.36     -0.24
    0   13   14      0.02     -0.02
   14   14   14      0.81      1.21
   13   14   14      0.20     -0.16
   12   14   14      1.29      0.92
   11   14   14      1.16     -0.33
   10   14   14      0.86      0.21
    9   14   14      1.39      0.11
    8   14   14      0.52     -0.51
    7   14   14      0.58      0.14
    6   14   14      0.25     -0.93
    5   14   14      0.05     -0.27
    4   14   14      0.15     -0.73
    3   14   14      0.04     -0.27
    2   14   14      0.62     -0.26
    1   14   14      0.05     -0.07
    0   14   14      0.98      0.00
   15   15   14     -0.29      0.95
   14   15   14     -0.07      0.00
   13   15   14      0.62      0.95
   12   15   14      0.58     -0.27
   11   15   14      0.99      0.50
   10   15   14      1.55     -0.13
    9   15   14      0.91      0.03
    8   15   14      1.24      0.01
    7   15   14      0.64     -0.48
    6   15   14      0.24     -0.34
    5   15   14      0.32     -0.63
    4   15   14     -0.07     -0.43
    3   15   14      0.57     -0.29
    2   15   14      0.07     -0.24
    1   15   14      1.21     -0.02
    0   15   14     -0.01     -0.20
   15   16   14     -0.17      0.14
   14   16   14     -0.40      0.70
   13   16   14     -0.16      0.09
   12   16   14      0.28      0.53
   11   16   14      0.75     -0.06
   10   16   14      0.81      0.45
    9   16   14      1.29     -0.05
    8   16   14      0.89      0.21
    7   16   14      0.52     -0.31
    6   16   14      0.52     -0.22
    5   16   14     -0.24     -0.40
    4   16   14      0.38     -0.29
    3   16   14     -0.13     -0.26
    2   16   14      0.94     -0.08
    1   16   14      0.04     -0.44
    0   16   14      1.37      0.01
   14   17   14     -0.42      0.37
   13   17   14     -0.53      0.29
   12   17   14     -0.22      0.26
   11   17   14      0.16      0.48
   10   17   14      0.53      0.08
    9   17   14      0.71      0.68
    8   17   14      0.54     -0.22
    7   17   14      0.57      0.36
    6   17   14     -0.19     -0.28
    5   17   14      0.19     -0.06
    4   17   14     -0.35     -0.02
    3   17   14      0.40     -0.15
    2   17   14     -0.01     -0.39
    1   17   14      0.97     -0.05
    0   17   14     -0.03     -0.89
   13   18   14     -0.55      0.46
   12   18   14     -0.41      0.22
   11   18   14     -0.35      0.32
   10   18   14      0.20      0.68
    9   18   14      0.11     -0.05
    8   18   14      0.34      0.68
    7   18   14     -0.05     -0.19
    6   18   14     -0.06      0.27
    5   18   14     -0.30      0.25
    4   18   14     -0.15     -0.04
    3   18   14      0.00      0.11
    2   18   14      0.28     -0.12
    1   18   14      0.12     -0.97
    0   18   14      0.56      0.00
   11   19   14     -0.15      0.39
   10   19   14     -0.41      0.16
    9   19   14     -0.02      0.57
    8   19   14     -0.07     -0.13
    7   19   14     -0.40      0.32
    6   19   14     -0.04      0.27
    5   19   14     -0.64      0.12
    4   19   14      0.20      0.63
    3   19   14     -0.36      0.00
    2   19   14      0.43     -0.38
    1   19   14     -0.05     -0.04
    0   19   14     -0.02     -1.31
   10   20   14     -0.16      0.29
    9   20   14     -0.21     -0.01
    8   20   14     -0.64      0.08
    7   20   14      0.14      0.11
    6   20   14     -1.06      0.03
    5   20   14      0.43      0.70
    4   20   14     -0.83      0.16
    3   20   14      0.78      0.36
    2   20   14     -0.50      0.10
    1   20   14      0.46     -0.90
    0   20   14     -0.45      0.00
    7   21   14     -1.21     -0.28
    6   21   14      0.47      0.41
    5   21   14     -1.14      0.09
    4   21   14      0.86      0.60
    3   21   14     -0.68      0.28
    2   21   14      0.89     -0.17
    1   21   14     -0.63      0.12
    0   21   14      0.00     -0.80
    4   22   14     -0.71      0.25
    3   22   14      0.87      0.17
    2   22   14     -0.51      0.25
    1   22   14      0.47     -0.33
    0   22   14     -0.67      0.01
    0    1   15      2.66      0.02
    1    2   15      1.21     -0.44
    0    2   15     -0.01     -0.46
    2    3   15     -0.73     -0.69
    1    3   15      0.10     -0.66
    0    3   15      0.26     -0.01
    3    4   15     -1.83     -0.46
    2    4   15      0.38     -0.59
    1    4   15     -1.00     -0.27
    0    4   15     -0.02     -0.95
    4    5   15     -1.49     -0.27
    3    5   15      0.73     -0.42
    2    5   15     -1.64     -0.05
    1    5   15      0.39     -0.82
    0    5   15     -1.36     -0.02
    5    6   15     -0.28     -0.49
    4    6   15      0.92     -0.28
    3    6   15     -1.25      0.12
    2    6   15      0.91     -0.54
    1    6   15     -1.43      0.19
    0    6   15     -0.01     -0.65
    6    7   15      0.77     -0.65
    5    7   15      0.77     -0.16
    4    7   15     -0.33     -0.15
    3    7   15      1.18     -0.30
    2    7   15     -1.04      0.38
    1    7   15      0.51     -0.34
    0    7   15     -1.22      0.00
    7    8   15      1.15     -0.23
    6    8   15      0.25     -0.01
    5    8   15      0.37     -0.48
    4    8   15      0.97     -0.10
    3    8   15     -0.54      0.09
    2    8   15      0.73     -0.06
    1    8   15     -0.93      0.23
    0    8   15      0.00     -0.02
    8    9   15      0.94      0.43
    7    9   15     -0.38      0.13
    6    9   15      0.57     -0.35
    5    9   15      0.32      0.12
    4    9   15     -0.33     -0.40
    3    9   15      0.56      0.17
    2    9   15     -0.78      0.03
    1    9   15      0.16      0.23
    0    9   15     -0.84      0.00
    9   10   15      0.50      0.63
    8   10   15     -0.71      0.20
    7   10   15      0.47      0.01
    6   10   15     -0.46      0.29
    5   10   15     -0.35     -0.63
    4   10   15      0.13      0.36
    3   10   15     -0.89     -0.46
    2   10   15      0.02      0.43
    1   10   15     -0.75     -0.09
    0   10   15     -0.01      0.41
   10   11   15      0.37      0.43
    9   11   15     -0.45      0.18
    8   11   15      0.32      0.08
    7   11   15     -0.82      0.32
    6   11   15     -0.30     -0.64
    5   11   15     -0.32      0.40
    4   11   15     -1.06     -0.85
    3   11   15     -0.14      0.52
    2   11   15     -0.84     -0.42
    1   11   15     -0.15      0.52
    0   11   15     -0.46     -0.02
   11   12   15      0.89      0.47
   10   12   15      0.22      0.08
    9   12   15      0.41     -0.08
    8   12   15     -0.37      0.26
    7   12   15     -0.07     -0.68
    6   12   15     -0.47      0.28
    5   12   15     -0.91     -1.06
    4   12   15     -0.20      0.40
    3   12   15     -0.96     -0.73
    2   12   15     -0.21      0.51
    1   12   15     -0.18     -0.20
    0   12   15      0.01      0.46
   12   13   15      1.57      0.94
   11   13   15      0.70     -0.08
   10   13   15      0.93      0.02
    9   13   15      0.63      0.14
    8   13   15      0.34     -0.70
    7   13   15     -0.02      0.13
    6   13   15     -0.44     -1.11
    5   13   15     -0.18      0.11
    4   13   15     -0.82     -0.91
    3   13   15     -0.13      0.32
    2   13   15     -0.08     -0.31
    1   13   15     -0.07      0.36
    0   13   15      0.55     -0.01
   13   14   15      1.47      1.34
   12   14   15      0.58     -0.18
   11   14   15      1.43      0.46
   10   14   15      1.32     -0.04
    9   14   15      0.87     -0.43
    8   14   15      0.86      0.04
    7   14   15      0.15     -0.93
    6   14   15      0.03     -0.12
    5   14   15     -0.42     -0.92
    4   14   15     -0.14      0.03
    3   14   15     -0.03     -0.38
    2   14   15     -0.04      0.20
    1   14   15      0.91     -0.01
    0   14   15      0.03      0.15
   14   15   15      0.52      1.23
   13   15   15      0.08     -0.11
   12   15   15      1.22      0.80
   11   15   15      1.07     -0.18
   10   15   15      1.20      0.02
    9   15   15      1.43     -0.04
    8   15   15      0.65     -0.47
    7   15   15      0.48     -0.17
    6   15   15      0.01     -0.64
    5   15   15     -0.24     -0.15
    4   15   15      0.04     -0.36
    3   15   15     -0.15      0.10
    2   15   15      0.86      0.03
    1   15   15      0.02      0.00
    0   15   15      1.41      0.01
   13   16   15      0.33      0.72
   12   16   15      0.27     -0.10
   11   16   15      0.92      0.27
   10   16   15      1.15     -0.12
    9   16   15      0.88     -0.02
    8   16   15      0.82     -0.16
    7   16   15      0.30     -0.15
    6   16   15     -0.19     -0.16
    5   16   15      0.02     -0.14
    4   16   15     -0.41      0.16
    3   16   15      0.56      0.05
    2   16   15     -0.08      0.05
    1   16   15      1.27      0.09
    0   16   15      0.01     -0.27
   12   17   15      0.19      0.22
   11   17   15      0.37     -0.06
   10   17   15      0.67      0.14
    9   17   15      0.67     -0.19
    8   17   15      0.41      0.20
    7   17   15      0.00     -0.17
    6   17   15     -0.10      0.20
    5   17   15     -0.48      0.26
    4   17   15      0.09      0.17
    3   17   15     -0.24      0.36
    2   17   15      0.73      0.11
    1   17   15     -0.01     -0.30
    0   17   15      1.07      0.01
   11   18   15      0.20      0.07
   10   18   15      0.23     -0.13
    9   18   15      0.32      0.21
    8   18   15      0.11     -0.25
    7   18   15     -0.21      0.33
    6   18   15     -0.26      0.17
    5   18   15     -0.41      0.33
    4   18   15     -0.18      0.66
    3   18   15      0.06      0.19
    2   18   15      0.04      0.07
    1   18   15      0.49      0.04
    0   18   15     -0.03     -0.62
    9   19   15      0.06     -0.24
    8   19   15     -0.22      0.15
    7   19   15      0.03     -0.08
    6   19   15     -0.71      0.27
    5   19   15      0.14      0.59
    4   19   15     -0.52      0.29
    3   19   15      0.29      0.52
    2   19   15     -0.11      0.11
    1   19   15      0.14     -0.45
    0   19   15      0.01      0.00
    6   20   15      0.41      0.24
    5   20   15     -0.83      0.19
    4   20   15      0.64      0.60
    3   20   15     -0.49      0.22
    2   20   15      0.48     -0.01
    1   20   15     -0.36      0.06
    0   20   15     -0.03     -0.61
    2   21   15     -0.45      0.16
    1   21   15      0.31     -0.33
    0   21   15     -0.53      0.01
    0    0   16      1.82     -0.01
    1    1   16      1.09     -0.33
    0    1   16      0.00     -0.11
    2    2   16     -0.58     -0.87
    1    2   16      0.00     -0.23
    0    2   16      0.50      0.00
    3    3   16     -1.95     -1.03
    2    3   16      0.07     -0.24
    1    3   16     -0.85     -0.56
    0    3   16     -0.03     -0.52
    4    4   16     -2.07     -0.90
    3    4   16      0.20     -0.21
    2    4   16     -1.91     -0.75
    1    4   16      0.12     -0.49
    0    4   16     -1.44      0.00
    5    5   16     -1.07     -0.95
    4    5   16      0.35     -0.22
    3    5   16     -1.88     -0.65
    2    5   16      0.46     -0.39
    1    5   16     -1.78     -0.23
    0    5   16     -0.02     -0.38
    6    6   16      0.12     -1.08
    5    6   16      0.38     -0.23
    4    6   16     -0.95     -0.75
    3    6   16      0.81     -0.41
    2    6   16     -1.43     -0.18
    1    6   16      0.37     -0.16
    0    6   16     -1.45      0.00
    7    7   16      0.87     -0.69
    6    7   16      0.19     -0.17
    5    7   16      0.03     -0.95
    4    7   16      0.88     -0.45
    3    7   16     -0.69     -0.32
    2    7   16      0.75     -0.13
    1    7   16     -0.87      0.06
    0    7   16      0.01      0.17
    8    8   16      1.24      0.13
    7    8   16     -0.14     -0.06
    6    8   16      0.58     -0.71
    5    8   16      0.45     -0.30
    4    8   16     -0.21     -0.65
    3    8   16      0.81     -0.17
    2    8   16     -0.39      0.00
    1    8   16      0.34      0.32
    0    8   16     -0.33      0.00
    9    9   16      1.38      0.50
    8    9   16     -0.44      0.02
    7    9   16      0.86     -0.05
    6    9   16     -0.31     -0.04
    5    9   16     -0.17     -0.73
    4    9   16      0.40     -0.02
    3    9   16     -0.47     -0.33
    2    9   16      0.36      0.35
    1    9   16     -0.08      0.07
    0    9   16      0.00      0.60
   10   10   16      1.31      0.05
    9   10   16     -0.47      0.03
    8   10   16      1.06      0.26
    7   10   16     -0.96      0.10
    6   10   16     -0.13     -0.44
    5   10   16     -0.30      0.22
    4   10   16     -0.97     -0.63
    3   10   16      0.09      0.47
    2   10   16     -0.46     -0.08
    1   10   16     -0.01      0.71
    0   10   16      0.08      0.00
   11   11   16      1.21     -0.43
   10   11   16     -0.24      0.01
    9   11   16      1.13     -0.12
    8   11   16     -1.00      0.08
    7   11   16      0.19     -0.28
    6   11   16     -0.85      0.27
    5   11   16     -1.21     -0.71
    4   11   16     -0.27      0.59
    3   11   16     -1.22     -0.36
    2   11   16     -0.17      0.78
    1   11   16     -0.15      0.03
    0   11   16     -0.01      0.78
   12   12   16      1.29     -0.12
   11   12   16      0.06     -0.01
   10   12   16      1.15     -0.52
    9   12   16     -0.41      0.04
    8   12   16      0.59     -0.50
    7   12   16     -0.82      0.14
    6   12   16     -0.82     -0.71
    5   12   16     -0.50      0.48
    4   12   16     -1.61     -0.59
    3   12   16     -0.26      0.80
    2   12   16     -0.71     -0.04
    1   12   16     -0.15      0.75
    0   12   16      0.12     -0.01
   13   13   16      1.31      0.66
   12   13   16      0.18     -0.05
   11   13   16      1.26     -0.23
   10   13   16      0.32      0.00
    9   13   16      0.90     -0.67
    8   13   16     -0.16      0.05
    7   13   16     -0.15     -0.76
    6   13   16     -0.43      0.22
    5   13   16     -1.28     -0.71
    4   13   16     -0.29      0.64
    3   13   16     -1.04     -0.19
    2   13   16     -0.18      0.70
    1   13   16      0.10      0.10
    0   13   16      0.03      0.53
   13   14   16      0.07     -0.09
   12   14   16      1.26      0.47
   11   14   16      0.59     -0.10
   10   14   16      1.11     -0.40
    9   14   16      0.62      0.03
    8   14   16      0.42     -0.68
    7   14   16     -0.01      0.09
    6   14   16     -0.61     -0.66
    5   14   16     -0.30      0.38
    4   14   16     -0.85     -0.32
    3   14   16     -0.20      0.63
    2   14   16      0.01      0.14
    1   14   16     -0.04      0.40
    0   14   16      0.66      0.00
   12   15   16      0.32     -0.21
   11   15   16      1.09      0.08
   10   15   16      0.90     -0.09
    9   15   16      0.75     -0.40
    8   15   16      0.50      0.06
    7   15   16     -0.06     -0.43
    6   15   16     -0.24      0.22
    5   15   16     -0.46     -0.26
    4   15   16     -0.35      0.56
    3   15   16      0.07      0.10
    2   15   16     -0.11      0.44
    1   15   16      0.81      0.17
    0   15   16      0.05      0.14
   11   16   16      0.59     -0.24
   10   16   16      0.80     -0.15
    9   16   16      0.72     -0.08
    8   16   16      0.27     -0.17
    7   16   16     -0.05      0.13
    6   16   16     -0.23     -0.04
    5   16   16     -0.51      0.50
    4   16   16      0.08      0.13
    3   16   16     -0.30      0.62
    2   16   16      0.74      0.24
    1   16   16     -0.03      0.17
    0   16   16      1.05      0.01
    9   17   16      0.41     -0.08
    8   17   16      0.13     -0.09
    7   17   16     -0.13      0.14
    6   17   16     -0.47      0.32
    5   17   16     -0.12      0.25
    4   17   16     -0.45      0.74
    3   17   16      0.47      0.25
    2   17   16     -0.17      0.47
    1   17   16      0.83      0.13
    0   17   16      0.01      0.04
    7   18   16     -0.25     -0.04
    6   18   16     -0.34      0.31
    5   18   16     -0.35      0.55
    4   18   16      0.01      0.30
    3   18   16     -0.18      0.71
    2   18   16      0.43      0.15
    1   18   16     -0.07      0.19
    0   18   16      0.51      0.01
    4   19   16      0.05      0.60
    3   19   16     -0.01      0.17
    2   19   16      0.00      0.39
    1   19   16      0.10      0.03
    0   19   16     -0.04      0.02
    0    1   17     -0.15     -0.04
    1    2   17     -0.86     -0.37
    0    2   17     -0.01      0.01
    2    3   17     -1.79     -0.67
    1    3   17     -0.08      0.09
    0    3   17     -1.23      0.00
    3    4   17     -2.21     -0.77
    2    4   17     -0.09      0.05
    1    4   17     -1.70     -0.34
    0    4   17     -0.02      0.25
    4    5   17     -1.72     -0.90
    3    5   17      0.07     -0.20
    2    5   17     -1.74     -0.52
    1    5   17     -0.05      0.30
    0    5   17     -1.45      0.01
    5    6   17     -0.72     -1.14
    4    6   17      0.28     -0.53
    3    6   17     -1.17     -0.71
    2    6   17      0.15     -0.02
    1    6   17     -0.94     -0.20
    0    6   17     -0.01      0.51
    6    7   17      0.14     -1.07
    5    7   17      0.25     -0.62
    4    7   17     -0.44     -0.99
    3    7   17      0.41     -0.52
    2    7   17     -0.29     -0.39
    1    7   17      0.14      0.37
    0    7   17     -0.03      0.00
    7    8   17      0.76     -0.47
    6    8   17     -0.13     -0.40
    5    8   17     -0.02     -1.03
    4    8   17      0.34     -0.69
    3    8   17      0.02     -0.64
    2    8   17      0.30     -0.03
    1    8   17      0.64     -0.10
    0    8   17     -0.01      0.54
    8    9   17      1.36      0.06
    7    9   17     -0.63     -0.13
    6    9   17      0.22     -0.58
    5    9   17     -0.21     -0.40
    4    9   17     -0.24     -0.76
    3    9   17      0.16     -0.21
    2    9   17      0.55     -0.19
    1    9   17      0.06      0.45
    0    9   17      1.17      0.00
    9   10   17      1.79     -0.20
    8   10   17     -0.89     -0.03
    7   10   17      0.66     -0.11
    6   10   17     -0.88     -0.03
    5   10   17     -0.61     -0.56
    4   10   17     -0.31      0.03
    3   10   17     -0.33     -0.27
    2   10   17     -0.11      0.38
    1   10   17      0.87      0.08
    0   10   17     -0.01      0.63
   10   11   17      1.71     -0.96
    9   11   17     -0.75     -0.07
    8   11   17      1.18     -0.24
    7   11   17     -1.19      0.07
    6   11   17     -0.45     -0.26
    5   11   17     -0.80      0.32
    4   11   17     -1.22     -0.26
    3   11   17     -0.42      0.54
    2   11   17     -0.20      0.16
    1   11   17     -0.18      0.66
    0   11   17      0.66      0.01
   11   12   17      1.20     -1.17
   10   12   17     -0.38     -0.10
    9   12   17      1.32     -0.77
    8   12   17     -0.95     -0.02
    7   12   17      0.14     -0.26
    6   12   17     -0.95      0.35
    5   12   17     -1.34     -0.20
    4   12   17     -0.61      0.71
    3   12   17     -1.22      0.14
    2   12   17     -0.38      0.74
    1   12   17     -0.07      0.24
    0   12   17      0.01      0.64
   12   13   17      0.73     -0.55
   11   13   17     -0.06     -0.11
   10   13   17      1.04     -0.93
    9   13   17     -0.39     -0.07
    8   13   17      0.59     -0.49
    7   13   17     -0.69      0.21
    6   13   17     -0.77     -0.20
    5   13   17     -0.59      0.67
    4   13   17     -1.45      0.03
    3   13   17     -0.41      0.84
    2   13   17     -0.74      0.35
    1   13   17     -0.16      0.59
    0   13   17     -0.11      0.00
   11   14   17      0.69     -0.47
   10   14   17      0.07     -0.10
    9   14   17      0.64     -0.55
    8   14   17     -0.23      0.13
    7   14   17     -0.18     -0.24
    6   14   17     -0.45      0.51
    5   14   17     -0.99     -0.06
    4   14   17     -0.36      0.83
    3   14   17     -0.81      0.27
    2   14   17     -0.20      0.65
    1   14   17     -0.18      0.25
    0   14   17      0.04      0.36
    9   15   17      0.17      0.04
    8   15   17      0.10     -0.21
    7   15   17     -0.25      0.38
    6   15   17     -0.49     -0.05
    5   15   17     -0.38      0.71
    4   15   17     -0.46      0.13
    3   15   17     -0.22      0.74
    2   15   17      0.00      0.32
    1   15   17     -0.04      0.36
    0   15   17      0.25      0.00
    7   16   17     -0.23      0.03
    6   16   17     -0.42      0.53
    5   16   17     -0.20      0.09
    4   16   17     -0.35      0.74
    3   16   17      0.26      0.24
    2   16   17     -0.15      0.54
    1   16   17      0.49      0.18
    0   16   17      0.03      0.28
    5   17   17     -0.44      0.55
    4   17   17      0.26      0.15
    3   17   17     -0.28      0.65
    2   17   17      0.58      0.19
    1   17   17     -0.11      0.44
    0   17   17      0.59      0.00
    0    0   18     -1.29     -0.06
    1    1   18     -1.35     -0.05
    0    1   18      0.00      0.13
    2    2   18     -1.58     -0.04
    1    2   18     -0.06      0.34
    0    2   18     -1.33     -0.02
    3    3   18     -1.94     -0.13
    2    3   18     -0.20      0.37
    1    3   18     -1.43     -0.03
    0    3   18      0.00      0.88
    4    4   18     -1.99     -0.40
    3    4   18     -0.26      0.16
    2    4   18     -1.63     -0.14
    1    4   18     -0.32      0.99
    0    4   18     -1.13      0.02
    5    5   18     -1.42     -0.84
    4    5   18     -0.16     -0.17
    3    5   18     -1.58     -0.43
    2    5   18     -0.50      0.52
    1    5   18     -0.87     -0.12
    0    5   18     -0.01      1.20
    6    6   18     -0.53     -1.14
    5    6   18     -0.02     -0.38
    4    6   18     -1.08     -0.86
    3    6   18     -0.32     -0.29
    2    6   18     -0.55     -0.43
    1    6   18     -0.31      0.80
    0    6   18     -0.01      0.01
    7    7   18      0.24     -0.95
    6    7   18     -0.03     -0.36
    5    7   18     -0.39     -1.14
    4    7   18     -0.05     -0.85
    3    7   18     -0.18     -0.79
    2    7   18     -0.24     -0.04
    1    7   18      0.68     -0.26
    0    7   18     -0.03      0.71
    8    8   18      0.91     -0.45
    7    8   18     -0.18     -0.18
    6    8   18      0.17     -0.93
    5    8   18     -0.11     -0.82
    4    8   18      0.01     -0.99
    3    8   18     -0.09     -0.71
    2    8   18      0.91     -0.49
    1    8   18     -0.12      0.26
    0    8   18      1.59     -0.01
    9    9   18      1.55     -0.32
    8    9   18     -0.33     -0.06
    7    9   18      0.69     -0.42
    6    9   18     -0.49     -0.40
    5    9   18     -0.02     -0.78
    4    9   18     -0.27     -0.72
    3    9   18      0.51     -0.56
    2    9   18     -0.19     -0.21
    1    9   18      1.70     -0.12
    0    9   18     -0.02      0.30
   10   10   18      1.78     -0.82
    9   10   18     -0.37     -0.06
    8   10   18      1.29     -0.22
    7   10   18     -0.83     -0.08
    6   10   18      0.11     -0.28
    5   10   18     -0.70     -0.25
    4   10   18     -0.21     -0.38
    3   10   18     -0.47     -0.23
    2   10   18      0.87     -0.05
    1   10   18     -0.21      0.20
    0   10   18      1.68      0.02
   11   11   18      1.28     -1.32
   10   11   18     -0.29     -0.11
    9   11   18      1.57     -0.62
    8   11   18     -0.88     -0.07
    7   11   18      0.58      0.01
    6   11   18     -0.99      0.12
    5   11   18     -0.58     -0.02
    4   11   18     -0.81      0.13
    3   11   18     -0.34      0.11
    2   11   18     -0.53      0.21
    1   11   18      0.75      0.18
    0   11   18      0.01      0.33
   10   12   18      1.18     -1.07
    9   12   18     -0.67     -0.18
    8   12   18      0.96     -0.19
    7   12   18     -0.94      0.15
    6   12   18     -0.32      0.21
    5   12   18     -0.89      0.45
    4   12   18     -1.03      0.25
    3   12   18     -0.72      0.44
    2   12   18     -0.43      0.36
    1   12   18     -0.30      0.35
    0   12   18      0.13      0.02
    9   13   18      0.81     -0.51
    8   13   18     -0.66      0.01
    7   13   18      0.13      0.16
    6   13   18     -0.70      0.48
    5   13   18     -0.91      0.30
    4   13   18     -0.62      0.65
    3   13   18     -1.03      0.40
    2   13   18     -0.43      0.44
    1   13   18     -0.55      0.27
    0   13   18      0.03      0.29
    7   14   18     -0.46      0.35
    6   14   18     -0.46      0.23
    5   14   18     -0.40      0.66
    4   14   18     -0.86      0.28
    3   14   18     -0.31      0.56
    2   14   18     -0.71      0.37
    1   14   18     -0.12      0.28
    0   14   18     -0.54      0.00
    5   15   18     -0.45      0.13
    4   15   18     -0.17      0.56
    3   15   18     -0.35      0.25
    2   15   18     -0.10      0.37
    1   15   18     -0.28      0.20
    0   15   18      0.01      0.22
    0    1   19     -1.42     -0.03
    1    2   19     -1.21      0.29
    0    2   19      0.01      0.78
    2    3   19     -1.21      0.51
    1    3   19     -0.24      1.14
    0    3   19     -0.83      0.01
    3    4   19     -1.45      0.29
    2    4   19     -0.57      0.90
    1    4   19     -0.62      0.23
    0    4   19      0.01      1.69
    4    5   19     -1.41     -0.29
    3    5   19     -0.62      0.27
    2    5   19     -0.68      0.06
    1    5   19     -0.52      1.38
    0    5   19      0.05      0.01
    5    6   19     -0.85     -0.87
    4    6   19     -0.36     -0.34
    3    6   19     -0.66     -0.41
    2    6   19     -0.73      0.47
    1    6   19      0.39     -0.10
    0    6   19     -0.03      1.20
    6    7   19     -0.14     -1.09
    5    7   19     -0.09     -0.56
    4    7   19     -0.36     -0.85
    3    7   19     -0.49     -0.43
    2    7   19      0.48     -0.42
    1    7   19     -0.41      0.51
    0    7   19      1.22     -0.01
    7    8   19      0.37     -0.86
    6    8   19     -0.07     -0.39
    5    8   19      0.01     -0.94
    4    8   19     -0.23     -0.80
    3    8   19      0.43     -0.65
    2    8   19     -0.43     -0.26
    1    8   19      1.48     -0.21
    0    8   19     -0.05      0.29
    8    9   19      0.75     -0.48
    7    9   19     -0.21     -0.14
    6    9   19      0.26     -0.63
    5    9   19     -0.28     -0.56
    4    9   19      0.24     -0.60
    3    9   19     -0.43     -0.62
    2    9   19      1.14     -0.29
    1    9   19     -0.28     -0.05
    0    9   19      1.85      0.00
    8   10   19     -0.32     -0.07
    7   10   19      0.54     -0.19
    6   10   19     -0.48     -0.15
    5   10   19      0.06     -0.25
    4   10   19     -0.60     -0.42
    3   10   19      0.42     -0.17
    2   10   19     -0.53     -0.26
    1   10   19      1.35     -0.01
    0   10   19      0.00      0.01
    7   11   19     -0.55      0.01
    6   11   19      0.13      0.18
    5   11   19     -0.73      0.00
    4   11   19     -0.19      0.09
    3   11   19     -0.77     -0.15
    2   11   19      0.37      0.12
    1   11   19     -0.34     -0.03
    0   11   19      0.86      0.02
    5   12   19     -0.34      0.37
    4   12   19     -0.77      0.15
    3   12   19     -0.42      0.26
    2   12   19     -0.60      0.00
    1   12   19     -0.01      0.15
    0   12   19      0.03      0.00
    3   13   19     -0.53      0.15
    2   13   19     -0.58      0.24
    1   13   19     -0.23      0.00
    0   13   19     -0.45      0.02
    0    0   20     -0.78      0.00
    1    1   20     -0.68      0.27
    0    1   20      0.00      0.22
    2    2   20     -0.60      0.72
    1    2   20     -0.06      0.54
    0    2   20     -0.50      0.00
    3    3   20     -0.84      0.75
    2    3   20     -0.21      0.56
    1    3   20     -0.34      0.46
    0    3   20      0.02      1.30
    4    4   20     -1.10      0.26
    3    4   20     -0.31      0.35
    2    4   20     -0.51      0.55
    1    4   20     -0.35      1.35
    0    4   20      0.11      0.00
    5    5   20     -0.87     -0.42
    4    5   20     -0.25      0.07
    3    5   20     -0.77      0.15
    2    5   20     -0.65      0.82
    1    5   20      0.19      0.18
    0    5   20      0.00      1.40
    6    6   20     -0.27     -0.89
    5    6   20     -0.07     -0.09
    4    6   20     -0.65     -0.42
    3    6   20     -0.56      0.15
    2    6   20      0.00     -0.03
    1    6   20     -0.46      0.84
    0    6   20      0.68      0.00
    7    7   20      0.17     -0.96
    6    7   20      0.05     -0.11
    5    7   20     -0.18     -0.80
    4    7   20     -0.22     -0.26
    3    7   20     -0.07     -0.37
    2    7   20     -0.56      0.12
    1    7   20      0.74     -0.08
    0    7   20     -0.05      0.49
    6    8   20      0.18     -0.81
    5    8   20      0.02     -0.29
    4    8   20      0.06     -0.56
    3    8   20     -0.37     -0.32
    2    8   20      0.57     -0.21
    1    8   20     -0.34      0.06
    0    8   20      1.10      0.00
    4    9   20     -0.24     -0.36
    3    9   20      0.36     -0.25
    2    9   20     -0.44     -0.25
    1    9   20      0.97     -0.06
    0    9   20     -0.03     -0.03
    1   10   20     -0.31     -0.14
    0   10   20      0.91      0.00
    0    1   21      0.03      0.03
    1    2   21      0.01      0.38
    0    2   21      0.01      0.50
    2    3   21     -0.18      0.61
    1    3   21     -0.09      0.70
    0    3   21      0.17     -0.01
    2    4   21     -0.25      0.56
    1    4   21      0.12      0.29
    0    4   21      0.02      0.94
    1    1    0    132.55     -0.02
   19   23    0     -0.02     -0.02
   13   27    0     -0.36      0.00
    7   29    0     -0.51      0.00
    0    1    1    127.28     -0.12
   20   22    1      0.23      0.05
   19   23    1      0.08      0.14
   10   28    1     -0.66      0.04
    0   29    1     -0.44      0.02
    7   29    1      0.63     -0.30
   21   21    2     -0.04     -1.00
   20   22    2      0.00     -0.89
   19   23    2      0.14     -0.61
   16   25    2     -0.15     -0.09
   10   28    2     -0.36     -0.06
    0   29    2      0.00      0.23
    7   29    2     -0.22      0.61
   14   26    3     -0.14     -0.51
   12   27    3     -0.08     -0.54
    0   29    3      0.56      0.03
    6   29    3      0.11      0.46
   17   24    4      0.23      0.12
    9   28    4     -0.60      0.00
    0   29    4      0.02      1.79
    4   29    4      0.57      0.25
    5   29    4      0.19     -0.04
   20   21    5      0.10      0.17
   19   22    5     -0.07      0.19
   13   26    5      0.13      0.08
    8   28    5     -0.53      0.05
    0   29    5      0.76     -0.01
    1   29    5      0.00      1.82
    2   29    5      0.40     -0.46
   17   23    6     -0.53      0.13
   14   25    6      0.02     -0.78
   12   26    6      0.17      0.16
    6   28    6      0.52      0.16
   19   21    7      0.17     -0.01
   15   24    7     -0.41     -0.26
   13   25    7     -0.34     -0.84
   11   26    7     -0.04      0.20
    8   27    7     -0.02      0.19
    3   28    7      0.31      0.08
    4   28    7     -0.46     -0.12
   19   20    8      0.13      0.08
   18   21    8      0.30      0.23
   14   24    8     -0.32     -0.42
   12   25    8     -0.32     -0.53
    6   27    8     -0.22     -0.50
   17   21    9      0.26      0.51
    0   27    9     -0.28      0.01
    1   27    9     -0.02      0.72
    2   27    9      0.18     -0.36
    3   27    9     -0.21      0.37
   16   21   10      0.11      0.52
   13   23   10     -0.06     -0.31
   11   24   10      0.51      0.26
    4   26   10      0.12      0.02
    5   26   10     -0.11      0.14
   17   19   11      0.06      0.18
   16   20   11      0.07      0.29
   13   22   11      0.10     -0.18
   11   23   11      0.11      0.41
    9   24   11     -0.21      0.27
    5   25   11     -0.16      0.18
    6   25   11     -0.99      0.74
   17   18   12      0.03      0.05
   13   21   12      0.09     -0.24
   11   22   12     -0.56      0.35
    9   23   12     -0.81      0.35
    6   24   12     -1.61      0.83
   14   19   13     -0.35     -0.42
   11   21   13     -0.81      0.28
    9   22   13     -0.92     -0.01
    6   23   13     -1.61      0.31
   16   16   14     -0.66      0.45
   15   17   14     -0.68      0.26
   12   19   14     -0.61      0.41
    8   21   14      0.14      0.03
    5   22   14      0.61      0.40
   14   16   15     -0.27      0.10
    7   20   15     -0.71     -0.04
    3   21   15      0.77      0.21
    4   21   15     -0.57      0.18
   14   14   16      0.89      1.06
   13   15   16      0.82      0.81
   10   17   16      0.56     -0.26
    8   18   16     -0.01      0.09
    5   19   16     -0.36      0.29
   10   15   17      0.52     -0.32
    8   16   17     -0.03      0.19
    6   17   17     -0.18      0.13
    0   18   17     -0.01      0.44
    1   18   17      0.44      0.06
    2   18   17     -0.23      0.55
    8   14   18      0.24     -0.03
    6   15   18     -0.29      0.53
    0   16   18      0.11      0.00
    1   16   18     -0.04      0.30
    2   16   18      0.14      0.21
    9   10   19      1.05     -0.40
    8   11   19      0.83     -0.04
    6   12   19     -0.62      0.22
    4   13   19     -0.61      0.33
    7    8   20      0.06     -0.05
    5    9   20      0.19     -0.47
    2   10   20      0.54     -0.05
    3   10   20     -0.53     -0.30
    3    4   21     -0.47      0.42
    0    5   21      0.34     -0.01
    1    5   21     -0.24      0.71
    2    5   21     -0.14      0.24
    3    5   21     -0.27      0.30
    0    0    0      0.00      0.00
# SQUEEZE RESULTS
# Note: Data are Listed for all Voids in the P1 Unit Cell
# i.e. Centre of Gravity, Solvent Accessible Volume,
# Recovered number of Electrons in the Void and
# Details about the Squeezed Material
loop_
  _platon_squeeze_void_nr
  _platon_squeeze_void_average_x
  _platon_squeeze_void_average_y
  _platon_squeeze_void_average_z
  _platon_squeeze_void_volume
  _platon_squeeze_void_count_electrons
  _platon_squeeze_void_content
   1  0.000  0.000  0.000       233        74 ' '
   2  0.500  0.500  0.500       233        74 ' '
# Missing Reflections Below sin(th)/lambda= 0.25
loop_
  _platon_missing_refln_index_h
  _platon_missing_refln_index_k
  _platon_missing_refln_index_l
  _platon_missing_refln_theta
    1    1    0     1.361
    0    1    1     1.656
_platon_squeeze_void_probe_radius                  1.20
_platon_squeeze_details
)
TITL 1         P -4 21 c    R = 0.05
CELL   21.1528   21.1528   15.1147     90.00     90.00     90.00
SPGR P-421c
# Solvent Accessible Volume =     480.4
# Electrons Found in S.A.V. =     147.0
# Note: Atoms in Void as Cxxx and Qxxx all others
C101 0.569 0.535 0.562 !       3.53 eA-3
C102 1.005 0.064 0.932 !       1.60 eA-3
C103 0.500 0.506 0.453 !       1.18 eA-3
Q104 0.060 0.737 0.518 !       0.57 eA-3
Q105 0.251 0.078 0.519 !       0.53 eA-3
C106 0.463 0.429 0.407 !       0.52 eA-3
)
;
_shelx_fab_checksum              99903
loop_
_space_group_symop_operation_xyz
'x, y, z'
'-x, -y, z'
'y, -x, -z'
'-y, x, -z'
'-x+1/2, y+1/2, -z+1/2'
'x+1/2, -y+1/2, -z+1/2'
'-y+1/2, -x+1/2, z+1/2'
'y+1/2, x+1/2, z+1/2'
loop_
_atom_site_label
_atom_site_type_symbol
_atom_site_fract_x
_atom_site_fract_y
_atom_site_fract_z
_atom_site_U_iso_or_equiv
_atom_site_adp_type
_atom_site_occupancy
_atom_site_site_symmetry_order
_atom_site_calc_flag
_atom_site_refinement_flags_posn
_atom_site_refinement_flags_adp
Zn1 Zn 0.76194(2) 0.44244(2) 0.01850(2) 0.02517(9) Uani 1 1 d . .
P1 P 0.69086(4) 0.55765(4) -0.09369(6) 0.0320(2) Uani 1 1 d . .
O1 O 0.71541(9) 0.52528(9) -0.01487(15) 0.0328(5) Uani 1 1 d . .
O2 O 0.74110(12) 0.57248(11) -0.16684(15) 0.0440(6) Uani 1 1 d . .
O3 O 0.64647(12) 0.51456(11) -0.15095(15) 0.0433(7) Uani 1 1 d . .
N1 N 0.70686(12) 0.37775(12) -0.04941(16) 0.0260(6) Uani 1 1 d . .
N2 N 0.82654(11) 0.44073(12) -0.08483(17) 0.0278(6) Uani 1 1 d . .
N3 N 0.83118(12) 0.48229(12) 0.09816(18) 0.0294(6) Uani 1 1 d . .
N4 N 0.71085(12) 0.42053(12) 0.13048(16) 0.0262(6) Uani 1 1 d . .
C1 C 0.64974(15) 0.62955(15) -0.0670(2) 0.0270(8) Uani 1 1 d . .
C2 C 0.65515(13) 0.34427(13) -0.0198(2) 0.0267(7) Uani 1 1 d . .
C3 C 0.63250(16) 0.30369(16) -0.0904(2) 0.0381(9) Uani 1 1 d . .
H3A H 0.5979 0.2751 -0.0872 0.046 Uiso 1 1 calc R U
C4 C 0.66942(16) 0.31393(17) -0.1612(2) 0.0377(9) Uani 1 1 d . .
H4A H 0.6657 0.2940 -0.2172 0.045 Uiso 1 1 calc R U
C5 C 0.71582(15) 0.36067(15) -0.1368(2) 0.0280(8) Uani 1 1 d . .
C6 C 0.76261(15) 0.38273(15) -0.1936(2) 0.0288(7) Uani 1 1 d . .
C7 C 0.75621(15) 0.36540(15) -0.2895(2) 0.0294(8) Uani 1 1 d . .
C8 C 0.71191(18) 0.39595(18) -0.3417(2) 0.0466(10) Uani 1 1 d . .
H8A H 0.6865 0.4283 -0.3165 0.056 Uiso 1 1 calc R U
C9 C 0.70401(18) 0.38021(19) -0.4298(2) 0.0514(11) Uani 1 1 d . .
H9A H 0.6735 0.4020 -0.4645 0.062 Uiso 1 1 calc R U
C10 C 0.74005(17) 0.33325(17) -0.4676(2) 0.0407(9) Uani 1 1 d . .
C11 C 0.73216(19) 0.3133(2) -0.5640(2) 0.0561(11) Uani 1 1 d . .
H11A H 0.7320 0.2670 -0.5679 0.084 Uiso 1 1 calc R U
H11B H 0.7673 0.3301 -0.5991 0.084 Uiso 1 1 calc R U
H11C H 0.6921 0.3298 -0.5870 0.084 Uiso 1 1 calc R U
C12 C 0.78347(17) 0.30337(18) -0.4156(2) 0.0469(10) Uani 1 1 d . .
H12A H 0.8085 0.2708 -0.4409 0.056 Uiso 1 1 calc R U
C13 C 0.79249(16) 0.31873(17) -0.3268(2) 0.0427(10) Uani 1 1 d . .
H13A H 0.8234 0.2972 -0.2926 0.051 Uiso 1 1 calc R U
C14 C 0.81504(15) 0.41967(14) -0.1688(2) 0.0275(8) Uani 1 1 d . .
C15 C 0.86534(15) 0.43933(16) -0.2268(2) 0.0325(8) Uani 1 1 d . .
H15A H 0.8689 0.4307 -0.2883 0.039 Uiso 1 1 calc R U
C16 C 0.90652(16) 0.47243(16) -0.1765(2) 0.0350(9) Uani 1 1 d . .
H16A H 0.9447 0.4914 -0.1963 0.042 Uiso 1 1 calc R U
C17 C 0.88220(15) 0.47380(15) -0.0883(2) 0.0310(8) Uani 1 1 d . .
C18 C 0.90938(14) 0.50456(14) -0.0170(2) 0.0340(8) Uani 1 1 d . .
H18A H 0.9480 0.5260 -0.0285 0.041 Uiso 1 1 calc R U
C19 C 0.88711(16) 0.50783(16) 0.0691(2) 0.0335(9) Uani 1 1 d . .
C20 C 0.91761(16) 0.54070(16) 0.1405(2) 0.0399(9) Uani 1 1 d . .
H20A H 0.9568 0.5626 0.1379 0.048 Uiso 1 1 calc R U
C21 C 0.88003(16) 0.53447(16) 0.2119(2) 0.0394(9) Uani 1 1 d . .
H21A H 0.8878 0.5511 0.2693 0.047 Uiso 1 1 calc R U
C22 C 0.82577(15) 0.49783(15) 0.1852(2) 0.0297(8) Uani 1 1 d . .
C23 C 0.77455(16) 0.48083(15) 0.2395(2) 0.0300(8) Uani 1 1 d . .
C24 C 0.77612(16) 0.50217(16) 0.3348(2) 0.0338(8) Uani 1 1 d . .
C25 C 0.73560(18) 0.54737(17) 0.3661(2) 0.0442(9) Uani 1 1 d . .
H25A H 0.7061 0.5661 0.3265 0.053 Uiso 1 1 calc R U
C26 C 0.73628(19) 0.56657(18) 0.4534(2) 0.0521(11) Uani 1 1 d . .
H26A H 0.7077 0.5984 0.4726 0.063 Uiso 1 1 calc R U
C27 C 0.77804(18) 0.53999(18) 0.5130(2) 0.0500(10) Uani 1 1 d . .
C28 C 0.7789(2) 0.5597(2) 0.6094(2) 0.0749(14) Uani 1 1 d . .
H28A H 0.7899 0.5232 0.6463 0.112 Uiso 1 1 calc R U
H28B H 0.7371 0.5754 0.6263 0.112 Uiso 1 1 calc R U
H28C H 0.8103 0.5932 0.6179 0.112 Uiso 1 1 calc R U
C29 C 0.81857(18) 0.49383(18) 0.4818(3) 0.0535(10) Uani 1 1 d . .
H29A H 0.8472 0.4744 0.5218 0.064 Uiso 1 1 calc R U
C30 C 0.81873(17) 0.47517(18) 0.3947(2) 0.0442(10) Uani 1 1 d . .
H30A H 0.8478 0.4439 0.3752 0.053 Uiso 1 1 calc R U
C31 C 0.72266(14) 0.44496(16) 0.21431(19) 0.0273(7) Uani 1 1 d . .
C32 C 0.67425(16) 0.42339(16) 0.2739(2) 0.0348(9) Uani 1 1 d . .
H32A H 0.6708 0.4335 0.3349 0.042 Uiso 1 1 calc R U
C33 C 0.63482(16) 0.38640(16) 0.2275(2) 0.0360(9) Uani 1 1 d . .
H33A H 0.5988 0.3649 0.2500 0.043 Uiso 1 1 calc R U
C34 C 0.65736(15) 0.38525(15) 0.1365(2) 0.0280(8) Uani 1 1 d . .
C35 C 0.7946(2) 0.6123(3) -0.1444(4) 0.097(2) Uani 1 1 d . .
H35A H 0.7917 0.6238 -0.0811 0.116 Uiso 1 1 calc R U
H35B H 0.8339 0.5876 -0.1526 0.116 Uiso 1 1 calc R U
C36 C 0.7986(3) 0.6663(3) -0.1933(4) 0.106(2) Uani 1 1 d . .
H36A H 0.8341 0.6919 -0.1721 0.159 Uiso 1 1 calc R U
H36B H 0.7592 0.6904 -0.1874 0.159 Uiso 1 1 calc R U
H36C H 0.8053 0.6555 -0.2557 0.159 Uiso 1 1 calc R U
C37 C 0.59194(18) 0.4857(2) -0.1100(3) 0.0597(12) Uani 1 1 d . .
H37A H 0.5618 0.5185 -0.0901 0.072 Uiso 1 1 calc R U
H37B H 0.6049 0.4603 -0.0581 0.072 Uiso 1 1 calc R U
C38 C 0.5614(2) 0.4434(2) -0.1800(4) 0.0977(19) Uani 1 1 d . .
H38A H 0.5294 0.4165 -0.1520 0.147 Uiso 1 1 calc R U
H38B H 0.5938 0.4168 -0.2075 0.147 Uiso 1 1 calc R U
H38C H 0.5413 0.4698 -0.2253 0.147 Uiso 1 1 calc R U
loop_
_atom_site_aniso_label
_atom_site_aniso_U_11
_atom_site_aniso_U_22
_atom_site_aniso_U_33
_atom_site_aniso_U_23
_atom_site_aniso_U_13
_atom_site_aniso_U_12
Zn1 0.02305(19) 0.02600(19) 0.02646(17) -0.00009(18) -0.00060(17) -0.00095(15)
P1 0.0353(5) 0.0290(5) 0.0315(5) -0.0015(4) -0.0005(4) 0.0067(4)
O1 0.0381(13) 0.0287(12) 0.0318(12) -0.0009(11) 0.0011(11) 0.0084(10)
O2 0.0458(16) 0.0424(16) 0.0438(14) 0.0038(12) 0.0143(12) 0.0096(13)
O3 0.0512(17) 0.0301(14) 0.0486(17) -0.0060(12) -0.0123(13) 0.0069(13)
N1 0.0263(15) 0.0306(15) 0.0212(15) -0.0005(12) 0.0014(11) -0.0003(12)
N2 0.0256(15) 0.0281(15) 0.0298(16) -0.0009(13) 0.0034(12) -0.0003(13)
N3 0.0220(15) 0.0326(16) 0.0337(17) -0.0027(13) -0.0030(13) 0.0006(12)
N4 0.0268(15) 0.0281(16) 0.0237(15) -0.0024(11) -0.0001(12) -0.0034(12)
C1 0.0283(19) 0.0264(19) 0.0263(19) 0.0012(14) 0.0000(15) 0.0027(15)
C2 0.0251(17) 0.0252(17) 0.0299(17) -0.0013(16) -0.0016(17) -0.0017(13)
C3 0.036(2) 0.038(2) 0.041(2) -0.0080(18) 0.0032(18) -0.0129(17)
C4 0.037(2) 0.050(2) 0.025(2) -0.0123(17) -0.0010(16) -0.0054(18)
C5 0.0252(18) 0.0293(19) 0.0294(19) -0.0023(15) -0.0010(15) 0.0018(15)
C6 0.0284(18) 0.0326(19) 0.0253(18) -0.0005(14) 0.0025(15) 0.0048(16)
C7 0.0261(19) 0.035(2) 0.0268(18) -0.0001(15) 0.0077(15) -0.0040(16)
C8 0.052(3) 0.050(3) 0.037(2) -0.0048(19) -0.0019(19) 0.017(2)
C9 0.058(3) 0.062(3) 0.034(2) -0.002(2) -0.0083(19) 0.018(2)
C10 0.039(2) 0.053(2) 0.030(2) 0.0032(18) 0.0009(18) -0.0015(19)
C11 0.063(3) 0.073(3) 0.031(2) -0.009(2) 0.000(2) 0.009(3)
C12 0.046(2) 0.052(3) 0.043(2) -0.015(2) 0.0107(19) 0.012(2)
C13 0.041(2) 0.054(3) 0.032(2) -0.0035(19) -0.0012(17) 0.010(2)
C14 0.0259(19) 0.0279(19) 0.0288(19) 0.0034(14) 0.0023(15) 0.0050(15)
C15 0.031(2) 0.035(2) 0.0311(19) 0.0066(17) 0.0066(15) 0.0036(17)
C16 0.028(2) 0.037(2) 0.040(2) 0.0055(17) 0.0080(17) 0.0011(16)
C17 0.0236(19) 0.033(2) 0.037(2) 0.0034(17) 0.0023(16) 0.0023(15)
C18 0.0220(17) 0.0346(19) 0.045(2) 0.0041(19) -0.0011(18) -0.0050(14)
C19 0.023(2) 0.037(2) 0.041(2) -0.0009(17) -0.0013(16) -0.0010(16)
C20 0.031(2) 0.042(2) 0.047(2) -0.0016(18) -0.0061(17) -0.0115(17)
C21 0.034(2) 0.044(2) 0.040(2) -0.0038(18) -0.0082(17) -0.0087(18)
C22 0.027(2) 0.031(2) 0.032(2) -0.0009(15) -0.0063(15) -0.0003(15)
C23 0.035(2) 0.0284(19) 0.0269(19) -0.0005(14) -0.0035(16) 0.0012(16)
C24 0.037(2) 0.034(2) 0.031(2) -0.0051(16) -0.0038(16) -0.0095(17)
C25 0.055(2) 0.041(2) 0.037(2) -0.0049(18) -0.0094(18) 0.009(2)
C26 0.064(3) 0.047(2) 0.046(2) -0.011(2) -0.002(2) 0.009(2)
C27 0.053(2) 0.064(3) 0.034(2) -0.014(2) -0.004(2) 0.000(2)
C28 0.082(3) 0.099(4) 0.043(3) -0.024(3) -0.008(2) 0.010(3)
C29 0.053(2) 0.077(3) 0.030(2) -0.005(2) -0.018(2) 0.005(2)
C30 0.040(2) 0.058(3) 0.034(2) -0.0092(19) -0.0068(18) 0.009(2)
C31 0.0270(18) 0.0305(18) 0.0243(17) -0.0029(16) -0.0028(13) 0.0013(16)
C32 0.040(2) 0.043(2) 0.0209(18) -0.0010(15) -0.0005(16) -0.0054(18)
C33 0.033(2) 0.042(2) 0.033(2) -0.0015(17) 0.0049(16) -0.0106(17)
C34 0.0261(19) 0.032(2) 0.0262(19) 0.0021(15) -0.0021(15) -0.0008(16)
C35 0.059(4) 0.107(5) 0.124(5) 0.061(4) 0.035(3) 0.012(3)
C36 0.121(5) 0.088(4) 0.110(5) -0.008(4) -0.015(4) -0.006(4)
C37 0.036(2) 0.049(3) 0.094(4) -0.007(3) -0.015(2) 0.000(2)
C38 0.053(3) 0.071(3) 0.169(5) -0.052(4) -0.026(3) 0.010(3)
loop_
_atom_type_symbol
_atom_type_description
_atom_type_scat_dispersion_real
_atom_type_scat_dispersion_imag
_atom_type_scat_source
C C 0.0033 0.0016 'International Tables Vol C Tables 4.2.6.8 and 6.1.1.4'
H H 0.0000 0.0000 'International Tables Vol C Tables 4.2.6.8 and 6.1.1.4'
N N 0.0061 0.0033 'International Tables Vol C Tables 4.2.6.8 and 6.1.1.4'
O O 0.0106 0.0060 'International Tables Vol C Tables 4.2.6.8 and 6.1.1.4'
P P 0.1023 0.0942 'International Tables Vol C Tables 4.2.6.8 and 6.1.1.4'
Zn Zn 0.2839 1.4301 'International Tables Vol C Tables 4.2.6.8 and 6.1.1.4'
loop_
_geom_angle_atom_site_label_1
_geom_angle_atom_site_label_2
_geom_angle_atom_site_label_3
_geom_angle
_geom_angle_site_symmetry_1
_geom_angle_site_symmetry_3
N4 Zn1 N1 87.90(10) . .
N4 Zn1 O1 98.10(9) . .
N1 Zn1 O1 99.85(9) . .
N4 Zn1 N3 89.13(10) . .
N1 Zn1 N3 162.51(10) . .
O1 Zn1 N3 97.64(9) . .
N4 Zn1 N2 163.60(10) . .
N1 Zn1 N2 89.20(10) . .
O1 Zn1 N2 98.30(9) . .
N3 Zn1 N2 88.80(10) . .
O1 P1 O2 115.24(13) . .
O1 P1 O3 112.83(13) . .
O2 P1 O3 97.65(14) . .
O1 P1 C1 112.54(13) . .
O2 P1 C1 108.52(14) . .
O3 P1 C1 109.01(14) . .
P1 O1 Zn1 139.42(13) . .
C35 O2 P1 118.7(3) . .
C37 O3 P1 119.2(2) . .
C2 N1 C5 106.6(3) . .
C2 N1 Zn1 128.7(2) . .
C5 N1 Zn1 124.7(2) . .
C14 N2 C17 106.5(3) . .
C14 N2 Zn1 126.0(2) . .
C17 N2 Zn1 125.8(2) . .
C22 N3 C19 106.6(3) . .
C22 N3 Zn1 126.9(2) . .
C19 N3 Zn1 125.6(2) . .
C34 N4 C31 107.0(2) . .
C34 N4 Zn1 128.0(2) . .
C31 N4 Zn1 124.8(2) . .
C34 C1 C2 124.9(3) 4_655 4_655
C34 C1 P1 116.0(2) 4_655 .
C2 C1 P1 119.0(2) 4_655 .
N1 C2 C1 123.7(3) . 3_565
N1 C2 C3 109.1(3) . .
C1 C2 C3 127.2(3) 3_565 .
C4 C3 C2 107.4(3) . .
C3 C4 C5 107.7(3) . .
N1 C5 C6 126.9(3) . .
N1 C5 C4 109.3(3) . .
C6 C5 C4 123.8(3) . .
C5 C6 C14 125.6(3) . .
C5 C6 C7 116.8(3) . .
C14 C6 C7 117.6(3) . .
C13 C7 C8 118.7(3) . .
C13 C7 C6 121.5(3) . .
C8 C7 C6 119.8(3) . .
C9 C8 C7 121.2(4) . .
C10 C9 C8 120.4(4) . .
C12 C10 C9 117.9(3) . .
C12 C10 C11 119.7(4) . .
C9 C10 C11 122.4(3) . .
C10 C12 C13 122.6(3) . .
C7 C13 C12 119.2(3) . .
N2 C14 C6 124.6(3) . .
N2 C14 C15 109.8(3) . .
C6 C14 C15 125.5(3) . .
C16 C15 C14 106.5(3) . .
C15 C16 C17 107.6(3) . .
N2 C17 C18 124.5(3) . .
N2 C17 C16 109.5(3) . .
C18 C17 C16 125.9(3) . .
C17 C18 C19 127.9(3) . .
N3 C19 C18 125.0(3) . .
N3 C19 C20 109.7(3) . .
C18 C19 C20 125.3(3) . .
C21 C20 C19 106.8(3) . .
C20 C21 C22 107.3(3) . .
N3 C22 C23 124.6(3) . .
N3 C22 C21 109.5(3) . .
C23 C22 C21 126.0(3) . .
C31 C23 C22 126.1(3) . .
C31 C23 C24 116.2(3) . .
C22 C23 C24 117.6(3) . .
C25 C24 C30 117.7(3) . .
C25 C24 C23 121.6(3) . .
C30 C24 C23 120.7(3) . .
C24 C25 C26 121.9(4) . .
C25 C26 C27 120.7(4) . .
C26 C27 C29 117.4(3) . .
C26 C27 C28 121.5(3) . .
C29 C27 C28 121.0(4) . .
C30 C29 C27 122.1(4) . .
C29 C30 C24 120.1(3) . .
C23 C31 N4 126.5(3) . .
C23 C31 C32 124.4(3) . .
N4 C31 C32 108.9(3) . .
C33 C32 C31 107.5(3) . .
C32 C33 C34 107.4(3) . .
N4 C34 C1 125.8(3) . 3_565
N4 C34 C33 109.1(3) . .
C1 C34 C33 125.1(3) 3_565 .
C36 C35 O2 114.1(5) . .
O3 C37 C38 106.8(4) . .
loop_
_geom_bond_atom_site_label_1
_geom_bond_atom_site_label_2
_geom_bond_distance
_geom_bond_site_symmetry_2
Zn1 N4 2.061(2) .
Zn1 N1 2.070(3) .
Zn1 O1 2.0722(19) .
Zn1 N3 2.075(3) .
Zn1 N2 2.075(2) .
P1 O1 1.469(2) .
P1 O2 1.565(2) .
P1 O3 1.569(2) .
P1 C1 1.798(3) .
O2 C35 1.450(5) .
O3 C37 1.444(4) .
N1 C2 1.378(4) .
N1 C5 1.382(4) .
N2 C14 1.367(4) .
N2 C17 1.370(4) .
N3 C22 1.361(4) .
N3 C19 1.373(4) .
N4 C34 1.358(4) .
N4 C31 1.391(4) .
C1 C34 1.413(4) 4_655
C1 C2 1.425(4) 4_655
C2 C1 1.425(4) 3_565
C2 C3 1.451(4) .
C3 C4 1.342(4) .
C4 C5 1.441(4) .
C5 C6 1.391(4) .
C6 C14 1.408(4) .
C6 C7 1.500(4) .
C7 C13 1.372(4) .
C7 C8 1.385(5) .
C8 C9 1.383(5) .
C9 C10 1.376(5) .
C10 C12 1.364(5) .
C10 C11 1.527(4) .
C12 C13 1.394(4) .
C14 C15 1.439(4) .
C15 C16 1.351(4) .
C16 C17 1.429(4) .
C17 C18 1.384(4) .
C18 C19 1.386(4) .
C19 C20 1.437(4) .
C20 C21 1.346(4) .
C21 C22 1.443(4) .
C22 C23 1.406(4) .
C23 C31 1.387(4) .
C23 C24 1.510(4) .
C24 C25 1.368(5) .
C24 C30 1.400(5) .
C25 C26 1.381(4) .
C26 C27 1.382(5) .
C27 C29 1.383(5) .
C27 C28 1.516(5) .
C29 C30 1.373(5) .
C31 C32 1.438(4) .
C32 C33 1.341(4) .
C33 C34 1.457(4) .
C34 C1 1.413(4) 3_565
C35 C36 1.365(6) .
C37 C38 1.528(5) .
