#------------------------------------------------------------------------------
#$Date: 2019-11-08 00:08:20 +0200 (Fri, 08 Nov 2019) $
#$Revision: 224192 $
#$URL: file:///home/coder/svn-repositories/cod/cif/7/04/94/7049445.cif $
#------------------------------------------------------------------------------
#
# This file is available in the Crystallography Open Database (COD),
# http://www.crystallography.net/
#
# All data on this site have been placed in the public domain by the
# contributors.
#
data_7049445
loop_
_publ_author_name
'Nefedov, Sergey E.'
'Birin, Kirill P.'
'Bessmertnykh-Lemeune, Alla'
'Enakieva, Yulia Y.'
'Sinelshchikova, Anna A.'
'Gorbunova, Yulia G.'
'Tsivadze, Aslan Y.'
'Stern, Christine'
'Fang, Yuanyuan'
'Kadish, Karl M.'
_publ_section_title
;
 Coordination self-assembly through weak interactions in
 meso-dialkoxyphosphoryl-substituted zinc porphyrinates.
;
_journal_issue                   16
_journal_name_full
'Dalton transactions (Cambridge, England : 2003)'
_journal_page_first              5372
_journal_page_last               5383
_journal_paper_doi               10.1039/c9dt00706g
_journal_volume                  48
_journal_year                    2019
_chemical_formula_sum            'C152 H140 N16 O20 P4 Zn4'
_chemical_formula_weight         2896.15
_space_group_crystal_system      tetragonal
_space_group_IT_number           114
_space_group_name_Hall           'P -4 2n'
_space_group_name_H-M_alt        'P -4 21 c'
_symmetry_space_group_name_Hall  'P -4 2n'
_symmetry_space_group_name_H-M   'P -4 21 c'
_atom_sites_solution_hydrogens   geom
_audit_creation_method           SHELXL-2014/7
_audit_update_record
;
2018-05-23 deposited with the CCDC.    2019-03-25 downloaded from the CCDC.
;
_cell_angle_alpha                90
_cell_angle_beta                 90
_cell_angle_gamma                90
_cell_formula_units_Z            2
_cell_length_a                   20.973(4)
_cell_length_b                   20.973(4)
_cell_length_c                   15.568(4)
_cell_measurement_reflns_used    3209
_cell_measurement_temperature    150(2)
_cell_measurement_theta_max      26.40
_cell_measurement_theta_min      2.25
_cell_volume                     6848(3)
_computing_structure_refinement  'SHELXL-2014/7 (Sheldrick, 2014)'
_diffrn_ambient_temperature      150(2)
_diffrn_measured_fraction_theta_full 0.998
_diffrn_measured_fraction_theta_max 0.998
_diffrn_measurement_device_type  'Bruker APEX-II CCD'
_diffrn_measurement_method       '\f and \w scans'
_diffrn_radiation_type           MoK\a
_diffrn_radiation_wavelength     0.71073
_diffrn_reflns_av_R_equivalents  0.2027
_diffrn_reflns_av_unetI/netI     0.1346
_diffrn_reflns_Laue_measured_fraction_full 0.998
_diffrn_reflns_Laue_measured_fraction_max 0.998
_diffrn_reflns_limit_h_max       26
_diffrn_reflns_limit_h_min       -25
_diffrn_reflns_limit_k_max       26
_diffrn_reflns_limit_k_min       -26
_diffrn_reflns_limit_l_max       19
_diffrn_reflns_limit_l_min       -19
_diffrn_reflns_number            52423
_diffrn_reflns_point_group_measured_fraction_full 0.999
_diffrn_reflns_point_group_measured_fraction_max 0.999
_diffrn_reflns_theta_full        25.242
_diffrn_reflns_theta_max         27.000
_diffrn_reflns_theta_min         2.342
_exptl_absorpt_coefficient_mu    0.814
_exptl_absorpt_correction_T_max  0.812
_exptl_absorpt_correction_T_min  0.748
_exptl_absorpt_correction_type   multi-scan
_exptl_absorpt_process_details   sadabs
_exptl_crystal_colour            purple
_exptl_crystal_density_diffrn    1.405
_exptl_crystal_description       prizm
_exptl_crystal_F_000             3008
_exptl_crystal_size_max          0.220
_exptl_crystal_size_mid          0.200
_exptl_crystal_size_min          0.180
_refine_diff_density_max         1.188
_refine_diff_density_min         -0.574
_refine_diff_density_rms         0.104
_refine_ls_abs_structure_details
;
 Refined as an inversion twin.
;
_refine_ls_abs_structure_Flack   0.07(4)
_refine_ls_extinction_method     none
_refine_ls_goodness_of_fit_ref   1.088
_refine_ls_hydrogen_treatment    constr
_refine_ls_matrix_type           full
_refine_ls_number_parameters     435
_refine_ls_number_reflns         7469
_refine_ls_number_restraints     0
_refine_ls_restrained_S_all      1.088
_refine_ls_R_factor_all          0.1645
_refine_ls_R_factor_gt           0.0872
_refine_ls_shift/su_max          0.001
_refine_ls_shift/su_mean         0.000
_refine_ls_structure_factor_coef Fsqd
_refine_ls_weighting_details
'w=1/[\s^2^(Fo^2^)+(0.1159P)^2^] where P=(Fo^2^+2Fc^2^)/3'
_refine_ls_weighting_scheme      calc
_refine_ls_wR_factor_gt          0.2020
_refine_ls_wR_factor_ref         0.2377
_reflns_Friedel_coverage         0.832
_reflns_Friedel_fraction_full    1.000
_reflns_Friedel_fraction_max     1.000
_reflns_number_gt                4099
_reflns_number_total             7469
_reflns_threshold_expression     'I > 2\s(I)'
_cod_data_source_file            c9dt00706g2.cif
_cod_data_source_block           mZn4ome
_cod_depositor_comments
'Adding full bibliography for 7049441--7049445.cif.'
_cod_database_code               7049445
_shelx_shelxl_version_number     2014/7
_shelx_space_group_comment
;
The symmetry employed for this shelxl refinement is uniquely defined
by the following loop, which should always be used as a source of
symmetry information in preference to the above space-group names.
They are only intended as comments.
;
_shelx_estimated_absorpt_t_min   0.841
_shelx_estimated_absorpt_t_max   0.867
_shelx_res_file
;

    1_sq.res created by SHELXL-2014/7


TITL 1 in P-42(1)c
CELL 0.71073  20.9735  20.9735  15.5680  90.000  90.000  90.000
ZERR    2.00   0.0038   0.0038   0.0040   0.000   0.000   0.000
LATT -1
SYMM -X, -Y, Z
SYMM Y, -X, -Z
SYMM -Y, X, -Z
SYMM 0.5-X, 0.5+Y, 0.5-Z
SYMM 0.5+X, 0.5-Y, 0.5-Z
SYMM 0.5-Y, 0.5-X, 0.5+Z
SYMM 0.5+Y, 0.5+X, 0.5+Z
SFAC C H N O P ZN
UNIT 304 280 32 40 8 8

TEMP -123.000
size 0.22 0.2 0.18
omit -3 54
omit 0   1   1
omit 1   1   0
omit 0   2   0
omit 0   3   1
omit 1   3   0
omit 0   2   2
omit 1   2   0
acta
twin
L.S. 15 0   22
BOND
FMAP 2
PLAN 20
eadp o4 o5
eadp c35 c36
abin
WGHT    0.115900
BASF   0.07120
FVAR       0.06545
ZN1   6    0.264812    0.058553    0.011900    11.00000    0.05144    0.05025 =
         0.01610    0.00150    0.00193    0.01224
P1    5    0.195460   -0.062168   -0.084956    11.00000    0.06617    0.06811 =
         0.02293    0.00568   -0.00224   -0.02818
O1    4    0.218038   -0.027585   -0.009817    11.00000    0.06777    0.06856 =
         0.02259    0.00107    0.00281   -0.01696
O2    4    0.153122   -0.019479   -0.144651    11.00000    0.07555    0.07189 =
         0.03517    0.00851   -0.00724   -0.02676
O3    4    0.248147   -0.079096   -0.150286    11.00000    0.08022    0.05403 =
         0.02559   -0.00110    0.00628   -0.01331
O4    4    0.203371    0.155409   -0.547465    11.00000    0.11158    0.10789 =
         0.01452    0.01758    0.00344    0.00557
O5    4    0.296987   -0.025687    0.583844    11.00000    0.11158    0.10789 =
         0.01452    0.01758    0.00344    0.00557
N1    3    0.327160    0.056351   -0.092751    11.00000    0.05279    0.05124 =
         0.02091    0.00349    0.00037    0.00533
N2    3    0.334981    0.020183    0.086863    11.00000    0.07074    0.06142 =
         0.01401    0.00952   -0.00765   -0.00750
N3    3    0.217154    0.086301    0.121079    11.00000    0.05273    0.04902 =
         0.01788    0.00726    0.00146    0.02994
N4    3    0.209260    0.122262   -0.056649    11.00000    0.05804    0.06079 =
         0.01348    0.00266    0.00099    0.01176
C1    1    0.381509    0.020554   -0.096652    11.00000    0.04844    0.03600 =
         0.02047   -0.00342    0.00471    0.00410
C2    1    0.403066    0.014630   -0.183052    11.00000    0.04782    0.03867 =
         0.03761   -0.00453    0.01172   -0.00463
AFIX  23
H2A   2    0.446048    0.033540   -0.189520    11.00000   -1.20000
H2B   2    0.405048   -0.030805   -0.200080    11.00000   -1.20000
AFIX   0
C3    1    0.359480    0.046911   -0.232918    11.00000    0.05624    0.03924 =
         0.02039   -0.00258    0.00980    0.01094
AFIX  23
H3A   2    0.339722    0.017609   -0.275072    11.00000   -1.20000
H3B   2    0.380734    0.081875   -0.264625    11.00000   -1.20000
AFIX   0
C4    1    0.310899    0.072729   -0.175026    11.00000    0.05275    0.02724 =
         0.02982   -0.00335    0.00907    0.00296
C5    1    0.261589    0.109441   -0.198373    11.00000    0.04340    0.03207 =
         0.02979   -0.00145    0.00607   -0.00569
C6    1    0.249421    0.120992   -0.293061    11.00000    0.04490    0.08969 =
         0.02472    0.00425    0.00458    0.01171
C7    1    0.288034    0.161562   -0.337990    11.00000    0.05530    0.07685 =
         0.02866    0.00119   -0.00042    0.00685
AFIX  43
H7A   2    0.324072    0.180556   -0.311309    11.00000   -1.20000
AFIX   0
C8    1    0.273193    0.174965   -0.426152    11.00000    0.06989    0.08254 =
         0.03143    0.01261    0.00480   -0.00685
AFIX  43
H8A   2    0.298970    0.203802   -0.457908    11.00000   -1.20000
AFIX   0
C9    1    0.222518    0.146588   -0.464172    11.00000    0.06793    0.08711 =
         0.01656   -0.00105    0.00030    0.00284
C10   1    0.243696    0.198076   -0.597568    11.00000    0.13288    0.13152 =
         0.02987    0.02230   -0.01318   -0.03760
AFIX 137
H10A  2    0.226651    0.201770   -0.655968    11.00000   -1.50000
H10B  2    0.287111    0.180891   -0.599921    11.00000   -1.50000
H10C  2    0.244438    0.240256   -0.570502    11.00000   -1.50000
AFIX   0
C11   1    0.184199    0.103992   -0.419938    11.00000    0.07248    0.10397 =
         0.03410    0.01079   -0.02270   -0.01538
AFIX  43
H11A  2    0.149868    0.082666   -0.447492    11.00000   -1.20000
AFIX   0
C12   1    0.197775    0.093710   -0.334367    11.00000    0.07607    0.07741 =
         0.03784    0.00066    0.00628   -0.01423
AFIX  43
H12A  2    0.170376    0.066622   -0.302280    11.00000   -1.20000
AFIX   0
C13   1    0.213640    0.136305   -0.142826    11.00000    0.05905    0.06039 =
         0.02482    0.00261    0.00878   -0.00146
C14   1    0.167338    0.180571   -0.166946    11.00000    0.07053    0.09385 =
         0.02544    0.01741    0.01059    0.04176
AFIX  43
H14A  2    0.161059    0.197926   -0.222673    11.00000   -1.20000
AFIX   0
C15   1    0.134394    0.193474   -0.098200    11.00000    0.07313    0.10707 =
         0.03578    0.02236    0.00520    0.04519
AFIX  43
H15A  2    0.100005    0.222867   -0.095143    11.00000   -1.20000
AFIX   0
C16   1    0.158307    0.156171   -0.027558    11.00000    0.08391    0.07335 =
         0.01889    0.00933    0.00557    0.04063
C17   1    0.155237   -0.132656   -0.058746    11.00000    0.10230    0.09355 =
         0.01709    0.00420   -0.01153   -0.06907
C18   1    0.162618    0.119086    0.127480    11.00000    0.08021    0.09669 =
         0.01170    0.01090   -0.00068    0.02839
C19   1    0.140312    0.123142    0.216786    11.00000    0.08067    0.08309 =
         0.02725    0.00213    0.00723    0.05181
AFIX  43
H19A  2    0.104090    0.145399    0.237842    11.00000   -1.20000
AFIX   0
C20   1    0.182251    0.088573    0.262015    11.00000    0.10841    0.09000 =
         0.02240    0.00335   -0.00228    0.04939
AFIX  43
H20A  2    0.180476    0.080962    0.322122    11.00000   -1.20000
AFIX   0
C21   1    0.230809    0.064696    0.203999    11.00000    0.05627    0.05730 =
         0.01683   -0.00251    0.00576    0.01169
C22   1    0.281897    0.025592    0.226067    11.00000    0.06401    0.06028 =
         0.02578    0.00159   -0.00166    0.00486
C23   1    0.284908    0.007238    0.321386    11.00000    0.05968    0.04984 =
         0.01582    0.00876    0.00100    0.00287
C24   1    0.243018   -0.033055    0.357156    11.00000    0.06266    0.05225 =
         0.03401    0.00503   -0.00699   -0.00752
AFIX  43
H24A  2    0.211112   -0.052341    0.322501    11.00000   -1.20000
AFIX   0
C25   1    0.245718   -0.046931    0.444270    11.00000    0.11096    0.07585 =
         0.01888    0.00363    0.00633   -0.02593
AFIX  43
H25A  2    0.216118   -0.075861    0.469058    11.00000   -1.20000
AFIX   0
C26   1    0.291136   -0.018739    0.493899    11.00000    0.05943    0.06836 =
         0.01985    0.00354   -0.00111   -0.00022
C27   1    0.250949   -0.066536    0.622621    11.00000    0.14092    0.13942 =
         0.01754    0.01269    0.00708   -0.03176
AFIX 137
H27A  2    0.254447   -0.063617    0.685271    11.00000   -1.50000
H27B  2    0.258654   -0.110612    0.604484    11.00000   -1.50000
H27C  2    0.208088   -0.053470    0.604776    11.00000   -1.50000
AFIX   0
C28   1    0.333805    0.026526    0.458771    11.00000    0.08417    0.09619 =
         0.01351   -0.00030   -0.01141   -0.00806
AFIX  43
H28A  2    0.363354    0.048931    0.493814    11.00000   -1.20000
AFIX   0
C29   1    0.330574    0.036630    0.371588    11.00000    0.05200    0.12198 =
         0.02225    0.01355   -0.00278   -0.00539
AFIX  43
H29A  2    0.360466    0.064493    0.345262    11.00000   -1.20000
AFIX   0
C30   1    0.330596    0.005549    0.174838    11.00000    0.03622    0.04942 =
         0.02098    0.00775   -0.00466    0.01378
C31   1    0.381164   -0.035042    0.197227    11.00000    0.06536    0.07053 =
         0.02700    0.00319    0.00726    0.01196
AFIX  43
H31A  2    0.388366   -0.052678    0.252590    11.00000   -1.20000
AFIX   0
C32   1    0.418446   -0.045078    0.126201    11.00000    0.03918    0.10549 =
         0.03267    0.02023    0.00061    0.01943
AFIX  43
H32A  2    0.456380   -0.069662    0.122314    11.00000   -1.20000
AFIX   0
C33   1    0.387938   -0.010829    0.060439    11.00000    0.03040    0.06478 =
         0.04082    0.00124    0.00191    0.01244
C34   1    0.410332   -0.009019   -0.026813    11.00000    0.05637    0.05534 =
         0.02814   -0.00769    0.00105   -0.01358
AFIX  43
H34A  2    0.449324   -0.030514   -0.038029    11.00000   -1.20000
AFIX   0
C35   1    0.093847    0.012047   -0.104054    11.00000    0.06119    0.11836 =
         0.13047    0.03742   -0.01111   -0.00941
AFIX  23
H35A  2    0.063156   -0.020776   -0.084587    11.00000   -1.20000
H35B  2    0.106204    0.038575   -0.054159    11.00000   -1.20000
AFIX   0
C36   1    0.064612    0.053048   -0.174138    11.00000    0.06119    0.11836 =
         0.13047    0.03742   -0.01111   -0.00941
AFIX 137
H36A  2    0.020553    0.063622   -0.158757    11.00000   -1.50000
H36B  2    0.065028    0.029584   -0.228572    11.00000   -1.50000
H36C  2    0.089386    0.092399   -0.180315    11.00000   -1.50000
AFIX   0
C37   1    0.298089   -0.124544   -0.126168    11.00000    0.08836    0.08077 =
         0.05725   -0.02215    0.02166   -0.05757
AFIX  23
H37A  2    0.289658   -0.140052   -0.067189    11.00000   -1.20000
H37B  2    0.339657   -0.102184   -0.125584    11.00000   -1.20000
AFIX   0
C38   1    0.302422   -0.179933   -0.184626    11.00000    0.14448    0.09700 =
         0.07671   -0.01637   -0.03411   -0.01290
AFIX 137
H38A  2    0.344260   -0.200193   -0.178246    11.00000   -1.50000
H38B  2    0.296962   -0.165605   -0.244090    11.00000   -1.50000
H38C  2    0.268917   -0.210714   -0.170290    11.00000   -1.50000

AFIX   0
HKLF 4

REM  1 in P-42(1)c
REM R1 =  0.0872 for    4099 Fo > 4sig(Fo)  and  0.1645 for all    7469 data
REM    435 parameters refined using      0 restraints

END

WGHT      0.1137      9.4636

REM Highest difference peak  1.188,  deepest hole -0.574,  1-sigma level  0.104
Q1    1   0.2331  0.0221  0.0061  11.00000  0.05    1.19
Q2    1   0.3028  0.0993  0.0141  11.00000  0.05    0.91
Q3    1   0.2268  0.0896  0.0100  11.00000  0.05    0.82
Q4    1   0.2970  0.0243  0.0092  11.00000  0.05    0.60
Q5    1   0.1979 -0.0062  0.4378  11.00000  0.05    0.42
Q6    1   0.2936  0.0409  0.5915  11.00000  0.05    0.42
Q7    1   0.0813 -0.0755 -0.0962  11.00000  0.05    0.41
Q8    1   0.2709 -0.1140  0.5079  11.00000  0.05    0.36
Q9    1   0.2636  0.2440 -0.6009  11.00000  0.05    0.36
Q10   1   0.1990 -0.0015  0.5553  11.00000  0.05    0.36
Q11   1   0.1610 -0.0931 -0.0863  11.00000  0.05    0.35
Q12   1   0.2220  0.2960 -0.5534  11.00000  0.05    0.35
Q13   1   0.4351 -0.1236  0.0920  11.00000  0.05    0.34
Q14   1   0.1215  0.0467  0.0836  11.00000  0.05    0.34
Q15   1   0.0908  0.1200 -0.0649  11.00000  0.05    0.34
Q16   1   0.0310 -0.0435 -0.1144  11.00000  0.05    0.33
Q17   1   0.3096  0.0199  0.5038  11.00000  0.05    0.33
Q18   1   0.4441 -0.0516 -0.0274  11.00000  0.05    0.33
Q19   1   0.3017 -0.0208  0.0791  11.00000  0.05    0.33
Q20   1   0.1907 -0.0169  0.5224  11.00000  0.05    0.32
;
_shelx_res_checksum              14712
_shelx_fab_file
;
    2    2    0     86.37     -0.07
    2    3    0      1.41     -0.25
    3    3    0     29.42     -0.13
    0    4    0     35.65      0.28
    1    4    0      2.24     -0.25
    2    4    0     21.91      0.09
    3    4    0      2.21     -0.11
    4    4    0      1.84     -0.09
    1    5    0      6.44      0.20
    2    5    0      4.26     -0.13
    3    5    0     -0.98      0.03
    4    5    0      2.07      0.02
    5    5    0     -3.42      0.03
    0    6    0     -4.76      0.14
    1    6    0      2.62      0.01
    2    6    0     -6.06      0.06
    3    6    0      4.21      0.05
    4    6    0     -5.19      0.07
    5    6    0      1.12      0.07
    6    6    0     -2.72      0.04
    1    7    0     -8.24     -0.03
    2    7    0      2.99      0.18
    3    7    0     -8.16      0.05
    4    7    0      2.24      0.14
    5    7    0     -4.77      0.15
    6    7    0      0.12      0.06
    7    7    0     -2.56     -0.18
    0    8    0     -7.59     -0.16
    1    8    0      0.71      0.29
    2    8    0     -8.87     -0.07
    3    8    0      1.18      0.19
    4    8    0     -8.41      0.21
    5    8    0      0.09      0.13
    6    8    0     -4.45      0.08
    7    8    0     -0.39      0.06
    8    8    0     -1.31     -0.41
    1    9    0     -7.42     -0.26
    2    9    0     -0.39      0.19
    3    9    0     -9.61      0.09
    4    9    0     -0.67      0.08
    5    9    0     -7.66      0.31
    6    9    0     -0.88      0.13
    7    9    0     -2.50     -0.10
    8    9    0     -0.35      0.03
    9    9    0      1.40     -0.37
    0   10    0     -5.86     -0.45
    1   10    0     -0.68      0.20
    2   10    0     -7.58     -0.21
    3   10    0     -1.34     -0.02
    4   10    0     -8.17      0.27
    5   10    0     -1.11      0.09
    6   10    0     -4.17      0.23
    7   10    0     -0.64      0.14
    8   10    0      0.76     -0.18
    9   10    0     -0.01     -0.05
   10   10    0      3.76     -0.13
    1   11    0     -4.24     -0.51
    2   11    0     -1.22      0.00
    3   11    0     -5.28     -0.07
    4   11    0     -1.03      0.02
    5   11    0     -3.47      0.27
    6   11    0     -0.42      0.31
    7   11    0      0.13      0.05
    8   11    0      0.16      0.12
    9   11    0      3.21     -0.14
   10   11    0      0.29     -0.10
   11   11    0      5.56     -0.07
    0   12    0     -0.97     -0.58
    1   12    0     -0.60      0.18
    2   12    0     -1.31     -0.36
    3   12    0     -0.86      0.08
    4   12    0     -0.68      0.02
    5   12    0     -0.16      0.46
    6   12    0      1.08      0.12
    7   12    0      0.50      0.53
    8   12    0      2.49     -0.10
    9   12    0      0.85      0.07
   10   12    0      4.88     -0.20
   11   12    0      0.34     -0.03
   12   12    0      7.30     -0.36
    1   13    0      1.76     -0.32
    2   13    0     -0.76      0.26
    3   13    0      1.77     -0.13
    4   13    0     -0.43      0.56
    5   13    0      2.59      0.04
    6   13    0      0.38      0.94
    7   13    0      2.68     -0.03
    8   13    0      1.12      0.54
    9   13    0      3.61     -0.24
   10   13    0      0.97      0.14
   11   13    0      6.70     -0.45
   12   13    0      0.14      0.12
   13   13    0      7.33     -0.70
    0   14    0      3.30     -0.04
    1   14    0     -0.57      0.38
    2   14    0      2.80      0.02
    3   14    0     -1.07      0.53
    4   14    0      2.65      0.05
    5   14    0     -0.59      1.04
    6   14    0      2.81      0.06
    7   14    0      0.60      0.95
    8   14    0      2.78     -0.09
    9   14    0      1.27      0.36
   10   14    0      5.29     -0.37
   11   14    0      0.60      0.33
   12   14    0      7.22     -0.65
   13   14    0      0.09      0.16
   14   14    0      3.76     -0.69
    1   15    0      3.00      0.18
    2   15    0     -1.28      0.28
    3   15    0      1.55      0.16
    4   15    0     -1.80      0.69
    5   15    0      1.58      0.16
    6   15    0     -0.82      0.93
    7   15    0      2.08      0.16
    8   15    0      0.84      0.43
    9   15    0      3.70     -0.05
   10   15    0      1.10      0.21
   11   15    0      6.52     -0.35
   12   15    0      0.57      0.37
   13   15    0      4.41     -0.52
   14   15    0      0.57     -0.09
   15   15    0     -1.58     -0.36
    0   16    0      2.66     -0.14
    1   16    0     -0.67     -0.08
    2   16    0      1.12     -0.06
    3   16    0     -2.10      0.08
    4   16    0     -0.11      0.08
    5   16    0     -2.26      0.42
    6   16    0      0.98      0.26
    7   16    0     -0.41      0.20
    8   16    0      2.26      0.29
    9   16    0      1.27     -0.17
   10   16    0      4.69      0.10
   11   16    0      1.36      0.04
   12   16    0      5.10     -0.10
   13   16    0      1.72     -0.13
   14   16    0     -0.32     -0.13
   15   16    0      1.41     -0.55
   16   16    0     -4.26     -0.02
    1   17    0      1.88     -1.07
    2   17    0     -1.18     -0.44
    3   17    0     -0.30     -0.64
    4   17    0     -2.47     -0.26
    5   17    0      0.13     -0.06
    6   17    0     -1.76     -0.23
    7   17    0      1.43      0.34
    8   17    0      0.67     -0.55
    9   17    0      2.32      0.41
   10   17    0      2.04     -0.48
   11   17    0      3.84      0.30
   12   17    0      2.71     -0.41
   13   17    0      1.68      0.22
   14   17    0      3.64     -1.17
   15   17    0     -2.98      0.17
   16   17    0      1.92     -0.98
   17   17    0     -2.49      0.12
    0   18    0      2.74     -2.60
    1   18    0     -0.07     -0.52
    2   18    0      1.24     -2.18
    3   18    0     -1.20     -0.66
    4   18    0      0.41     -1.05
    5   18    0     -2.07     -0.60
    6   18    0      1.58     -0.08
    7   18    0     -0.49     -0.72
    8   18    0      1.08      0.35
    9   18    0      1.90     -0.75
   10   18    0      1.00      0.42
   11   18    0      3.18     -0.57
   12   18    0      1.59      0.40
   13   18    0      4.57     -1.27
   14   18    0     -0.70      0.33
   15   18    0      4.69     -2.19
   16   18    0     -1.83      0.22
   17   18    0      1.59     -1.11
   18   18    0      0.98      0.14
    1   19    0      3.09     -4.00
    2   19    0      0.34     -0.64
    3   19    0      1.48     -2.63
    4   19    0     -0.93     -0.73
    5   19    0      2.07     -0.96
    6   19    0     -1.22     -0.69
    7   19    0      1.65     -0.02
    8   19    0      0.74     -0.65
    9   19    0     -0.73      0.24
   10   19    0      2.64     -0.40
   11   19    0     -0.61      0.31
   12   19    0      4.06     -0.73
   13   19    0      0.09      0.29
   14   19    0      5.24     -2.14
   15   19    0     -0.58      0.20
   16   19    0      3.75     -2.53
   17   19    0      0.81      0.16
   18   19    0      0.69     -0.91
   19   19    0      2.51      0.17
    0   20    0      4.05     -4.99
    1   20    0      0.76     -0.37
    2   20    0      2.62     -4.16
    3   20    0      0.69     -0.73
    4   20    0      1.76     -2.05
    5   20    0     -0.74     -0.64
    6   20    0      2.26     -0.49
    7   20    0     -0.55     -0.46
    8   20    0     -0.02     -0.01
    9   20    0      1.07     -0.15
   10   20    0     -2.02      0.08
   11   20    0      2.40      0.02
   12   20    0     -0.79      0.12
   13   20    0      3.69     -1.01
   14   20    0      0.11      0.05
   15   20    0      3.78     -2.40
   16   20    0      0.51      0.04
   17   20    0      1.55     -1.97
   18   20    0      1.83      0.16
   19   20    0     -0.02     -0.51
   20   20    0      1.51      0.21
    1   21    0      3.77     -4.70
    2   21    0      1.35     -0.81
    3   21    0      1.03     -2.90
    4   21    0      0.48     -0.81
    5   21    0      0.82     -0.88
    6   21    0     -0.82     -0.49
    7   21    0      0.88     -0.10
    8   21    0     -0.60     -0.19
    9   21    0     -1.07     -0.06
   10   21    0      0.23      0.28
   11   21    0     -1.19      0.01
   12   21    0      1.12      0.16
   13   21    0      0.24     -0.02
   14   21    0      1.95     -1.13
   15   21    0      0.49     -0.14
   16   21    0      1.23     -1.83
   17   21    0      0.62      0.01
   18   21    0     -0.15     -0.97
   19   21    0      0.82      0.22
   20   21    0     -0.08     -0.17
    0   22    0      4.48     -3.79
    1   22    0      0.78     -0.91
    2   22    0      1.59     -2.96
    3   22    0      1.19     -1.21
    4   22    0     -1.63     -1.08
    5   22    0     -0.08     -0.78
    6   22    0     -0.79     -0.02
    7   22    0     -1.24     -0.47
    8   22    0      0.03     -0.02
    9   22    0     -1.45     -0.15
   10   22    0     -0.08      0.01
   11   22    0     -1.18      0.40
   12   22    0      0.73      0.14
   13   22    0     -0.44      0.08
   14   22    0      0.99     -0.07
   15   22    0      0.00     -0.90
   16   22    0      0.22     -0.16
   17   22    0     -0.53     -0.86
   18   22    0     -0.29      0.11
   19   22    0     -0.37     -0.22
    1   23    0      3.45     -1.98
    2   23    0      0.87     -1.41
    3   23    0     -1.93     -0.91
    4   23    0      0.63     -1.06
    5   23    0     -3.83      0.07
    6   23    0     -0.73     -0.59
    7   23    0     -1.36      0.07
    8   23    0     -1.91     -0.65
    9   23    0      0.68     -0.06
   10   23    0     -2.31     -0.29
   11   23    0      1.60      0.31
   12   23    0     -2.00      0.30
   13   23    0      1.81      0.33
   14   23    0     -1.24     -0.05
   15   23    0      0.87     -0.08
   16   23    0     -0.94     -0.47
   17   23    0     -0.39     -0.09
   18   23    0     -0.72     -0.15
    0   24    0      4.05     -0.42
    1   24    0      0.19     -0.74
    2   24    0      0.38     -0.19
    3   24    0      0.69     -0.92
    4   24    0     -4.55      0.16
    5   24    0      0.09     -0.22
    6   24    0     -3.98      0.03
    7   24    0     -1.38     -0.36
    8   24    0     -0.66     -0.32
    9   24    0     -2.23     -0.81
   10   24    0      1.51      0.08
   11   24    0     -2.15     -0.28
   12   24    0      2.19      0.65
   13   24    0     -1.60      0.20
   14   24    0      1.69      0.34
   15   24    0     -1.08     -0.12
   16   24    0      0.53     -0.13
   17   24    0     -0.88     -0.13
    1   25    0      2.02      1.00
    2   25    0      0.54      0.04
    3   25    0     -2.26      0.53
    4   25    0      0.71      0.57
    5   25    0     -4.30     -0.12
    6   25    0     -0.54      0.83
    7   25    0     -2.51     -0.73
    8   25    0     -1.68     -0.17
    9   25    0     -0.08     -0.58
   10   25    0     -1.43     -0.64
   11   25    0      1.35      0.37
   12   25    0     -0.86     -0.01
   13   25    0      1.67      0.69
   14   25    0     -0.68      0.11
   15   25    0      1.27      0.11
    0   26    0      0.71      2.08
    1   26    0      0.44      1.78
    2   26    0     -0.43      1.44
    3   26    0      1.42      1.56
    4   26    0     -1.96      0.02
    5   26    0      0.48      2.16
    6   26    0     -2.00     -1.05
    7   26    0     -1.22      1.46
    8   26    0     -1.27     -1.30
    9   26    0     -0.99      0.03
   10   26    0     -0.27     -0.47
   11   26    0      0.27     -0.12
   12   26    0      0.66      0.49
   13   26    0      0.31      0.28
    1   27    0     -1.45      2.61
    2   27    0      2.14      2.49
    3   27    0     -0.37      0.84
    4   27    0      2.04      2.83
    5   27    0      0.47     -0.92
    6   27    0     -0.41      2.83
    7   27    0     -0.17     -1.62
    8   27    0     -1.25      1.38
    9   27    0     -0.96     -1.23
   10   27    0      0.60      0.23
   11   27    0     -0.49     -0.21
    0   28    0     -3.25      3.28
    1   28    0      1.83      3.02
    2   28    0     -1.46      2.16
    3   28    0      3.67      2.72
    4   28    0      1.60     -0.10
    5   28    0      1.38      3.00
    6   28    0      2.04     -1.35
    7   28    0     -1.29      2.27
    8   28    0      0.16     -1.39
    9   28    0     -0.24      0.78
    1   29    0     -3.03      3.08
    2   29    0      3.89      2.18
    3   29    0      0.17      1.14
    4   29    0      3.42      2.21
    5   29    0      2.46     -0.61
    1    2    1    -94.68     -5.44
    0    2    1     -0.13      3.33
    2    3    1    -44.19    -10.46
    1    3    1     -1.15      4.63
    3    4    1    -10.78    -10.55
    2    4    1     -2.45      3.52
    1    4    1    -27.91     -5.56
    0    4    1     -0.10      6.25
    4    5    1      0.98     -7.49
    3    5    1     -2.89      1.57
    2    5    1     -4.42     -6.67
    1    5    1     -2.07      4.80
    0    5    1     -8.68     -0.15
    5    6    1      2.78     -5.09
    4    6    1     -2.07      0.43
    3    6    1      3.60     -4.89
    2    6    1     -3.02      2.23
    1    6    1      2.07     -2.29
    0    6    1      0.19      3.76
    6    7    1      3.28     -4.04
    5    7    1     -0.68      0.23
    4    7    1      5.45     -3.50
    3    7    1     -2.07      0.77
    2    7    1      5.62     -2.12
    1    7    1     -1.10      1.89
    0    7    1      4.76      0.02
    7    8    1      2.64     -2.68
    6    8    1      0.36      0.01
    5    8    1      6.30     -2.99
    4    8    1     -0.30      0.50
    3    8    1      7.58     -2.05
    2    8    1     -0.56      0.90
    1    8    1      5.52     -0.72
    0    8    1      0.23      1.26
    8    9    1      0.05     -0.65
    7    9    1      0.69     -0.81
    6    9    1      4.96     -1.89
    5    9    1      0.84     -0.01
    4    9    1      8.63     -2.14
    3    9    1      0.65      0.67
    2    9    1      7.13     -1.51
    1    9    1      0.42      0.83
    0    9    1      5.10      0.14
    9   10    1     -2.42      0.94
    8   10    1      0.44     -1.72
    7   10    1      1.33     -0.08
    6   10    1      0.96     -1.52
    5   10    1      6.29     -1.26
    4   10    1      1.09     -0.12
    3   10    1      7.60     -1.94
    2   10    1      1.01      0.57
    1   10    1      5.15     -0.88
    0   10    1      0.11      0.59
   10   11    1     -3.53      1.79
    9   11    1     -0.10     -1.92
    8   11    1     -1.64      1.27
    7   11    1      0.44     -3.15
    6   11    1      1.61      0.28
    5   11    1      0.71     -1.99
    4   11    1      4.54     -1.14
    3   11    1      0.85     -0.31
    2   11    1      4.14     -1.45
    1   11    1      0.54      0.30
    0   11    1      3.00      0.35
   11   12    1     -4.53      2.55
   10   12    1     -0.48     -1.35
    9   12    1     -2.68      1.97
    8   12    1     -0.26     -3.60
    7   12    1     -1.55      1.29
    6   12    1      0.17     -3.86
    5   12    1     -0.02      0.21
    4   12    1      0.28     -1.95
    3   12    1      1.08     -0.80
    2   12    1      0.36     -0.29
    1   12    1      0.49     -0.35
    0   12    1      0.03      0.09
   12   13    1     -5.67      2.91
   11   13    1     -0.36     -0.66
   10   13    1     -3.58      2.65
    9   13    1     -0.72     -2.74
    8   13    1     -2.13      1.78
    7   13    1     -0.21     -4.36
    6   13    1     -2.30      0.94
    5   13    1      0.12     -3.40
    4   13    1     -1.79      0.30
    3   13    1      0.09     -1.20
    2   13    1     -1.74     -0.04
    1   13    1      0.05      0.14
    0   13    1     -2.11      0.30
   13   14    1     -4.83      1.72
   12   14    1      0.02     -0.35
   11   14    1     -5.06      2.90
   10   14    1     -0.58     -1.57
    9   14    1     -2.52      2.43
    8   14    1     -0.47     -3.44
    7   14    1     -2.03      1.28
    6   14    1      0.33     -3.66
    5   14    1     -2.26      0.79
    4   14    1      0.44     -1.89
    3   14    1     -2.20      0.69
    2   14    1      0.11      0.06
    1   14    1     -3.09      0.31
    0   14    1     -0.05      0.74
   14   15    1     -1.26     -0.91
   13   15    1     -0.13     -0.30
   12   15    1     -5.15      1.52
   11   15    1     -0.18     -0.89
   10   15    1     -3.90      2.68
    9   15    1     -0.53     -2.12
    8   15    1     -1.76      1.96
    7   15    1      0.35     -2.77
    6   15    1     -1.30      0.98
    5   15    1      1.13     -1.80
    4   15    1     -0.84      0.94
    3   15    1      0.68     -0.09
    2   15    1     -1.84      0.79
    1   15    1      0.07      1.15
    0   15    1     -3.07     -0.11
   15   16    1      2.21     -3.13
   14   16    1     -1.21     -0.18
   13   16    1     -2.70     -1.23
   12   16    1     -0.54     -0.58
   11   16    1     -4.54      1.31
   10   16    1     -0.59     -1.23
    9   16    1     -2.42      2.39
    8   16    1     -0.09     -1.66
    7   16    1     -1.03      1.61
    6   16    1      1.33     -1.07
    5   16    1      0.18      0.96
    4   16    1      1.42      0.01
    3   16    1      0.34      0.99
    2   16    1      0.39      1.05
    1   16    1     -1.78      0.57
    0   16    1     -0.08      1.39
   16   17    1      2.34     -3.49
   15   17    1     -2.53      0.07
   14   17    1      0.19     -3.35
   13   17    1     -2.13     -0.21
   12   17    1     -3.16     -1.32
   11   17    1     -1.22     -0.66
   10   17    1     -2.51      1.35
    9   17    1     -0.83     -0.94
    8   17    1     -1.27      2.15
    7   17    1      0.68     -0.36
    6   17    1     -0.46      1.34
    5   17    1      1.70      0.38
    4   17    1      0.98      0.92
    3   17    1      0.73      0.78
    2   17    1     -0.13      1.08
    1   17    1     -0.11      1.11
    0   17    1     -1.86      0.89
   17   18    1     -0.36     -2.37
   16   18    1     -2.87      0.30
   15   18    1      0.80     -3.37
   14   18    1     -3.85      0.25
   13   18    1     -1.12     -3.11
   12   18    1     -2.56     -0.09
   11   18    1     -1.31     -0.80
   10   18    1     -1.71     -0.48
    9   18    1     -0.50      1.49
    8   18    1     -0.45     -0.06
    7   18    1     -1.22      1.65
    6   18    1      1.27      0.68
    5   18    1     -0.50      0.93
    4   18    1      0.95      0.68
    3   18    1      0.23      1.14
    2   18    1     -0.35      0.63
    1   18    1     -1.57      1.94
    0   18    1     -0.12      0.56
   18   19    1     -2.57     -1.11
   17   19    1     -1.89      0.38
   16   19    1     -0.65     -1.90
   15   19    1     -4.04      0.50
   14   19    1     -0.35     -2.70
   13   19    1     -3.56      0.34
   12   19    1     -0.10     -2.13
   11   19    1     -2.36     -0.06
   10   19    1      1.05     -0.06
    9   19    1     -1.36      0.02
    8   19    1     -0.34      1.09
    7   19    1      0.42      0.72
    6   19    1     -1.93      0.73
    5   19    1      1.04      0.73
    4   19    1     -0.93      0.83
    3   19    1     -0.38      0.37
    2   19    1     -1.33      2.19
    1   19    1     -0.76      0.53
    0   19    1     -2.57      3.42
   19   20    1     -2.26     -0.38
   18   20    1     -0.51      0.34
   17   20    1     -1.74     -0.53
   16   20    1     -2.43      0.44
   15   20    1     -0.74     -0.97
   14   20    1     -3.06      0.34
   13   20    1     -0.05     -1.55
   12   20    1     -2.11      0.08
   11   20    1      1.61     -0.98
   10   20    1     -1.38      0.10
    9   20    1      1.27     -0.02
    8   20    1     -0.21      0.70
    7   20    1     -1.52     -0.04
    6   20    1      0.95      0.84
    5   20    1     -1.89      0.08
    4   20    1      0.09      0.37
    3   20    1     -1.21      1.66
    2   20    1     -1.13      0.76
    1   20    1     -2.63      3.68
    0   20    1     -0.24      1.03
   20   21    1     -0.58      0.02
   19   21    1      0.16      0.27
   18   21    1     -1.10     -0.01
   17   21    1     -0.44      0.30
   16   21    1     -0.87      0.32
   15   21    1     -1.28      0.02
   14   21    1     -0.62     -0.03
   13   21    1     -0.81     -0.27
   12   21    1      0.57     -0.58
   11   21    1     -0.27     -0.02
   10   21    1      1.47     -0.65
    9   21    1      0.00      0.81
    8   21    1     -0.29     -0.95
    7   21    1      0.76      1.20
    6   21    1     -1.48     -0.98
    5   21    1      0.64      0.62
    4   21    1     -0.58      0.58
    3   21    1     -0.68      0.91
    2   21    1     -1.72      3.00
    1   21    1     -0.84      2.20
    0   21    1     -3.23      4.11
   19   22    1      0.26      0.02
   18   22    1      0.44      0.24
   17   22    1     -0.15      0.48
   16   22    1      0.31     -0.18
   15   22    1     -0.77      0.83
   14   22    1      0.67     -0.78
   13   22    1     -0.84      0.25
   12   22    1      1.31     -0.54
   11   22    1     -0.01     -0.54
   10   22    1      1.13      0.84
    9   22    1     -0.16     -1.31
    8   22    1      0.90      1.87
    7   22    1     -0.62     -1.77
    6   22    1      0.79      1.31
    5   22    1      0.65     -0.57
    4   22    1      0.03      0.93
    3   22    1      0.22      1.92
    2   22    1     -0.62      2.59
    1   22    1     -2.92      3.35
    0   22    1     -0.16      3.47
   18   23    1      0.69      0.07
   17   23    1      0.71     -0.06
   16   23    1     -0.36      0.64
   15   23    1      1.22     -0.90
   14   23    1     -1.43      0.48
   13   23    1      2.12     -1.13
   12   23    1     -1.55     -0.38
   11   23    1      2.25      0.45
   10   23    1     -1.12     -1.23
    9   23    1      1.49      2.45
    8   23    1     -0.52     -1.86
    7   23    1      0.76      2.43
    6   23    1      1.43     -1.18
    5   23    1      0.20      1.18
    4   23    1      2.36      1.05
    3   23    1     -0.13      1.98
    2   23    1     -1.07      2.62
    1   23    1     -0.10      3.97
    0   23    1     -3.74      1.83
   17   24    1      0.02      0.11
   16   24    1      0.76     -0.54
   15   24    1     -1.29      0.15
   14   24    1      1.61     -1.27
   13   24    1     -2.05     -0.60
   12   24    1      2.24     -0.23
   11   24    1     -1.81     -1.30
   10   24    1      1.88      2.37
    9   24    1     -0.83     -1.62
    8   24    1      0.94      3.42
    7   24    1      1.21     -1.12
    6   24    1      0.00      1.90
    5   24    1      3.23      0.80
    4   24    1     -0.26      1.08
    3   24    1      1.38      2.47
    2   24    1      0.07      2.76
    1   24    1     -2.91      1.62
    0   24    1      0.24      3.34
   15   25    1      0.55     -0.91
   14   25    1     -1.77     -0.80
   13   25    1      1.09     -0.74
   12   25    1     -1.65     -1.54
   11   25    1      1.25      1.54
   10   25    1     -0.66     -1.58
    9   25    1      1.00      3.55
    8   25    1      0.81     -0.94
    7   25    1      0.15      2.65
    6   25    1      2.44      0.86
    5   25    1     -0.74      0.67
    4   25    1      2.34      2.89
    3   25    1     -0.54      0.87
    2   25    1     -0.71      2.38
    1   25    1      0.17      2.02
    0   25    1     -2.60     -0.82
   13   26    1     -1.17     -1.44
   12   26    1     -0.04      0.47
   11   26    1     -0.12     -1.59
   10   26    1      0.30      2.70
    9   26    1      1.00     -1.02
    8   26    1      0.54      2.79
    7   26    1      1.34      0.53
    6   26    1     -0.53      0.72
    5   26    1      1.19      3.04
    4   26    1     -1.53     -0.46
    3   26    1      0.34      3.72
    2   26    1     -0.91      0.08
    1   26    1     -0.71      0.53
    0   26    1      0.47     -0.26
   11   27    1     -0.83      1.44
   10   27    1      1.27     -1.01
    9   27    1      0.35      2.21
    8   27    1      1.05     -0.23
    7   27    1      0.44      0.78
    6   27    1     -0.39      2.10
    5   27    1     -1.57     -0.84
    4   27    1     -0.77      4.37
    3   27    1     -2.56     -1.14
    2   27    1      0.32      2.68
    1   27    1     -0.90     -1.31
    0   27    1      1.34     -2.38
    9   28    1      1.08     -0.70
    8   28    1      1.03      0.66
    7   28    1     -0.76      0.38
    6   28    1     -0.27     -0.71
    5   28    1     -2.21      3.29
    4   28    1     -3.12     -1.28
    3   28    1     -0.68      4.15
    2   28    1     -3.05     -1.66
    1   28    1      2.08      0.05
    0   28    1      0.34     -2.55
    5   29    1     -1.85     -0.88
    4   29    1     -1.79      3.66
    3   29    1     -4.09     -1.19
    2   29    1      0.93      2.27
    1   29    1     -1.97     -2.12
    0   29    1      2.81     -2.86
    0    0    2     74.87      0.14
    1    1    2     63.97      4.64
    0    1    2      0.04     -1.44
    2    2    2     39.42     12.44
    1    2    2      0.37     -3.40
    3    3    2     17.32     14.80
    2    3    2      0.65     -3.29
    1    3    2     33.32      8.29
    0    3    2      0.16     -7.91
    4    4    2      5.35     11.01
    3    4    2      0.70     -1.83
    2    4    2     14.59     11.37
    1    4    2      0.77     -7.82
    0    4    2     19.91      0.22
    5    5    2      0.27      7.20
    4    5    2      0.49     -0.58
    3    5    2      4.38      8.57
    2    5    2      1.16     -4.61
    1    5    2      8.80      4.47
    0    5    2     -0.09     -7.90
    6    6    2     -2.44      6.52
    5    6    2      0.19     -0.27
    4    6    2     -0.49      5.59
    3    6    2      0.87     -1.78
    2    6    2      2.47      3.83
    1    6    2      0.51     -4.91
    0    6    2      4.02      0.04
    7    7    2     -2.82      6.09
    6    7    2     -0.06     -0.33
    5    7    2     -3.52      5.32
    4    7    2      0.15     -1.00
    3    7    2     -1.87      2.81
    2    7    2      0.39     -2.34
    1    7    2      1.18      0.89
    0    7    2     -0.22     -3.59
    8    8    2     -0.40      3.23
    7    8    2     -0.21      0.06
    6    8    2     -3.98      5.01
    5    8    2     -0.46     -0.98
    4    8    2     -5.44      3.43
    3    8    2     -0.19     -1.66
    2    8    2     -2.35      1.56
    1    8    2     -0.14     -2.23
    0    8    2     -0.13     -0.07
    9    9    2      2.23     -0.41
    8    9    2     -0.26      0.87
    7    9    2     -1.34      2.31
    6    9    2     -0.78      0.16
    5    9    2     -5.97      3.25
    4    9    2     -0.63     -1.35
    3    9    2     -5.77      2.89
    2    9    2     -0.35     -1.73
    1    9    2     -2.07      1.25
    0    9    2     -0.24     -1.69
   10   10    2      2.52     -2.31
    9   10    2     -0.11      1.36
    8   10    2      1.59     -0.99
    7   10    2     -0.79      2.33
    6   10    2     -2.87      0.84
    5   10    2     -0.84      0.45
    4   10    2     -6.03      2.69
    3   10    2     -0.34     -0.98
    2   10    2     -3.98      2.88
    1   10    2     -0.20     -1.00
    0   10    2     -1.94     -0.07
   11   11    2      1.48     -2.76
   10   11    2      0.17      1.05
    9   11    2      2.09     -2.55
    8   11    2     -0.40      3.72
    7   11    2      0.54     -1.71
    6   11    2     -0.96      3.33
    5   11    2     -2.81      0.45
    4   11    2     -0.33      1.02
    3   11    2     -3.52      2.65
    2   11    2      0.17      0.00
    1   11    2     -1.38      1.61
    0   11    2     -0.23      0.09
   12   12    2      1.42     -2.99
   11   12    2      0.29      0.27
   10   12    2      1.18     -2.85
    9   12    2      0.24      3.14
    8   12    2      1.37     -2.55
    7   12    2     -0.83      5.11
    6   12    2      0.43     -1.48
    5   12    2     -0.68      3.58
    4   12    2     -0.98      0.58
    3   12    2      0.40      1.45
    2   12    2     -0.16      1.59
    1   12    2      0.33      0.76
    0   12    2      0.85     -0.24
   13   13    2      2.11     -2.40
   12   13    2      0.07     -0.32
   11   13    2      1.29     -3.07
   10   13    2      0.52      1.32
    9   13    2      0.68     -2.64
    8   13    2     -0.33      4.56
    7   13    2      1.12     -1.82
    6   13    2     -1.12      4.95
    5   13    2      0.94     -0.95
    4   13    2     -0.07      2.80
    3   13    2      1.00     -0.04
    2   13    2      0.84      1.09
    1   13    2      2.25      0.08
    0   13    2     -0.06      0.68
   14   14    2      1.60      0.01
   13   14    2     -0.25     -0.41
   12   14    2      2.27     -2.44
   11   14    2      0.03     -0.17
   10   14    2      0.99     -3.02
    9   14    2      0.01      2.61
    8   14    2      0.45     -1.97
    7   14    2     -1.12      4.45
    6   14    2      0.87     -1.09
    5   14    2     -0.92      3.23
    4   14    2      0.90     -1.13
    3   14    2      0.65      1.14
    2   14    2      1.97     -0.92
    1   14    2      0.70     -0.10
    0   14    2      2.96     -0.17
   15   15    2     -0.12      3.12
   14   15    2     -0.19     -0.12
   13   15    2      2.17      0.12
   12   15    2     -0.66     -0.53
   11   15    2      2.33     -2.44
   10   15    2     -0.31      0.96
    9   15    2      0.65     -2.76
    8   15    2     -0.78      3.07
    7   15    2      0.17     -1.44
    6   15    2     -1.39      2.69
    5   15    2     -0.12     -1.06
    4   15    2     -0.10      0.88
    3   15    2      0.23     -1.47
    2   15    2      1.12     -0.67
    1   15    2      1.95     -0.80
    0   15    2      0.04     -1.25
   16   16    2     -0.83      4.64
   15   16    2      0.33      0.24
   14   16    2      0.77      3.32
   13   16    2     -0.48     -0.08
   12   16    2      2.82      0.28
   11   16    2     -0.82      0.27
   10   16    2      1.70     -2.51
    9   16    2     -0.59      1.95
    8   16    2      0.25     -2.59
    7   16    2     -1.19      2.01
    6   16    2     -0.54     -1.32
    5   16    2     -0.77      0.47
    4   16    2     -1.33     -1.05
    3   16    2      1.01     -0.79
    2   16    2     -0.13     -1.02
    1   16    2      0.94     -1.64
    0   16    2      1.28     -0.11
   17   17    2      0.63      3.89
   16   17    2      0.86      0.47
   15   17    2      0.03      4.71
   14   17    2      0.75      0.58
   13   17    2      1.97      3.51
   12   17    2     -0.49      0.17
   11   17    2      2.09      0.04
   10   17    2     -0.49      1.23
    9   17    2      0.62     -2.71
    8   17    2     -0.64      1.68
    7   17    2     -0.05     -2.34
    6   17    2     -0.99      0.33
    5   17    2     -1.20     -0.87
    4   17    2      0.44     -0.65
    3   17    2     -1.57     -0.36
    2   17    2      1.62     -1.18
    1   17    2      0.10     -0.43
    0   17    2     -0.01     -1.49
   18   18    2      2.60      2.19
   17   18    2      0.89      0.44
   16   18    2      1.06      3.63
   15   18    2      1.94      1.04
   14   18    2      1.17      4.48
   13   18    2      0.75      0.33
   12   18    2      1.44      3.00
   11   18    2     -0.04      0.52
   10   18    2      0.27     -0.60
    9   18    2     -0.01      1.33
    8   18    2      0.12     -2.46
    7   18    2     -0.70      0.52
    6   18    2      0.08     -1.29
    5   18    2     -0.37     -0.38
    4   18    2     -1.13      0.24
    3   18    2      1.42     -0.44
    2   18    2     -0.75      0.17
    1   18    2      1.18     -0.90
    0   18    2      0.36     -1.02
   19   19    2      2.86      0.87
   18   19    2      0.46      0.18
   17   19    2      2.51      1.66
   16   19    2      1.98      1.05
   15   19    2      1.43      2.72
   14   19    2      1.73      0.70
   13   19    2      0.78      3.51
   12   19    2      0.58      0.06
   11   19    2     -0.54      1.84
   10   19    2      0.48      0.61
    9   19    2     -0.70     -0.77
    8   19    2     -0.06      0.56
    7   19    2      0.75     -1.08
    6   19    2     -0.91     -0.08
    5   19    2      0.46      0.36
    4   19    2      0.22      0.16
    3   19    2     -0.50      0.85
    2   19    2      1.49     -0.25
    1   19    2      0.20     -0.64
    0   19    2      0.12     -0.86
   20   20    2      1.38      0.13
   19   20    2      0.03     -0.14
   18   20    2      2.51      0.36
   17   20    2      1.01      0.53
   16   20    2      1.98      0.32
   15   20    2      1.47      1.00
   14   20    2      0.83      1.36
   13   20    2      0.58      0.33
   12   20    2     -0.79      2.07
   11   20    2      0.35      0.06
   10   20    2     -1.56      1.10
    9   20    2      0.44      0.13
    8   20    2      0.23      0.30
    7   20    2     -0.69     -0.13
    6   20    2      1.56      0.77
    5   20    2     -1.06      0.42
    4   20    2      0.52      1.10
    3   20    2      0.38      0.41
    2   20    2      0.19     -0.04
    1   20    2      0.77     -1.18
    0   20    2      0.67     -2.09
   20   21    2     -0.09     -0.28
   19   21    2      1.08     -0.11
   18   21    2      0.05     -0.19
   17   21    2      1.66     -0.80
   16   21    2      0.41      0.75
   15   21    2      1.13     -1.02
   14   21    2     -0.25      1.05
   13   21    2     -0.20      0.20
   12   21    2     -0.70      0.46
   11   21    2     -1.39      1.27
   10   21    2      0.04     -0.20
    9   21    2     -0.38      1.63
    8   21    2     -0.08     -0.71
    7   21    2      1.61      1.77
    6   21    2     -1.23     -0.01
    5   21    2      1.32      1.31
    4   21    2     -1.07      0.88
    3   21    2      0.38      0.06
    2   21    2      0.05     -0.90
    1   21    2      0.89     -1.48
    0   21    2      0.24     -2.55
   19   22    2     -0.24     -0.61
   18   22    2      0.53     -0.62
   17   22    2     -0.30      0.03
   16   22    2      1.00     -1.69
   15   22    2     -1.00      1.29
   14   22    2      0.60     -1.50
   13   22    2     -2.00      1.50
   12   22    2     -0.29      0.10
   11   22    2     -1.39      0.28
   10   22    2     -0.15      1.75
    9   22    2     -0.09     -1.33
    8   22    2      1.31      2.55
    7   22    2     -0.29     -1.32
    6   22    2      1.52      1.70
    5   22    2     -1.21      0.45
    4   22    2      0.48     -0.21
    3   22    2     -1.10      0.02
    2   22    2      0.94     -1.53
    1   22    2     -0.26     -2.93
    0   22    2      1.63     -1.58
   18   23    2     -0.28     -0.56
   17   23    2      0.44     -0.93
   16   23    2     -0.84      0.72
   15   23    2      1.04     -1.59
   14   23    2     -2.28      2.05
   13   23    2      0.89     -0.66
   12   23    2     -2.72      1.36
   11   23    2      0.66      1.21
   10   23    2     -1.10     -1.22
    9   23    2      1.17      2.59
    8   23    2      0.43     -2.87
    7   23    2      1.34      1.98
    6   23    2      0.16     -1.35
    5   23    2      0.41     -0.52
    4   23    2     -0.95      0.34
    3   23    2      0.65     -2.30
    2   23    2     -1.13     -1.69
    1   23    2      2.22     -1.71
    0   23    2     -0.03     -3.54
   16   24    2      0.96     -0.68
   15   24    2     -1.20      1.56
   14   24    2      1.57     -0.35
   13   24    2     -2.61      2.00
   12   24    2      1.38      1.07
   11   24    2     -2.09     -0.38
   10   24    2      1.03      2.41
    9   24    2      0.06     -3.56
    8   24    2      0.82      2.12
    7   24    2      1.46     -3.71
    6   24    2      0.24     -0.61
    5   24    2      0.76     -1.00
    4   24    2      0.28     -3.33
    3   24    2     -0.81     -0.38
    2   24    2      1.97     -2.93
    1   24    2     -0.84     -2.43
    0   24    2      2.89      0.09
   15   25    2      1.57      0.18
   14   25    2     -1.11      1.70
   13   25    2      1.71      1.33
   12   25    2     -1.84      0.45
   11   25    2      0.79      2.43
   10   25    2     -0.70     -3.00
    9   25    2     -0.10      2.37
    8   25    2      1.37     -5.06
    7   25    2     -0.29     -0.08
    6   25    2      2.29     -3.31
    5   25    2      0.14     -3.82
    4   25    2      0.98     -0.64
    3   25    2      1.41     -4.76
    2   25    2     -0.61     -0.70
    1   25    2      2.59     -1.48
    0   25    2     -0.35     -1.26
   13   26    2     -0.56      0.72
   12   26    2      0.69      2.28
   11   26    2     -0.70     -1.81
   10   26    2     -0.93      2.55
    9   26    2      0.38     -4.63
    8   26    2     -1.26      1.05
    7   26    2      2.09     -4.72
    6   26    2     -0.04     -2.88
    5   26    2      2.56     -2.17
    4   26    2      1.30     -6.01
    3   26    2      1.03     -0.17
    2   26    2      1.82     -4.14
    1   26    2     -0.26      0.13
    0   26    2      1.45      1.48
   11   27    2     -1.04      2.07
   10   27    2     -0.17     -3.11
    9   27    2     -2.04      1.88
    8   27    2      0.61     -4.28
    7   27    2     -0.59     -0.66
    6   27    2      2.28     -3.23
    5   27    2      1.46     -5.22
    4   27    2      2.62     -1.00
    3   27    2      1.73     -6.52
    2   27    2      1.13      0.67
    1   27    2      0.51     -1.65
    0   27    2     -0.39      1.49
    8   28    2     -1.14      1.28
    7   28    2      0.52     -2.78
    6   28    2      1.21     -2.35
    5   28    2      2.52     -1.79
    4   28    2      2.03     -6.63
    3   28    2      2.69      0.04
    2   28    2      0.57     -5.09
    1   28    2      0.81      1.72
    0   28    2     -0.95      2.14
    4   29    2      2.84     -0.77
    3   29    2      0.98     -6.40
    2   29    2      2.26      1.11
    1   29    2     -0.54     -1.80
    0   29    2     -0.34      2.32
    0    1    3    -11.72     -0.49
    1    2    3    -10.61     -6.56
    0    2    3     -0.10      4.24
    2    3    3     -8.91    -10.44
    1    3    3     -0.15      5.84
    0    3    3     -9.75     -0.42
    3    4    3     -6.59     -8.03
    2    4    3     -0.08      4.35
    1    4    3     -8.68     -5.02
    0    4    3     -0.01      8.19
    4    5    3     -3.10     -4.33
    3    5    3      0.10      1.97
    2    5    3     -6.75     -4.10
    1    5    3     -0.03      6.41
    0    5    3     -8.02     -0.29
    5    6    3      0.64     -4.70
    4    6    3      0.25      0.82
    3    6    3     -3.18     -1.89
    2    6    3      0.06      3.42
    1    6    3     -6.60     -0.71
    0    6    3     -0.03      5.66
    6    7    3      2.16     -6.86
    5    7    3      0.27      0.89
    4    7    3      0.99     -2.87
    3    7    3      0.13      1.98
    2    7    3     -3.18     -0.20
    1    7    3     -0.11      3.81
    0    7    3     -5.26     -0.09
    7    8    3      0.55     -5.59
    6    8    3      0.21      0.67
    5    8    3      3.05     -4.85
    4    8    3      0.11      1.97
    3    8    3      1.18     -1.82
    2    8    3     -0.33      2.84
    1    8    3     -2.65     -0.35
    0    8    3     -0.11      3.37
    8    9    3     -1.84     -0.99
    7    9    3      0.12     -0.63
    6    9    3      1.80     -3.51
    5    9    3      0.15      1.32
    4    9    3      3.70     -3.41
    3    9    3     -0.60      2.53
    2    9    3      0.81     -2.18
    1    9    3     -0.54      2.62
    0    9    3     -1.29     -0.03
    9   10    3     -2.09      2.43
    8   10    3     -0.13     -2.07
    7   10    3     -0.64      0.43
    6   10    3      0.34     -0.93
    5   10    3      2.97     -1.88
    4   10    3     -0.47      1.34
    3   10    3      2.96     -3.30
    2   10    3     -1.16      1.70
    1   10    3      0.05     -1.81
    0   10    3      0.09      1.33
   10   11    3     -0.25      2.63
    9   11    3     -0.62     -2.23
    8   11    3     -1.37      2.84
    7   11    3      0.37     -3.32
    6   11    3      0.70      1.26
    5   11    3      0.31     -1.17
    4   11    3      2.67     -1.60
    3   11    3     -1.16      0.26
    2   11    3      0.94     -2.72
    1   11    3     -0.85     -0.14
    0   11    3     -0.65      0.05
   11   12    3      1.13      1.65
   10   12    3     -1.05     -0.88
    9   12    3     -0.12      2.45
    8   12    3     -0.10     -3.76
    7   12    3     -0.45      2.48
    6   12    3      1.17     -3.50
    5   12    3      1.10      0.92
    4   12    3     -0.08     -1.52
    3   12    3      0.92     -1.19
    2   12    3     -1.33     -1.19
    1   12    3     -1.17     -0.96
    0   12    3      0.19     -1.60
   12   13    3      0.54      1.19
   11   13    3     -0.92      0.85
   10   13    3      0.87      1.53
    9   13    3     -0.73     -2.02
    8   13    3      0.06      1.60
    7   13    3      1.32     -4.02
    6   13    3      0.17      1.41
    5   13    3      1.43     -2.78
    4   13    3      0.55      0.78
    3   13    3     -0.68     -1.61
    2   13    3     -1.00      0.07
    1   13    3     -0.83     -1.71
    0   13    3     -2.19      0.21
   13   14    3     -0.83      0.43
   12   14    3     -0.19      1.70
   11   14    3      0.17      1.27
   10   14    3     -0.66      0.27
    9   14    3      0.61      1.09
    8   14    3      0.86     -2.80
    7   14    3      0.36      0.56
    6   14    3      2.23     -2.91
    5   14    3      0.55      0.92
    4   14    3      0.62     -1.46
    3   14    3     -0.15      1.36
    2   14    3     -1.14     -0.92
    1   14    3     -1.84      0.78
    0   14    3      0.07     -0.94
   14   15    3     -1.31     -1.41
   13   15    3      0.45      1.34
   12   15    3     -1.28      0.38
   11   15    3      0.26      1.51
   10   15    3     -0.02      1.33
    9   15    3      0.65     -1.23
    8   15    3      0.67      0.72
    7   15    3      2.08     -2.41
    6   15    3      0.90      0.27
    5   15    3      1.56     -1.05
    4   15    3      0.90      1.13
    3   15    3     -0.84     -0.02
    2   15    3     -0.37      1.44
    1   15    3     -0.99      0.28
    0   15    3     -1.28      0.18
   15   16    3     -0.96     -3.14
   14   16    3      0.35      0.31
   13   16    3     -1.92     -1.75
   12   16    3      1.08      1.37
   11   16    3     -1.23      0.42
   10   16    3      1.08     -0.28
    9   16    3      0.33      1.54
    8   16    3      1.64     -2.06
    7   16    3      1.06      0.83
    6   16    3      1.77     -0.97
    5   16    3      1.51      0.41
    4   16    3     -0.32      0.47
    3   16    3      1.16      0.78
    2   16    3     -1.82      0.98
    1   16    3      0.01      0.55
    0   16    3      0.05      1.18
   16   17    3     -0.97     -3.37
   15   17    3     -0.38     -0.63
   14   17    3     -1.66     -3.45
   13   17    3      0.85      0.46
   12   17    3     -1.78     -2.00
   11   17    3      1.46      0.17
   10   17    3     -0.28      0.73
    9   17    3      1.42     -1.82
    8   17    3      0.86      1.80
    7   17    3      1.57     -1.46
    6   17    3      1.40      0.76
    5   17    3      0.30      0.29
    4   17    3      1.77     -0.28
    3   17    3     -1.97      0.94
    2   17    3      1.22     -0.39
    1   17    3     -1.40      1.29
    0   17    3      0.67      0.09
   17   18    3     -1.57     -2.30
   16   18    3     -0.97     -0.92
   15   18    3     -1.52     -3.10
   14   18    3     -0.24     -0.51
   13   18    3     -1.50     -3.55
   12   18    3      1.04      0.34
   11   18    3     -0.38     -1.72
   10   18    3      1.17     -1.11
    9   18    3      0.71      0.99
    8   18    3      1.19     -1.87
    7   18    3      0.91      1.35
    6   18    3      0.89     -0.45
    5   18    3      1.29     -0.38
    4   18    3     -1.08      0.37
    3   18    3      1.55     -1.67
    2   18    3     -2.20      0.75
    1   18    3      1.21     -0.86
    0   18    3      0.07      1.16
   18   19    3     -1.76     -1.07
   17   19    3     -0.95     -0.43
   16   19    3     -1.85     -1.28
   15   19    3     -1.09     -0.92
   14   19    3     -1.18     -2.45
   13   19    3      0.14      0.12
   12   19    3      0.08     -3.03
   11   19    3      0.68     -0.11
   10   19    3      0.97     -1.29
    9   19    3      0.61     -1.45
    8   19    3      0.60      0.43
    7   19    3      1.03     -1.10
    6   19    3      0.29     -0.14
    5   19    3      0.39     -0.46
    4   19    3      0.83     -1.94
    3   19    3     -1.42     -0.23
    2   19    3      1.16     -2.15
    1   19    3     -1.12      0.73
    0   19    3      1.16      0.19
   19   20    3     -0.96     -0.32
   18   20    3     -0.48      0.42
   17   20    3     -1.93      0.26
   16   20    3     -1.06     -0.43
   15   20    3     -1.31      0.15
   14   20    3     -0.31     -0.36
   13   20    3      0.44     -1.53
   12   20    3      0.41      0.20
   11   20    3      1.53     -2.35
   10   20    3      0.15     -0.54
    9   20    3      0.74     -1.52
    8   20    3      0.47     -1.01
    7   20    3     -0.54     -0.86
    6   20    3      1.20     -1.01
    5   20    3     -0.46     -1.49
    4   20    3      0.37     -1.38
    3   20    3      0.35     -2.30
    2   20    3     -0.78     -0.31
    1   20    3      0.85     -1.08
    0   20    3     -0.02      0.87
   20   21    3      0.06      0.08
   19   21    3     -0.04      0.93
   18   21    3     -1.27      0.71
   17   21    3     -0.53      0.64
   16   21    3     -1.53      1.88
   15   21    3     -0.10     -0.41
   14   21    3      0.17      1.21
   13   21    3      0.79     -0.48
   12   21    3      1.78     -0.96
   11   21    3      0.46     -0.37
   10   21    3      1.17     -2.35
    9   21    3     -0.13     -0.47
    8   21    3     -0.82     -2.19
    7   21    3      0.65     -0.72
    6   21    3     -1.64     -1.38
    5   21    3      1.35     -1.92
    4   21    3     -0.93     -1.28
    3   21    3      0.62     -1.90
    2   21    3     -0.06     -1.22
    1   21    3     -0.04      0.25
    0   21    3      0.41      0.19
   19   22    3     -0.38      0.48
   18   22    3     -0.10      1.38
   17   22    3     -1.35      1.83
   16   22    3      0.15      0.26
   15   22    3     -0.55      2.66
   14   22    3      1.33     -1.16
   13   22    3      1.25      1.21
   12   22    3      1.55     -1.30
   11   22    3      1.39     -1.37
   10   22    3      0.23     -0.50
    9   22    3     -0.52     -2.74
    8   22    3     -0.43      0.19
    7   22    3     -2.12     -1.73
    6   22    3      0.49     -0.99
    5   22    3     -2.07     -0.08
    4   22    3      1.24     -2.74
    3   22    3     -1.33      0.04
    2   22    3      0.85     -1.48
    1   22    3     -0.64     -0.18
    0   22    3      0.03      0.18
   18   23    3     -0.83      0.85
   17   23    3      0.00      0.97
   16   23    3     -1.09      2.16
   15   23    3      1.15     -0.90
   14   23    3      0.09      2.05
   13   23    3      2.35     -2.21
   12   23    3      0.95     -0.05
   11   23    3      1.49     -1.37
   10   23    3      0.00     -2.27
    9   23    3     -0.55      0.73
    8   23    3     -1.66     -1.99
    7   23    3     -1.24      1.16
    6   23    3     -2.39      0.63
    5   23    3     -0.08     -1.33
    4   23    3     -2.32      1.91
    3   23    3      1.06     -2.69
    2   23    3     -1.95      0.77
    1   23    3      0.71     -1.16
    0   23    3     -1.45     -0.29
   16   24    3      0.19     -0.08
   15   24    3     -0.93      1.40
   14   24    3      1.82     -1.97
   13   24    3     -0.10      0.28
   12   24    3      2.34     -2.14
   11   24    3      0.16     -1.73
   10   24    3      0.48      0.35
    9   24    3     -0.58     -2.15
    8   24    3     -1.91      2.97
    7   24    3     -1.59      0.57
    6   24    3     -2.25      2.02
    5   24    3     -2.43      3.39
    4   24    3     -0.42     -1.31
    3   24    3     -2.88      2.63
    2   24    3      0.91     -2.37
    1   24    3     -2.54      0.21
    0   24    3      0.20     -1.81
   15   25    3      0.33     -0.91
   14   25    3     -1.03     -0.11
   13   25    3      1.76     -1.83
   12   25    3     -0.27     -1.60
   11   25    3      1.40     -0.32
   10   25    3      0.35     -2.39
    9   25    3     -1.00      3.20
    8   25    3     -0.03     -0.37
    7   25    3     -3.16      4.98
    6   25    3     -1.45      3.55
    5   25    3     -2.60      2.42
    4   25    3     -2.94      4.59
    3   25    3     -0.22     -1.33
    2   25    3     -3.22      1.79
    1   25    3      0.62     -2.68
    0   25    3     -2.63     -1.04
   13   26    3     -0.84     -1.44
   12   26    3      1.12     -0.40
   11   26    3      0.52     -2.37
   10   26    3      0.26      2.21
    9   26    3      1.32     -1.58
    8   26    3     -2.08      5.52
    7   26    3      0.16      1.98
    6   26    3     -3.48      5.72
    5   26    3     -2.09      5.25
    4   26    3     -2.03      1.92
    3   26    3     -3.27      4.13
    2   26    3      0.07     -1.98
    1   26    3     -2.71      0.35
    0   26    3      0.23     -3.24
   11   27    3      0.59      1.21
   10   27    3      1.72     -1.96
    9   27    3     -0.29      3.92
    8   27    3      1.45     -0.26
    7   27    3     -2.27      6.20
    6   27    3     -0.78      3.66
    5   27    3     -2.85      4.86
    4   27    3     -2.68      5.69
    3   27    3     -1.20      0.46
    2   27    3     -2.63      3.06
    1   27    3      0.09     -2.93
    0   27    3     -1.72     -1.50
    8   28    3     -0.22      4.15
    7   28    3      0.21      0.80
    6   28    3     -1.89      5.22
    5   28    3     -1.66      4.77
    4   28    3     -1.98      2.81
    3   28    3     -2.19      5.56
    2   28    3     -0.67     -1.28
    1   28    3     -1.46      1.40
    0   28    3      0.16     -3.12
    3   29    3     -1.32      0.52
    2   29    3     -1.13      4.43
    1   29    3     -0.30     -2.26
    0   29    3     -0.76     -1.23
    0    0    4    -18.17      0.41
    1    1    4    -14.07      3.27
    0    1    4     -0.05     -0.74
    2    2    4     -5.78      7.50
    1    2    4     -0.04     -1.93
    0    2    4    -10.75      0.26
    3    3    4      0.50      7.11
    2    3    4     -0.03     -1.92
    1    3    4     -3.59      4.76
    0    3    4     -0.09     -4.77
    4    4    4      1.94      3.58
    3    4    4     -0.03     -1.12
    2    4    4      1.73      4.97
    1    4    4      0.01     -5.00
    0    4    4      0.89      0.22
    5    5    4      0.67      2.90
    4    5    4     -0.06     -0.41
    3    5    4      2.70      2.16
    2    5    4      0.13     -3.30
    1    5    4      4.16      1.36
    0    5    4     -0.04     -5.72
    6    6    4      0.05      5.89
    5    6    4     -0.10     -0.21
    4    6    4      1.20      1.88
    3    6    4      0.13     -1.63
    2    6    4      4.19     -0.06
    1    6    4      0.31     -4.60
    0    6    4      5.43      0.28
    7    7    4      0.89      7.18
    6    7    4     -0.07     -0.19
    5    7    4      0.26      4.76
    4    7    4      0.03     -1.04
    3    7    4      2.27      0.37
    2    7    4      0.70     -3.23
    1    7    4      4.86     -0.39
    0    7    4      0.24     -4.72
    8    8    4      1.63      3.75
    7    8    4      0.08      0.14
    6    8    4      0.69      5.85
    5    8    4     -0.02     -0.86
    4    8    4      0.57      2.87
    3    8    4      0.97     -2.54
    2    8    4      2.90      0.31
    1    8    4      1.00     -4.20
    0    8    4      4.14      0.24
    9    9    4      0.88     -0.90
    8    9    4      0.34      0.74
    7    9    4      1.22      2.59
    6    9    4      0.11      0.05
    5    9    4     -0.04      3.41
    4    9    4      0.94     -1.94
    3    9    4      0.75      2.14
    2    9    4      1.83     -3.38
    1    9    4      2.81      0.80
    0    9    4      0.28     -3.84
   10   10    4     -0.90     -2.40
    9   10    4      0.65      1.06
    8   10    4      0.68     -1.50
    7   10    4      0.49      1.63
    6   10    4     -0.04      0.57
    5   10    4      0.59     -0.51
    4   10    4     -0.81      1.99
    3   10    4      2.01     -2.27
    2   10    4      1.00      2.00
    1   10    4      1.50     -2.64
    0   10    4      2.26      0.09
   11   11    4     -2.10     -1.04
   10   11    4      0.86      0.72
    9   11    4     -0.66     -2.46
    8   11    4      1.09      2.60
    7   11    4     -0.07     -2.21
    6   11    4      0.18      1.51
    5   11    4     -1.39     -0.43
    4   11    4      1.16     -0.72
    3   11    4     -0.77      1.43
    2   11    4      2.12     -1.25
    1   11    4      1.48      1.05
    0   11    4      0.04     -1.01
   12   12    4     -1.61      0.13
   11   12    4      0.84     -0.08
   10   12    4     -1.56     -0.94
    9   12    4      1.65      1.98
    8   12    4     -0.35     -2.08
    7   12    4      0.13      2.79
    6   12    4     -1.09     -1.98
    5   12    4     -0.28      0.93
    4   12    4     -1.74     -0.60
    3   12    4      1.34     -0.17
    2   12    4      0.23      0.51
    1   12    4      1.12      0.19
    0   12    4      1.67     -0.03
   13   13    4      0.12      0.05
   12   13    4      0.58     -0.75
   11   13    4     -1.12      0.12
   10   13    4      1.74      0.25
    9   13    4     -0.60     -0.45
    8   13    4      0.42      2.45
    7   13    4     -0.51     -1.08
    6   13    4     -1.34      1.92
    5   13    4     -1.56     -1.41
    4   13    4     -0.39      0.46
    3   13    4     -0.82     -1.05
    2   13    4      1.04      0.44
    1   13    4      1.20     -0.38
    0   13    4     -0.10      0.77
   14   14    4      1.59      0.00
   13   14    4      0.25     -0.88
   12   14    4      0.39      0.03
   11   14    4      1.17     -1.25
   10   14    4     -0.32      0.18
    9   14    4      0.55      1.07
    8   14    4     -0.28      0.25
    7   14    4     -1.57      2.00
    6   14    4     -0.92     -0.34
    5   14    4     -1.86      0.69
    4   14    4     -1.13     -1.45
    3   14    4      0.04      0.08
    2   14    4      0.27     -1.51
    1   14    4      0.52      0.35
    0   14    4      1.10     -0.12
   15   15    4      1.76      0.77
   14   15    4      0.10     -0.52
   13   15    4      1.70      0.19
   12   15    4      0.32     -1.63
   11   15    4      0.57      0.00
   10   15    4      0.12     -0.15
    9   15    4     -0.31      0.17
    8   15    4     -1.41      1.70
    7   15    4     -0.79      0.44
    6   15    4     -2.36      0.85
    5   15    4     -1.08     -0.47
    4   15    4     -0.92     -0.37
    3   15    4     -0.47     -1.62
    2   15    4      0.63     -0.41
    1   15    4      0.32     -1.02
    0   15    4     -0.10     -0.27
   16   16    4      0.96      1.64
   15   16    4      0.20     -0.06
   14   16    4      1.91      1.12
   13   16    4     -0.11     -1.03
   12   16    4      1.49      0.60
   11   16    4     -0.52     -0.64
   10   16    4     -0.07     -0.17
    9   16    4     -1.39      1.48
    8   16    4     -1.14     -0.17
    7   16    4     -2.20      1.35
    6   16    4     -1.40      0.01
    5   16    4     -1.33     -0.42
    4   16    4     -0.98     -0.62
    3   16    4      0.60     -0.97
    2   16    4     -0.50     -0.93
    1   16    4      0.68     -0.80
    0   16    4     -0.57     -0.09
   17   17    4      0.12      1.83
   16   17    4      0.39      0.12
   15   17    4      1.26      1.82
   14   17    4      0.16     -0.23
   13   17    4      1.74      1.85
   12   17    4     -0.63     -0.64
   11   17    4      0.42      0.85
   10   17    4     -1.39      1.12
    9   17    4     -1.21     -0.46
    8   17    4     -1.92      2.01
    7   17    4     -1.88     -0.54
    6   17    4     -1.41      0.18
    5   17    4     -1.52     -0.04
    4   17    4      0.44     -1.12
    3   17    4     -0.98      0.17
    2   17    4      1.42     -1.02
    1   17    4     -1.17      0.10
    0   17    4     -0.08     -0.88
   18   18    4     -0.38      1.41
   17   18    4      0.46     -0.13
   16   18    4      0.61      1.56
   15   18    4      0.76      0.02
   14   18    4      1.36      2.16
   13   18    4      0.06     -0.54
   12   18    4      0.57      2.35
   11   18    4     -0.89      0.31
   10   18    4     -0.87      0.90
    9   18    4     -1.50      2.04
    8   18    4     -1.76     -0.42
    7   18    4     -1.41      1.15
    6   18    4     -1.77     -0.18
    5   18    4     -0.07     -0.67
    4   18    4     -1.17      0.90
    3   18    4      1.53     -0.92
    2   18    4     -1.15      1.26
    1   18    4      1.00     -0.69
    0   18    4     -1.63      0.20
   19   19    4     -0.74      0.85
   18   19    4      0.34     -0.57
   17   19    4      0.28      0.74
   16   19    4      1.11     -0.56
   15   19    4      1.01      0.95
   14   19    4      0.95     -0.63
   13   19    4      0.21      2.22
   12   19    4      0.12     -0.57
   11   19    4     -0.85      2.45
   10   19    4     -0.68      1.07
    9   19    4     -1.13      1.19
    8   19    4     -1.13      1.65
    7   19    4     -1.16      0.30
    6   19    4     -0.71      0.25
    5   19    4     -0.88      0.86
    4   19    4      0.75     -0.35
    3   19    4     -0.63      1.96
    2   19    4      1.44     -0.17
    1   19    4     -1.17      1.40
    0   19    4     -0.06     -0.13
   20   20    4     -1.02      0.43
   19   20    4      0.14     -0.79
   18   20    4      0.03      0.09
   17   20    4      1.00     -1.55
   16   20    4      1.03     -0.66
   15   20    4      1.33     -1.12
   14   20    4     -0.05      0.21
   13   20    4      0.92     -0.96
   12   20    4     -1.47      2.01
   11   20    4      0.24     -0.04
   10   20    4     -1.06      2.60
    9   20    4     -0.45      1.26
    8   20    4     -0.10      1.78
    7   20    4     -0.87      1.00
    6   20    4      0.13      0.99
    5   20    4     -0.28      0.61
    4   20    4      0.24      1.56
    3   20    4      0.89      0.91
    2   20    4     -0.14      2.11
    1   20    4      0.65      0.80
    0   20    4     -0.84      0.60
   20   21    4     -0.03     -0.60
   19   21    4     -0.25     -0.10
   18   21    4      0.62     -2.09
   17   21    4      1.11     -1.39
   16   21    4      1.11     -1.92
   15   21    4      0.31     -1.89
   14   21    4      0.98     -0.98
   13   21    4     -1.95     -0.27
   12   21    4      0.59     -0.26
   11   21    4     -1.95      2.02
   10   21    4      0.16      0.72
    9   21    4      0.16      2.83
    8   21    4     -0.41      1.10
    7   21    4      1.32      1.65
    6   21    4     -0.63      1.21
    5   21    4      1.37      0.71
    4   21    4      0.09      2.09
    3   21    4      1.07      1.49
    2   21    4      0.64      2.39
    1   21    4      0.13      1.51
    0   21    4     -0.12      2.16
   18   22    4      0.96     -1.09
   17   22    4      0.71     -2.36
   16   22    4      0.99     -2.50
   15   22    4      0.56     -1.15
   14   22    4     -1.44     -2.25
   13   22    4      0.17      0.24
   12   22    4     -2.80      0.01
   11   22    4      0.06      0.92
   10   22    4     -0.81      2.29
    9   22    4      0.02      0.94
    8   22    4      1.59      2.04
    7   22    4     -0.13      0.86
    6   22    4      2.25      0.00
    5   22    4      0.02      2.13
    4   22    4      2.13     -0.08
    3   22    4      0.46      3.71
    2   22    4      1.30      1.34
    1   22    4      0.25      3.92
    0   22    4      0.26      0.81
   17   23    4      1.32     -1.73
   16   23    4      0.29     -1.43
   15   23    4     -0.20     -2.56
   14   23    4     -0.38      0.43
   13   23    4     -2.43     -1.49
   12   23    4     -0.62      1.59
   11   23    4     -1.93      0.88
   10   23    4     -0.19      1.22
    9   23    4      0.61      1.72
    8   23    4      0.41      0.04
    7   23    4      2.19     -0.46
    6   23    4      0.74      0.37
    5   23    4      2.61     -1.89
    4   23    4      0.81      2.96
    3   23    4      2.30      0.13
    2   23    4      0.54      5.06
    1   23    4      1.03      1.41
    0   23    4     -0.19      5.51
   16   24    4      0.76     -1.63
   15   24    4     -0.38     -0.03
   14   24    4     -1.04     -1.57
   13   24    4     -1.07      1.63
   12   24    4     -1.93     -0.02
   11   24    4     -0.82      1.73
   10   24    4     -0.62      1.23
    9   24    4      0.28     -0.22
    8   24    4      1.13     -0.48
    7   24    4      1.39     -2.01
    6   24    4      2.18     -3.19
    5   24    4      1.64     -0.41
    4   24    4      2.69     -1.84
    3   24    4      1.07      3.63
    2   24    4      1.95      1.41
    1   24    4      0.23      6.29
    0   24    4      0.83      0.95
   14   25    4     -0.77      0.73
   13   25    4     -0.91     -0.10
   12   25    4     -1.06      1.56
   11   25    4     -1.02      1.03
   10   25    4     -0.27      0.20
    9   25    4     -0.11      0.15
    8   25    4      1.21     -3.08
    7   25    4      1.04     -3.12
    6   25    4      2.16     -4.32
    5   25    4      2.22     -3.72
    4   25    4      1.73     -0.67
    3   25    4      2.55      0.18
    2   25    4      0.66      4.70
    1   25    4      1.49      1.98
    0   25    4     -0.16      6.91
   12   26    4     -0.56      0.90
   11   26    4     -0.52      0.44
   10   26    4     -0.71      0.87
    9   26    4      0.45     -2.30
    8   26    4     -0.10     -1.62
    7   26    4      1.75     -5.93
    6   26    4      1.18     -4.12
    5   26    4      1.99     -5.26
    4   26    4      2.39     -1.97
    3   26    4      1.02      0.56
    2   26    4      2.21      1.74
    1   26    4      0.13      5.92
    0   26    4      1.37      1.07
   10   27    4     -0.12     -0.93
    9   27    4     -0.68      0.02
    8   27    4      0.67     -4.52
    7   27    4      0.24     -2.55
    6   27    4      1.45     -7.01
    5   27    4      1.60     -3.29
    4   27    4      1.11     -3.77
    3   27    4      2.30     -0.34
    2   27    4      0.28      2.80
    1   27    4      1.84      1.44
    0   27    4     -0.04      5.93
    7   28    4      0.36     -5.32
    6   28    4      0.79     -2.49
    5   28    4      0.73     -5.51
    4   28    4      1.61     -2.43
    3   28    4      0.34     -0.73
    2   28    4      1.84     -0.26
    1   28    4      0.02      4.14
    0   28    4      1.56      0.76
    0   29    4      0.05      3.32
    0    1    5     21.99      0.03
    1    2    5     14.86     -4.17
    0    2    5      0.15      1.30
    2    3    5      6.83     -6.98
    1    3    5      0.00      2.11
    0    3    5      9.85      0.24
    3    4    5      2.28     -5.45
    2    4    5     -0.34      1.97
    1    4    5      3.67     -3.06
    0    4    5      0.23      3.51
    4    5    5      0.33     -3.01
    3    5    5     -0.44      1.14
    2    5    5      0.06     -2.51
    1    5    5     -0.33      3.72
    0    5    5     -0.01      0.11
    5    6    5     -1.49     -3.42
    4    6    5     -0.06      0.28
    3    6    5     -1.63     -1.00
    2    6    5     -0.72      2.81
    1    6    5     -2.55     -0.17
    0    6    5      0.12      4.52
    6    7    5     -2.90     -5.14
    5    7    5      0.49     -0.19
    4    7    5     -2.96     -1.73
    3    7    5     -0.53      1.57
    2    7    5     -3.86      0.49
    1    7    5     -0.67      4.35
    0    7    5     -4.11     -0.17
    7    8    5     -2.15     -4.43
    6    8    5      0.64     -0.41
    5    8    5     -3.42     -3.30
    4    8    5      0.02      0.68
    3    8    5     -4.39     -0.30
    2    8    5     -1.20      3.31
    1    8    5     -4.98      0.34
    0    8    5     -0.07      4.71
    8    9    5      0.55     -1.28
    7    9    5      0.17     -0.72
    6    9    5     -1.93     -2.64
    5    9    5      0.27      0.12
    4    9    5     -3.42     -1.38
    3    9    5     -1.23      2.15
    2    9    5     -4.66     -0.09
    1    9    5     -1.17      4.13
    0    9    5     -4.92     -0.14
    9   10    5      2.91      1.01
    8   10    5     -0.58     -1.16
    7   10    5      0.57     -0.14
    6   10    5     -0.09     -0.55
    5   10    5     -0.95     -0.70
    4   10    5     -0.95      1.20
    3   10    5     -2.61     -0.50
    2   10    5     -1.90      2.97
    1   10    5     -4.04     -0.19
    0   10    5     -0.16      3.65
   10   11    5      3.42      0.85
    9   11    5     -1.08     -1.39
    8   11    5      1.98      1.31
    7   11    5     -0.73     -1.37
    6   11    5      1.15      0.92
    5   11    5     -0.67      0.28
    4   11    5      0.32      0.28
    3   11    5     -1.78      1.90
    2   11    5     -1.83     -0.13
    1   11    5     -1.28      2.78
    0   11    5     -2.94     -0.01
   11   12    5      2.35     -0.09
   10   12    5     -1.13     -1.13
    9   12    5      1.71      0.71
    8   12    5     -1.10     -1.88
    7   12    5      1.27      1.29
    6   12    5     -0.46     -0.67
    5   12    5      1.89      1.25
    4   12    5     -0.99      1.00
    3   12    5      0.68      0.72
    2   12    5     -1.50      1.98
    1   12    5     -1.48      0.20
    0   12    5     -0.08      2.22
   12   13    5      0.62     -0.01
   11   13    5     -0.90     -0.58
   10   13    5      0.75     -0.17
    9   13    5     -0.97     -1.76
    8   13    5      0.13      0.31
    7   13    5     -0.16     -1.40
    6   13    5      1.17      0.94
    5   13    5     -0.05      0.19
    4   13    5      1.69      1.38
    3   13    5     -0.80      1.34
    2   13    5      0.05      1.06
    1   13    5     -0.59      1.85
    0   13    5     -0.98     -0.03
   13   14    5     -1.01      0.69
   12   14    5     -0.65     -0.16
   11   14    5     -0.15     -0.03
   10   14    5     -0.58     -1.27
    9   14    5     -0.51     -0.29
    8   14    5      0.29     -1.75
    7   14    5     -0.14     -0.05
    6   14    5      0.68     -0.52
    5   14    5      0.96      0.91
    4   14    5      0.10      0.79
    3   14    5      0.62      1.67
    2   14    5     -0.39      1.49
    1   14    5     -0.31      0.88
    0   14    5      0.10      1.68
   14   15    5     -1.85      0.78
   13   15    5     -0.50     -0.07
   12   15    5     -0.96      0.38
   11   15    5     -0.32     -0.87
   10   15    5     -0.32      0.04
    9   15    5      0.71     -1.91
    8   15    5     -0.18     -0.22
    7   15    5      1.19     -1.19
    6   15    5      0.32      0.13
    5   15    5      0.63      0.36
    4   15    5      0.35      1.31
    3   15    5     -0.10      1.14
    2   15    5      0.10      1.58
    1   15    5     -0.09      1.40
    0   15    5      0.26      0.01
   15   16    5     -1.46      0.11
   14   16    5     -0.40     -0.07
   13   16    5     -1.53      0.04
   12   16    5     -0.34     -0.64
   11   16    5     -0.21      0.10
   10   16    5      0.75     -1.93
    9   16    5      0.72      0.26
    8   16    5      1.47     -1.95
    7   16    5      1.01      0.13
    6   16    5      0.84     -0.15
    5   16    5      0.59      0.65
    4   16    5     -0.13      1.06
    3   16    5      0.16      1.39
    2   16    5     -0.37      1.12
    1   16    5      0.77      0.80
    0   16    5      0.12      0.94
   16   17    5     -0.23     -0.53
   15   17    5     -0.33      0.22
   14   17    5     -1.48     -0.69
   13   17    5     -0.59     -0.26
   12   17    5     -0.55     -0.75
   11   17    5      0.22     -1.55
   10   17    5      1.07     -0.02
    9   17    5      1.31     -2.48
    8   17    5      1.94      0.35
    7   17    5      0.97     -0.98
    6   17    5      1.66      0.37
    5   17    5     -0.24      1.06
    4   17    5      0.58      0.73
    3   17    5     -0.81      1.27
    2   17    5      0.72      0.73
    1   17    5     -0.37      0.56
    0   17    5      1.55     -0.05
   17   18    5      0.91     -0.68
   16   18    5     -0.33      0.92
   15   18    5     -0.90     -0.86
   14   18    5     -0.87      0.54
   13   18    5     -0.83     -1.48
   12   18    5     -0.72     -0.56
   11   18    5      0.64     -1.18
   10   18    5      0.49     -2.14
    9   18    5      1.71     -0.36
    8   18    5      0.92     -1.83
    7   18    5      2.11     -0.04
    6   18    5     -0.09      0.58
    5   18    5      1.28      0.10
    4   18    5     -1.06      1.66
    3   18    5      0.42      0.13
    2   18    5     -0.97      0.62
    1   18    5      1.10     -0.12
    0   18    5      0.00     -0.29
   18   19    5      1.43     -0.53
   17   19    5     -0.37      1.69
   16   19    5     -0.36     -0.29
   15   19    5     -1.06      1.70
   14   19    5     -0.81     -0.99
   13   19    5     -1.63      0.77
   12   19    5      0.38     -1.71
   11   19    5     -0.84     -0.84
   10   19    5      0.87     -1.59
    9   19    5      0.39     -1.89
    8   19    5      1.04     -1.18
    7   19    5      0.25     -0.40
    6   19    5      1.11     -0.72
    5   19    5     -0.78      1.48
    4   19    5      0.20     -0.49
    3   19    5     -1.30      0.91
    2   19    5     -0.08     -0.66
    1   19    5     -0.64     -0.81
    0   19    5      0.52     -0.55
   19   20    5      1.39     -0.50
   18   20    5     -0.37      1.97
   17   20    5     -0.12      0.32
   16   20    5     -1.07      2.76
   15   20    5     -0.81      0.39
   14   20    5     -2.05      1.96
   13   20    5      0.59     -0.65
   12   20    5     -2.06      0.63
   11   20    5      0.93     -1.74
   10   20    5     -0.62     -0.97
    9   20    5     -0.21     -2.25
    8   20    5      0.39     -1.08
    7   20    5     -0.34     -1.83
    6   20    5     -0.11      0.50
    5   20    5     -0.35     -1.05
    4   20    5     -1.13      0.73
    3   20    5     -1.03     -1.07
    2   20    5     -1.21     -1.17
    1   20    5     -0.83     -1.15
    0   20    5      0.02     -2.54
   19   21    5     -0.28      1.43
   18   21    5     -0.05      0.40
   17   21    5     -0.90      3.06
   16   21    5     -0.97      1.44
   15   21    5     -1.80      2.68
   14   21    5      0.62      1.16
   13   21    5     -2.49      1.45
   12   21    5      1.94     -0.30
   11   21    5     -1.59      0.09
   10   21    5      0.16     -1.96
    9   21    5      0.12     -0.93
    8   21    5     -1.60     -2.39
    7   21    5      0.58     -0.45
    6   21    5     -1.41     -1.38
    5   21    5     -0.50      0.06
    4   21    5     -1.47     -1.07
    3   21    5     -1.53     -1.52
    2   21    5     -1.65     -1.67
    1   21    5     -0.83     -3.83
    0   21    5     -1.10     -1.05
   18   22    5     -0.62      2.25
   17   22    5     -0.99      1.45
   16   22    5     -1.16      2.73
   15   22    5      0.15      2.23
   14   22    5     -1.94      1.59
   13   22    5      2.55      1.51
   12   22    5     -1.88      0.45
   11   22    5      1.87     -0.39
   10   22    5     -0.35     -0.47
    9   22    5     -1.12     -1.71
    8   22    5      0.92     -0.64
    7   22    5     -2.14     -0.99
    6   22    5      0.36     -0.22
    5   22    5     -1.68     -0.38
    4   22    5     -1.37     -1.38
    3   22    5     -1.56     -1.73
    2   22    5     -1.81     -4.35
    1   22    5     -0.98     -2.01
    0   22    5      0.15     -6.11
   17   23    5     -0.59      1.99
   16   23    5     -0.35      2.00
   15   23    5     -0.91      1.42
   14   23    5      2.01      2.27
   13   23    5     -1.29      0.28
   12   23    5      3.06      1.11
   11   23    5     -0.60     -0.36
   10   23    5      0.63     -0.37
    9   23    5      0.81     -0.39
    8   23    5     -1.73      0.03
    7   23    5      1.04      0.34
    6   23    5     -1.68      1.08
    5   23    5     -0.63      0.00
    4   23    5     -1.05     -0.80
    3   23    5     -2.30     -3.17
    2   23    5     -0.30     -3.07
    1   23    5     -1.27     -6.82
    0   23    5      0.69     -1.05
   15   24    5      0.95      1.80
   14   24    5     -0.33      0.21
   13   24    5      2.72      1.53
   12   24    5     -0.42     -0.46
   11   24    5      1.93      0.53
   10   24    5      0.40     -0.35
    9   24    5     -0.57      0.81
    8   24    5      1.17      0.99
    7   24    5     -1.43      2.53
    6   24    5      0.34      2.22
    5   24    5     -0.70      1.26
    4   24    5     -1.77      0.06
    3   24    5      0.28     -3.16
    2   24    5     -2.34     -5.15
    1   24    5      1.59     -3.24
    0   24    5      0.13     -8.05
   14   25    5      1.55      1.05
   13   25    5      0.02     -0.25
   12   25    5      1.93      0.60
   11   25    5      0.02     -0.45
   10   25    5      0.34      0.76
    9   25    5      0.68      0.85
    8   25    5     -1.08      2.79
    7   25    5      0.85      3.61
    6   25    5     -0.72      3.30
    5   25    5     -0.53      3.95
    4   25    5      0.33     -1.41
    3   25    5     -2.16     -1.03
    2   25    5      1.63     -5.03
    1   25    5     -1.28     -7.01
    0   25    5      2.69     -0.78
   12   26    5     -0.12     -0.23
   11   26    5      0.62      0.28
   10   26    5     -0.01      0.15
    9   26    5     -0.76      1.76
    8   26    5      0.61      3.03
    7   26    5     -1.01      3.70
    6   26    5      0.50      5.98
    5   26    5     -0.11      1.18
    4   26    5     -0.89      3.61
    3   26    5      0.97     -4.44
    2   26    5     -1.58     -3.56
    1   26    5      2.06     -3.84
    0   26    5      0.04     -7.63
    9   27    5      0.01      1.21
    8   27    5     -1.14      2.34
    7   27    5      0.71      4.98
    6   27    5     -0.70      2.48
    5   27    5      0.41      5.99
    4   27    5      0.16     -1.77
    3   27    5     -0.73      0.69
    2   27    5      0.87     -4.66
    1   27    5     -0.65     -5.90
    0   27    5      1.36     -0.41
    6   28    5      0.94      5.07
    5   28    5     -0.38      0.51
    4   28    5      0.37      3.24
    3   28    5      0.04     -2.70
    2   28    5     -0.42     -2.58
    1   28    5      0.27     -2.20
    0   28    5     -0.04     -5.86
    0    0    6    -23.29      0.16
    1    1    6    -19.63      2.30
    0    1    6     -0.07     -0.01
    2    2    6    -12.58      6.22
    1    2    6     -0.08     -0.13
    0    2    6    -16.88     -0.21
    3    3    6     -6.86      7.06
    2    3    6      0.14     -0.35
    1    3    6    -10.62      3.79
    0    3    6     -0.12     -0.68
    4    4    6     -3.21      4.27
    3    4    6      0.35     -0.42
    2    4    6     -5.40      4.93
    1    4    6      0.26     -1.39
    0    4    6     -6.36     -0.44
    5    5    6      0.29      1.50
    4    5    6      0.21     -0.16
    3    5    6     -1.86      2.68
    2    5    6      0.59     -1.59
    1    5    6     -2.10      1.32
    0    5    6     -0.21     -2.46
    6    6    6      3.30      1.24
    5    6    6     -0.28      0.23
    4    6    6      1.53      0.47
    3    6    6      0.24     -0.91
    2    6    6      1.23      0.13
    1    6    6      0.29     -2.90
    0    6    6      1.11     -0.29
    7    7    6      3.32      2.21
    6    7    6     -0.72      0.36
    5    7    6      4.14      0.55
    4    7    6     -0.74      0.06
    3    7    6      4.21     -1.18
    2    7    6      0.33     -2.12
    1    7    6      3.99     -0.91
    0    7    6     -0.31     -3.38
    8    8    6      0.02      2.21
    7    8    6     -0.76      0.17
    6    8    6      3.65      1.67
    5    8    6     -1.52      0.43
    4    8    6      5.64     -0.73
    3    8    6     -0.26     -0.84
    2    8    6      6.02     -1.74
    1    8    6      0.21     -2.93
    0    8    6      5.58     -0.13
    9    9    6     -3.58      1.17
    8    9    6     -0.42     -0.04
    7    9    6      0.22      1.81
    6    9    6     -1.38      0.08
    5    9    6      3.89      0.46
    4    9    6     -0.79     -0.22
    3    9    6      5.90     -1.33
    2    9    6      0.43     -1.89
    1    9    6      6.14     -1.05
    0    9    6     -0.18     -2.84
   10   10    6     -4.82      0.32
    9   10    6     -0.08      0.04
    8   10    6     -2.99      0.96
    7   10    6     -0.55     -0.26
    6   10    6      0.24      0.81
    5   10    6     -0.59     -0.43
    4   10    6      2.99     -0.37
    3   10    6      0.44     -1.26
    2   10    6      4.72     -1.02
    1   10    6      0.51     -2.58
    0   10    6      5.02     -0.16
   11   11    6     -3.97     -0.06
   10   11    6      0.02      0.41
    9   11    6     -3.69      0.26
    8   11    6      0.06      0.06
    7   11    6     -1.96      0.41
    6   11    6      0.16     -0.65
    5   11    6     -0.48      0.04
    4   11    6      0.64     -1.15
    3   11    6      1.54     -0.53
    2   11    6      0.91     -2.32
    1   11    6      3.14     -0.48
    0   11    6      0.07     -2.94
   12   12    6     -2.54     -0.64
   11   12    6     -0.03      0.78
   10   12    6     -2.67     -0.06
    9   12    6      0.00      0.94
    8   12    6     -1.44      0.08
    7   12    6      0.53     -0.18
    6   12    6     -1.48     -0.01
    5   12    6      1.04     -0.98
    4   12    6     -1.12     -0.29
    3   12    6      1.10     -1.95
    2   12    6      0.72     -0.44
    1   12    6      0.51     -3.18
    0   12    6      1.65     -0.09
   13   13    6     -1.02     -1.56
   12   13    6      0.02      0.93
   11   13    6     -1.58     -0.57
   10   13    6     -0.31      1.82
    9   13    6     -0.13     -0.11
    8   13    6      0.06      0.91
    7   13    6      0.01     -0.07
    6   13    6      1.09     -0.32
    5   13    6     -1.21     -0.27
    4   13    6      1.33     -1.23
    3   13    6     -0.77     -0.52
    2   13    6      0.69     -2.70
    1   13    6      0.46     -0.33
    0   13    6     -0.01     -3.42
   14   14    6      0.55     -2.15
   13   14    6      0.16      0.83
   12   14    6     -0.68     -1.29
   11   14    6     -0.21      2.29
   10   14    6      0.09     -0.52
    9   14    6     -0.66      2.07
    8   14    6      1.22     -0.23
    7   14    6      0.41      0.70
    6   14    6      0.31     -0.28
    5   14    6      1.44     -0.32
    4   14    6     -0.49     -0.65
    3   14    6      0.98     -1.55
    2   14    6     -0.14     -0.73
    1   14    6      0.11     -2.90
    0   14    6     -0.01      0.01
   15   15    6      1.51     -2.02
   14   15    6      0.17      0.55
   13   15    6      0.41     -1.59
   12   15    6      0.28      2.21
   11   15    6     -0.34     -0.90
   10   15    6     -0.71      2.87
    9   15    6      0.56     -0.62
    8   15    6     -0.51      1.84
    7   15    6      0.81     -0.43
    6   15    6      1.09      0.49
    5   15    6      0.28     -0.68
    4   15    6      1.47     -0.50
    3   15    6      0.05     -1.11
    2   15    6      0.48     -1.67
    1   15    6     -0.44     -0.61
    0   15    6     -0.19     -2.14
   16   16    6      1.19     -1.55
   15   16    6     -0.04      0.13
   14   16    6      1.31     -1.29
   13   16    6      0.55      1.59
   12   16    6     -0.17     -0.71
   11   16    6      0.02      3.03
   10   16    6     -0.75     -0.74
    9   16    6     -0.77      2.85
    8   16    6     -0.35     -0.66
    7   16    6      0.40      1.30
    6   16    6     -0.14     -0.59
    5   16    6      1.73     -0.07
    4   16    6      0.13     -1.12
    3   16    6      1.22     -0.80
    2   16    6     -0.45     -1.19
    1   16    6      0.14     -1.09
    0   16    6     -1.26      0.03
   17   17    6      0.00     -1.17
   16   17    6     -0.28     -0.38
   15   17    6      1.33     -0.89
   14   17    6      0.27      0.46
   13   17    6      0.65     -0.09
   12   17    6      0.80      2.33
   11   17    6     -1.02     -0.22
   10   17    6     -0.08      3.29
    9   17    6     -1.44     -0.51
    8   17    6     -0.01      2.26
    7   17    6     -1.28     -0.28
    6   17    6      1.50      0.21
    5   17    6     -0.62     -0.60
    4   17    6      1.87     -0.90
    3   17    6     -0.27     -1.22
    2   17    6      0.82     -0.57
    1   17    6     -1.24     -0.59
    0   17    6     -0.07      0.03
   18   18    6     -1.01     -0.77
   17   18    6     -0.31     -0.83
   16   18    6      0.62     -0.81
   15   18    6     -0.22     -0.93
   14   18    6      1.32      0.16
   13   18    6      1.04      0.82
   12   18    6     -0.26      0.46
   11   18    6      1.05      2.67
   10   18    6     -1.26      0.07
    9   18    6      0.30      2.91
    8   18    6     -1.37      0.34
    7   18    6      1.00      0.96
    6   18    6     -1.24      0.46
    5   18    6      1.93     -1.20
    4   18    6     -0.38     -0.41
    3   18    6      1.47     -1.09
    2   18    6     -0.27     -0.70
    1   18    6      0.44      0.57
    0   18    6     -0.81      0.39
   19   19    6     -1.27     -0.02
   18   19    6     -0.15     -0.98
   17   19    6     -0.11     -0.76
   16   19    6     -0.34     -2.07
   15   19    6      1.50     -0.29
   14   19    6      0.84     -0.95
   13   19    6      0.58      0.41
   12   19    6      1.91      1.08
   11   19    6     -0.59      0.42
   10   19    6      1.20      2.48
    9   19    6     -0.33      0.89
    8   19    6      0.69      1.81
    7   19    6     -0.44      1.61
    6   19    6      1.35     -0.69
    5   19    6     -0.31      1.07
    4   19    6      1.63     -1.80
    3   19    6      0.67      0.07
    2   19    6      0.99      0.20
    1   19    6      0.87      0.30
    0   19    6      0.08      2.00
   20   20    6     -0.91      0.93
   19   20    6      0.02     -0.70
   18   20    6     -0.45     -0.26
   17   20    6     -0.04     -2.43
   16   20    6      1.31     -0.89
   15   20    6      0.66     -2.26
   14   20    6      1.10     -0.52
   13   20    6      2.20     -0.65
   12   20    6     -0.42     -0.14
   11   20    6      2.16      0.99
   10   20    6      0.16      0.66
    9   20    6      0.81      1.71
    8   20    6      1.06      2.03
    7   20    6      0.44      0.32
    6   20    6      0.59      2.36
    5   20    6      1.07     -1.64
    4   20    6      1.01      1.44
    3   20    6      1.36     -0.59
    2   20    6      2.16      0.93
    1   20    6      0.66      2.55
    0   20    6      2.36      1.02
   19   21    6     -0.43      0.59
   18   21    6      0.30     -1.81
   17   21    6      0.84     -0.87
   16   21    6      0.61     -2.59
   15   21    6      1.25     -1.50
   14   21    6      1.94     -1.66
   13   21    6     -0.53     -1.35
   12   21    6      2.68     -0.51
   11   21    6     -0.74     -0.49
   10   21    6      1.28      0.50
    9   21    6      1.28      1.19
    8   21    6     -0.32      0.62
    7   21    6      1.69      2.37
    6   21    6     -0.16     -0.86
    5   21    6      1.07      2.35
    4   21    6      1.14     -1.08
    3   21    6      1.89      2.11
    2   21    6      1.50      2.08
    1   21    6      2.79      1.71
    0   21    6     -0.02      4.52
   17   22    6      0.53     -1.91
   16   22    6      0.89     -1.67
   15   22    6      1.28     -1.70
   14   22    6     -0.44     -2.25
   13   22    6      2.42     -1.09
   12   22    6     -1.89     -1.81
   11   22    6      1.75     -0.77
   10   22    6     -0.27     -0.41
    9   22    6     -0.49     -0.20
    8   22    6      1.65      0.92
    7   22    6     -1.54     -0.56
    6   22    6      1.08      1.66
    5   22    6     -0.02     -1.36
    4   22    6      0.58      2.71
    3   22    6      2.04      0.75
    2   22    6      1.25      3.16
    1   22    6      1.33      4.74
    0   22    6      1.32      1.19
   16   23    6      0.50     -1.13
   15   23    6     -0.35     -2.16
   14   23    6      1.42     -0.80
   13   23    6     -2.09     -2.38
   12   23    6      1.75     -1.10
   11   23    6     -1.94     -1.65
   10   23    6     -0.03     -1.21
    9   23    6      0.40     -0.90
    8   23    6     -2.18     -1.14
    7   23    6      0.95     -0.45
    6   23    6     -1.76     -1.96
    5   23    6     -0.50      1.51
    4   23    6      1.34     -1.23
    3   23    6     -1.17      4.26
    2   23    6      2.82      2.99
    1   23    6     -1.27      3.21
    0   23    6     -0.05      5.89
   15   24    6      0.25     -0.29
   14   24    6     -1.54     -1.91
   13   24    6      1.05     -0.62
   12   24    6     -2.34     -1.82
   11   24    6      0.56     -1.42
   10   24    6     -0.82     -1.77
    9   24    6     -1.60     -1.76
    8   24    6      0.73     -2.37
    7   24    6     -2.84     -2.71
    6   24    6     -0.49     -1.16
    5   24    6     -0.56     -3.40
    4   24    6     -2.64      3.40
    3   24    6      2.95     -0.26
    2   24    6     -3.77      5.58
    1   24    6      2.14      4.80
    0   24    6     -4.39      0.74
   13   25    6     -1.73     -1.11
   12   25    6      0.64     -0.87
   11   25    6     -1.20     -1.39
   10   25    6     -0.33     -1.61
    9   25    6      0.62     -2.71
    8   25    6     -2.32     -2.78
    7   25    6      0.47     -3.37
    6   25    6     -2.24     -4.71
    5   25    6     -2.20      0.57
    4   25    6      1.23     -3.71
    3   25    6     -4.63      6.07
    2   25    6      3.28      1.83
    1   25    6     -5.84      4.26
    0   25    6      0.06      5.48
   11   26    6      0.51     -0.85
   10   26    6      0.46     -1.65
    9   26    6     -0.71     -1.83
    8   26    6      1.49     -3.52
    7   26    6     -2.26     -4.25
    6   26    6     -0.40     -2.19
    5   26    6     -0.96     -5.60
    4   26    6     -3.53      3.82
    3   26    6      2.29     -1.70
    2   26    6     -5.44      6.49
    1   26    6      1.93      4.39
    0   26    6     -6.11      0.21
    8   27    6     -0.88     -2.33
    7   27    6      1.23     -2.88
    6   27    6     -1.81     -4.95
    5   27    6     -1.41      0.63
    4   27    6      0.16     -3.88
    3   27    6     -3.71      5.55
    2   27    6      2.02      1.91
    1   27    6     -4.61      3.63
    0   27    6      0.06      5.65
    4   28    6     -1.65      2.64
    3   28    6      0.68     -0.37
    2   28    6     -2.63      4.24
    1   28    6      0.93      4.39
    0   28    6     -2.84     -0.12
    0    1    7     18.22     -0.16
    1    2    7     13.36     -2.06
    0    2    7      0.00     -0.64
    2    3    7      7.88     -3.25
    1    3    7     -0.12     -0.62
    0    3    7      9.78      0.13
    3    4    7      4.21     -1.72
    2    4    7     -0.35      0.02
    1    4    7      5.29     -1.23
    0    4    7     -0.05     -0.24
    4    5    7      1.27      1.31
    3    5    7     -0.32      0.39
    2    5    7      2.01     -0.13
    1    5    7     -0.28      0.58
    0    5    7      2.05      0.30
    5    6    7     -1.86      2.90
    4    6    7      0.19      0.14
    3    6    7     -0.83      2.27
    2    6    7     -0.28      0.85
    1    6    7     -0.73      0.98
    0    6    7      0.16      1.12
    6    7    7     -3.53      1.86
    5    7    7      0.92     -0.17
    4    7    7     -3.55      3.30
    3    7    7      0.27      0.26
    2    7    7     -3.21      2.74
    1    7    7     -0.01      0.94
    0    7    7     -2.85      0.30
    7    8    7     -2.22     -0.38
    6    8    7      1.32      0.11
    5    8    7     -4.39      1.95
    4    8    7      1.07     -0.25
    3    8    7     -5.01      3.29
    2    8    7      0.12      0.16
    1    8    7     -4.36      1.88
    0    8    7      0.32      0.48
    8    9    7      0.68     -1.82
    7    9    7      1.15      0.81
    6    9    7     -2.44     -0.35
    5    9    7      1.42      0.20
    4    9    7     -4.58      1.82
    3    9    7      0.51     -0.28
    2    9    7     -4.81      2.41
    1    9    7      0.10      0.05
    0    9    7     -4.31      0.32
    9   10    7      2.65     -1.79
    8   10    7      0.77      1.11
    7   10    7      0.34     -1.70
    6   10    7      1.00      1.21
    5   10    7     -1.94     -0.31
    4   10    7      0.60      0.24
    3   10    7     -3.35      1.24
    2   10    7      0.09      0.17
    1   10    7     -3.47      1.08
    0   10    7      0.09      0.38
   10   11    7      3.15     -0.84
    9   11    7      0.64      0.52
    8   11    7      1.55     -1.59
    7   11    7      0.39      1.63
    6   11    7      0.41     -1.39
    5   11    7      0.00      1.14
    4   11    7     -0.67     -0.40
    3   11    7     -0.01      0.74
    2   11    7     -1.71      0.46
    1   11    7      0.04      1.27
    0   11    7     -1.91      0.25
   11   12    7      3.17      0.45
   10   12    7      0.68     -0.66
    9   12    7      1.33     -0.67
    8   12    7      0.32      0.81
    7   12    7      0.49     -1.09
    6   12    7     -0.76      1.39
    5   12    7      0.85     -1.03
    4   12    7     -0.69      1.08
    3   12    7      0.20     -0.54
    2   12    7      0.00      1.82
    1   12    7     -0.66      0.02
    0   12    7     -0.05      2.37
   12   13    7      2.87      1.78
   11   13    7      0.48     -1.69
   10   13    7      1.30      0.37
    9   13    7      0.67     -0.80
    8   13    7     -0.58     -0.21
    7   13    7     -0.84      0.62
    6   13    7      0.10     -0.49
    5   13    7     -1.65      0.75
    4   13    7      0.79     -0.71
    3   13    7     -0.62      1.40
    2   13    7      0.20     -0.46
    1   13    7      0.14      2.71
    0   13    7     -0.07      0.13
   13   14    7      1.56      2.85
   12   14    7     -0.08     -2.07
   11   14    7      1.72      1.27
   10   14    7      0.60     -2.30
    9   14    7     -0.61      0.52
    8   14    7     -0.26     -0.76
    7   14    7     -1.24      0.37
    6   14    7     -2.02     -0.05
    5   14    7     -0.10      0.00
    4   14    7     -1.77      0.34
    3   14    7      0.22     -0.30
    2   14    7     -0.28      1.75
    1   14    7      0.18     -0.10
    0   14    7      0.16      2.47
   14   15    7     -0.45      3.40
   13   15    7     -0.47     -1.76
   12   15    7      1.46      1.84
   11   15    7     -0.17     -3.03
   10   15    7      0.58      0.90
    9   15    7      0.05     -2.15
    8   15    7     -1.13      0.82
    7   15    7     -1.54     -1.00
    6   15    7     -0.92      0.70
    5   15    7     -2.60     -0.60
    4   15    7     -0.28      0.38
    3   15    7     -1.44      0.34
    2   15    7      0.19      0.18
    1   15    7     -0.07      1.40
    0   15    7      0.68      0.08
   15   16    7     -1.79      3.53
   14   16    7     -0.20     -0.97
   13   16    7      0.17      1.99
   12   16    7     -0.88     -2.82
   11   16    7      1.42      0.95
   10   16    7     -0.46     -3.08
    9   16    7      0.21      0.82
    8   16    7     -0.96     -2.04
    7   16    7     -0.57      0.76
    6   16    7     -2.50     -1.20
    5   16    7     -0.36      0.68
    4   16    7     -2.53     -0.46
    3   16    7      0.04      0.69
    2   16    7     -1.03      0.25
    1   16    7      0.94      0.31
    0   16    7      0.19      0.32
   16   17    7     -1.67      3.45
   15   17    7      0.49     -0.02
   14   17    7     -1.21      1.93
   13   17    7     -0.67     -1.80
   12   17    7      0.96      0.75
   11   17    7     -1.22     -3.21
   10   17    7      1.23      0.64
    9   17    7     -1.04     -3.00
    8   17    7      0.24      0.40
    7   17    7     -1.90     -1.93
    6   17    7      0.08      0.11
    5   17    7     -2.73     -0.68
    4   17    7      0.09      0.52
    3   17    7     -2.01     -0.03
    2   17    7      0.57      0.68
    1   17    7     -0.56     -0.41
    0   17    7      1.18     -0.22
   17   18    7     -0.71      2.98
   16   18    7      0.88      0.76
   15   18    7     -1.77      1.97
   14   18    7      0.27     -0.40
   13   18    7     -0.27      0.60
   12   18    7     -1.26     -2.39
   11   18    7      1.22      0.50
   10   18    7     -1.57     -3.33
    9   18    7      0.55      0.21
    8   18    7     -1.59     -2.81
    7   18    7      0.12     -0.75
    6   18    7     -2.18     -1.13
    5   18    7      0.19     -0.68
    4   18    7     -2.23      0.30
    3   18    7     -0.09      0.27
    2   18    7     -1.31     -0.28
    1   18    7      0.05      0.04
    0   18    7     -0.02     -1.31
   18   19    7      0.02      1.70
   17   19    7      0.57      1.08
   16   19    7     -1.55      1.94
   15   19    7      0.90      0.78
   14   19    7     -1.44      0.82
   13   19    7     -0.56     -1.03
   12   19    7      0.56      0.58
   11   19    7     -1.79     -2.60
   10   19    7      0.61      0.47
    9   19    7     -1.71     -3.05
    8   19    7     -0.37     -0.96
    7   19    7     -1.55     -1.88
    6   19    7     -0.22     -2.04
    5   19    7     -1.67      0.29
    4   19    7     -0.53     -1.22
    3   19    7     -1.50      0.52
    2   19    7     -1.48     -0.32
    1   19    7     -0.67     -1.46
    0   19    7     -1.82     -0.81
   19   20    7      0.13     -0.14
   18   20    7     -0.07      0.86
   17   20    7     -0.97      1.30
   16   20    7      0.61      1.29
   15   20    7     -2.02      1.26
   14   20    7      0.09      0.14
   13   20    7     -0.36      1.06
   12   20    7     -1.44     -1.25
   11   20    7      0.92      1.10
   10   20    7     -1.83     -2.06
    9   20    7     -0.24     -0.19
    8   20    7     -1.16     -1.95
    7   20    7     -0.82     -2.28
    6   20    7     -0.77     -0.17
    5   20    7     -0.69     -2.79
    4   20    7     -1.07      1.16
    3   20    7     -1.98     -1.72
    2   20    7     -1.11     -0.68
    1   20    7     -3.48     -1.09
    0   20    7     -0.05     -2.60
   18   21    7     -0.37      0.07
   17   21    7     -0.15      1.06
   16   21    7     -1.72      1.31
   15   21    7      0.13      0.62
   14   21    7     -1.21      1.72
   13   21    7     -0.86     -0.21
   12   21    7      1.04      1.87
   11   21    7     -1.63     -0.46
   10   21    7      1.01      1.08
    9   21    7     -0.93     -0.68
    8   21    7     -0.40     -1.03
    7   21    7      0.13     -0.10
    6   21    7     -0.49     -2.92
    5   21    7     -0.12      1.42
    4   21    7     -1.08     -3.21
    3   21    7     -1.26      0.65
    2   21    7     -3.11     -2.34
    1   21    7     -0.90     -2.40
    0   21    7     -4.13     -1.03
   17   22    7     -0.66      0.69
   16   22    7     -0.15      0.48
   15   22    7     -1.33      1.96
   14   22    7     -0.41      0.00
   13   22    7      0.47      2.45
   12   22    7     -1.19      0.51
   11   22    7      2.15      2.11
   10   22    7     -0.77      1.13
    9   22    7      1.19      0.81
    8   22    7      0.76      1.11
    7   22    7      0.32     -1.19
    6   22    7      1.16      1.86
    5   22    7      0.43     -3.17
    4   22    7     -0.77      2.07
    3   22    7     -0.72     -3.89
    2   22    7     -2.05     -0.74
    1   22    7     -2.38     -2.35
    0   22    7      0.00     -3.00
   15   23    7     -0.08     -0.25
   14   23    7     -0.20      2.41
   13   23    7     -0.63      0.33
   12   23    7      1.91      2.44
   11   23    7     -0.67      2.01
   10   23    7      2.48      2.00
    9   23    7      0.82      2.67
    8   23    7      1.41      1.15
    7   23    7      2.20      2.83
    6   23    7      1.51     -1.07
    5   23    7      0.61      3.37
    4   23    7      1.91     -4.04
    3   23    7     -2.58      1.71
    2   23    7      1.05     -4.37
    1   23    7     -2.01     -1.78
    0   23    7      0.50     -0.63
   14   24    7     -0.05     -0.36
   13   24    7      0.79      1.94
   12   24    7     -0.47      1.43
   11   24    7      2.26      1.98
   10   24    7      0.31      3.20
    9   24    7      1.83      2.42
    8   24    7      2.21      3.68
    7   24    7      1.56      1.71
    6   24    7      2.14      4.29
    5   24    7      2.98     -1.97
    4   24    7     -1.58      3.96
    3   24    7      3.92     -5.35
    2   24    7     -3.81      0.66
    1   24    7      3.74     -3.23
    0   24    7     -0.14     -1.70
   12   25    7      1.08      1.07
   11   25    7     -0.19      2.30
   10   25    7      1.28      2.02
    9   25    7      1.11      3.53
    8   25    7      0.65      3.14
    7   25    7      2.50      4.38
    6   25    7      2.00      1.08
    5   25    7      0.41      5.11
    4   25    7      4.54     -3.95
    3   25    7     -3.71      3.10
    2   25    7      5.69     -5.39
    1   25    7     -2.85     -0.72
    0   25    7      5.83     -0.10
   10   26    7     -0.07      2.32
    9   26    7     -0.32      2.52
    8   26    7      1.32      3.40
    7   26    7      0.05      2.90
    6   26    7      1.61      4.74
    5   26    7      2.94     -0.98
    4   26    7     -1.69      4.38
    3   26    7      5.48     -5.21
    2   26    7     -3.91      0.71
    1   26    7      6.16     -3.13
    0   26    7     -0.20     -1.83
    7   27    7      1.07      3.13
    6   27    7      0.63      1.33
    5   27    7      0.33      4.00
    4   27    7      3.62     -2.85
    3   27    7     -2.60      1.78
    2   27    7      5.01     -4.24
    1   27    7     -2.12     -2.02
    0   27    7      5.13      0.14
    0    0    8    -12.75     -0.02
    1    1    8    -10.44     -0.18
    0    1    8     -0.01      0.34
    2    2    8     -6.12     -0.65
    1    2    8     -0.01      0.77
    0    2    8     -8.60      0.04
    3    3    8     -3.13     -1.75
    2    3    8      0.07      0.57
    1    3    8     -4.89     -0.46
    0    3    8      0.07      1.54
    4    4    8     -1.84     -3.33
    3    4    8      0.21      0.08
    2    4    8     -2.39     -1.65
    1    4    8      0.16      1.15
    0    4    8     -2.53      0.06
    5    5    8     -0.39     -4.35
    4    5    8      0.26     -0.18
    3    5    8     -1.25     -3.29
    2    5    8      0.34      0.19
    1    5    8     -0.93     -1.18
    0    5    8      0.06      0.81
    6    6    8      1.69     -3.75
    5    6    8      0.11     -0.08
    4    6    8      0.19     -4.30
    3    6    8      0.44     -0.26
    2    6    8     -0.07     -2.89
    1    6    8      0.26      0.41
    0    6    8      0.07      0.02
    7    7    8      2.93     -1.63
    6    7    8     -0.17      0.03
    5    7    8      2.16     -3.60
    4    7    8      0.20     -0.05
    3    7    8      1.28     -3.90
    2    7    8      0.49      0.42
    1    7    8      0.57     -1.78
    0    7    8     -0.13      0.84
    8    8    8      2.47      0.67
    7    8    8     -0.39     -0.12
    6    8    8      3.12     -1.40
    5    8    8     -0.31      0.10
    4    8    8      2.80     -3.12
    3    8    8      0.34      0.68
    2    8    8      1.48     -2.92
    1    8    8      0.22      1.35
    0    8    8      0.71     -0.10
    9    9    8      1.05      1.89
    8    9    8     -0.42     -0.37
    7    9    8      2.41      0.86
    6    9    8     -0.67     -0.29
    5    9    8      3.04     -0.93
    4    9    8     -0.16      0.55
    3    9    8      2.30     -2.33
    2    9    8      0.21      1.32
    1    9    8      0.77     -1.43
    0    9    8     -0.08      1.61
   10   10    8     -0.50      1.81
    9   10    8     -0.32     -0.37
    8   10    8      1.03      1.95
    7   10    8     -0.64     -0.82
    6   10    8      1.91      1.09
    5   10    8     -0.45     -0.16
    4   10    8      1.94     -0.44
    3   10    8     -0.21      0.62
    2   10    8      0.88     -1.25
    1   10    8     -0.06      0.93
    0   10    8      0.08     -0.14
   11   11    8     -2.08      0.82
   10   11    8     -0.19      0.02
    9   11    8     -0.22      1.77
    8   11    8     -0.38     -0.78
    7   11    8      0.80      1.77
    6   11    8     -0.14     -0.85
    5   11    8      0.74      1.07
    4   11    8     -0.34     -0.28
    3   11    8      0.40      0.04
    2   11    8     -0.51     -0.23
    1   11    8     -0.23     -0.31
    0   11    8      0.11     -0.35
   12   12    8     -3.25     -0.82
   11   12    8     -0.02      0.56
   10   12    8     -1.48      0.86
    9   12    8     -0.13      0.03
    8   12    8      0.36      1.35
    7   12    8      0.47     -0.84
    6   12    8      0.17      1.16
    5   12    8      0.33     -0.76
    4   12    8     -0.31      0.90
    3   12    8     -0.60     -0.93
    2   12    8     -0.38      0.41
    1   12    8     -0.48     -1.39
    0   12    8     -0.55     -0.08
   13   13    8     -2.93     -2.84
   12   13    8      0.25      0.89
   11   13    8     -2.62     -0.52
   10   13    8      0.24      1.14
    9   13    8     -0.14      0.65
    8   13    8      0.91     -0.07
    7   13    8      0.57      0.41
    6   13    8      1.38     -0.58
    5   13    8     -0.30      0.45
    4   13    8      0.29     -0.81
    3   13    8     -0.45      0.74
    2   13    8     -0.69     -1.45
    1   13    8     -0.31      0.34
    0   13    8      0.01     -1.75
   14   14    8     -0.88     -4.60
   13   14    8      0.47      0.89
   12   14    8     -2.66     -2.19
   11   14    8      0.85      1.92
   10   14    8     -1.16     -0.09
    9   14    8      1.23      1.00
    8   14    8      0.84     -0.12
    7   14    8      2.02      0.07
    6   14    8      0.48     -0.55
    5   14    8      1.61     -0.19
    4   14    8     -0.14      0.05
    3   14    8      0.16     -0.71
    2   14    8     -0.08      0.48
    1   14    8     -0.34     -1.07
    0   14    8     -0.20     -0.11
   15   15    8      1.47     -5.45
   14   15    8      0.44      0.64
   13   15    8     -1.18     -3.62
   12   15    8      1.40      2.06
   11   15    8     -1.94     -0.99
   10   15    8      1.72      1.87
    9   15    8      0.15     -0.26
    8   15    8      2.19      0.90
    7   15    8      1.06     -0.96
    6   15    8      2.36      0.54
    5   15    8      0.42     -0.92
    4   15    8      1.45      0.16
    3   15    8      0.10     -0.11
    2   15    8      0.34     -0.09
    1   15    8     -0.16      0.09
    0   15    8     -0.14      0.07
   16   16    8      2.48     -5.35
   15   16    8      0.16      0.33
   14   16    8      0.82     -4.25
   13   16    8      1.28      1.63
   12   16    8     -1.65     -1.80
   11   16    8      2.12      2.27
   10   16    8     -0.97     -0.49
    9   16    8      2.33      1.73
    8   16    8      0.84     -0.76
    7   16    8      2.37      1.36
    6   16    8      0.82     -1.11
    5   16    8      2.09      0.93
    4   16    8      0.27     -0.72
    3   16    8      1.42      0.49
    2   16    8     -0.16     -0.20
    1   16    8      0.44      0.88
    0   16    8     -0.62     -0.02
   17   17    8      1.94     -4.56
   16   17    8     -0.09      0.07
   15   17    8      1.93     -4.09
   14   17    8      0.44      0.94
   13   17    8     -0.48     -2.04
   12   17    8      1.73      2.13
   11   17    8     -1.65     -0.81
   10   17    8      2.42      2.35
    9   17    8      0.02     -0.66
    8   17    8      2.28      2.25
    7   17    8      0.94     -0.66
    6   17    8      1.92      1.83
    5   17    8      0.45     -0.50
    4   17    8      1.81      0.86
    3   17    8      0.05     -0.38
    2   17    8      1.37      0.90
    1   17    8     -0.40     -0.06
    0   17    8     -0.03      1.54
   18   18    8      0.92     -3.08
   17   18    8     -0.04     -0.07
   16   18    8      1.83     -3.43
   15   18    8     -0.35      0.33
   14   18    8      0.76     -1.76
   13   18    8      0.47      1.60
   12   18    8     -1.47     -0.80
   11   18    8      1.86      2.47
   10   18    8     -1.00     -0.83
    9   18    8      2.30      2.82
    8   18    8      0.66     -0.44
    7   18    8      1.72      2.76
    6   18    8      0.71      0.26
    5   18    8      1.40      1.51
    4   18    8      0.40      0.24
    3   18    8      1.65      0.60
    2   18    8      0.46     -0.02
    1   18    8      0.90      1.36
    0   18    8      0.36      0.39
   19   19    8      0.39     -1.05
   18   19    8      0.26     -0.09
   17   19    8      1.16     -2.29
   16   19    8     -0.31     -0.01
   15   19    8      1.55     -1.37
   14   19    8     -0.73      1.00
   13   19    8     -0.50     -0.50
   12   19    8      0.47      2.10
   11   19    8     -1.78     -0.86
   10   19    8      1.90      2.64
    9   19    8     -0.36     -0.75
    8   19    8      1.84      2.98
    7   19    8      0.67      0.56
    6   19    8      1.02      2.17
    5   19    8      0.66      1.32
    4   19    8      1.15      0.57
    3   19    8      1.28      0.74
    2   19    8      1.39      0.70
    1   19    8      2.02      0.42
    0   19    8      0.07      1.60
   18   20    8      0.63     -0.70
   17   20    8      0.44     -0.08
   16   20    8      1.68     -0.96
   15   20    8     -0.87      0.57
   14   20    8      0.89     -0.42
   13   20    8     -0.92      1.56
   12   20    8     -1.65     -0.71
   11   20    8      0.73      1.85
   10   20    8     -1.99     -1.07
    9   20    8      1.77      2.00
    8   20    8     -0.49      0.03
    7   20    8      1.09      1.87
    6   20    8      0.31      1.74
    5   20    8      0.59      0.55
    4   20    8      1.28      1.96
    3   20    8      1.26     -0.08
    2   20    8      3.01      1.04
    1   20    8      0.90      1.13
    0   20    8      3.87      0.54
   17   21    8      1.15     -0.32
   16   21    8     -0.04      0.33
   15   21    8      1.80     -0.65
   14   21    8     -1.35      1.16
   13   21    8     -0.35     -0.85
   12   21    8     -0.62      1.12
   11   21    8     -2.94     -1.19
   10   21    8      1.03      0.40
    9   21    8     -2.69     -0.75
    8   21    8      1.15      0.20
    7   21    8     -1.21      0.99
    6   21    8      0.33     -0.28
    5   21    8      0.18      2.51
    4   21    8      0.90     -1.01
    3   21    8      2.32      2.23
    2   21    8      1.60     -0.06
    1   21    8      4.33      0.99
    0   21    8      0.02      1.13
   16   22    8      1.50     -0.73
   15   22    8     -0.78      0.85
   14   22    8      1.17     -1.32
   13   22    8     -1.31      0.89
   12   22    8     -2.07     -1.39
   11   22    8     -0.06     -0.60
   10   22    8     -4.28     -1.23
    9   22    8      0.77     -1.84
    8   22    8     -3.48     -0.31
    7   22    8      0.14     -2.07
    6   22    8     -1.74      1.66
    5   22    8      0.42     -2.34
    4   22    8      0.29      2.96
    3   22    8      2.10     -1.76
    2   22    8      2.69      2.16
    1   22    8      1.50     -0.02
    0   22    8      3.87      0.14
   15   23    8      1.52     -1.51
   14   23    8     -1.14      0.92
   13   23    8     -0.08     -1.69
   12   23    8     -0.81     -0.45
   11   23    8     -3.68     -1.39
   10   23    8      0.14     -2.75
    9   23    8     -4.87     -1.24
    8   23    8     -0.12     -3.75
    7   23    8     -3.54     -0.07
    6   23    8     -0.25     -3.79
    5   23    8     -1.87      2.30
    4   23    8      1.95     -3.46
    3   23    8     -0.02      3.23
    2   23    8      3.24     -1.89
    1   23    8      1.61      1.39
    0   23    8      0.08     -0.70
   13   24    8     -0.89      0.29
   12   24    8     -1.39     -1.30
   11   24    8     -0.31     -2.06
   10   24    8     -4.11     -1.38
    9   24    8     -0.23     -4.08
    8   24    8     -4.02     -1.47
    7   24    8     -0.76     -4.57
    6   24    8     -2.94      0.45
    5   24    8      0.94     -4.49
    4   24    8     -2.13      3.07
    3   24    8      4.03     -3.54
    2   24    8     -1.05      2.88
    1   24    8      2.72     -1.88
    0   24    8     -0.38     -0.22
   11   25    8     -1.89     -0.88
   10   25    8     -0.11     -2.90
    9   25    8     -2.88     -1.71
    8   25    8     -0.60     -4.12
    7   25    8     -2.43     -1.30
    6   25    8     -0.17     -4.44
    5   25    8     -2.58      1.50
    4   25    8      3.11     -4.18
    3   25    8     -2.68      3.37
    2   25    8      4.66     -2.78
    1   25    8     -2.14      1.54
    0   25    8      0.19     -1.83
    8   26    8     -1.03     -1.82
    7   26    8     -0.37     -3.42
    6   26    8     -1.54     -0.38
    5   26    8      1.32     -3.68
    4   26    8     -2.74      2.32
    3   26    8      4.36     -2.91
    2   26    8     -2.92      2.54
    1   26    8      2.89     -1.45
    0   26    8     -2.62     -0.23
    5   27    8     -1.69      0.59
    4   27    8      2.31     -2.34
    3   27    8     -2.71      2.05
    2   27    8      3.47     -1.00
    1   27    8     -2.50      0.99
    0   27    8      0.13     -0.12
    0    1    9      4.67      0.23
    1    2    9      2.48      1.73
    0    2    9      0.04     -1.11
    2    3    9      0.61      3.36
    1    3    9      0.06     -1.34
    0    3    9      1.12     -0.06
    3    4    9      0.44      4.05
    2    4    9     -0.03     -0.69
    1    4    9      0.01      1.75
    0    4    9      0.06     -1.66
    4    5    9      0.81      3.78
    3    5    9     -0.31      0.09
    2    5    9      0.26      2.90
    1    5    9     -0.05     -1.12
    0    5    9     -0.20     -0.27
    5    6    9      0.18      2.94
    4    6    9     -0.56      0.26
    3    6    9      0.62      3.17
    2    6    9     -0.48     -0.41
    1    6    9      0.48      1.29
    0    6    9      0.12     -1.20
    6    7    9     -1.25      1.74
    5    7    9     -0.45     -0.16
    4    7    9     -0.16      2.65
    3    7    9     -0.87     -0.27
    2    7    9      0.84      2.23
    1    7    9     -0.33     -1.24
    0    7    9      1.12     -0.26
    7    8    9     -2.22      0.39
    6    8    9     -0.01     -0.64
    5    8    9     -1.55      1.48
    4    8    9     -0.69     -0.67
    3    8    9     -0.01      2.24
    2    8    9     -0.70     -1.16
    1    8    9      1.61      1.09
    0    8    9      0.09     -1.62
    8    9    9     -2.17     -0.74
    7    9    9      0.37     -0.75
    6    9    9     -2.23      0.09
    5    9    9      0.01     -1.08
    4    9    9     -1.24      1.27
    3    9    9     -0.40     -0.99
    2    9    9      0.95      1.63
    1    9    9     -0.22     -1.27
    0    9    9      2.07     -0.15
    9   10    9     -1.32     -1.47
    8   10    9      0.36     -0.57
    7   10    9     -1.92     -0.96
    6   10    9      0.50     -1.10
    5   10    9     -1.64     -0.03
    4   10    9      0.33     -0.77
    3   10    9     -0.10      1.11
    2   10    9      0.16     -0.36
    1   10    9      1.82      0.72
    0   10    9     -0.10     -0.26
   10   11    9      0.10     -1.66
    9   11    9     -0.03     -0.45
    8   11    9     -1.11     -1.52
    7   11    9      0.19     -0.82
    6   11    9     -1.19     -0.80
    5   11    9      0.57     -0.52
    4   11    9     -0.49      0.19
    3   11    9      0.82      0.44
    2   11    9      0.93      0.71
    1   11    9      0.33      0.89
    0   11    9      1.76     -0.13
   11   12    9      1.72     -0.89
   10   12    9     -0.53     -0.59
    9   12    9     -0.06     -1.71
    8   12    9     -0.74     -0.60
    7   12    9     -0.66     -1.00
    6   12    9     -0.24     -0.29
    5   12    9     -0.27     -0.14
    4   12    9      0.78      0.79
    3   12    9      0.31      0.32
    2   12    9      0.94      1.52
    1   12    9      0.98      0.17
    0   12    9     -0.16      1.64
   12   13    9      2.62      1.13
   11   13    9     -0.99     -0.88
   10   13    9      1.21     -1.29
    9   13    9     -1.76     -0.66
    8   13    9     -0.28     -1.11
    7   13    9     -1.69     -0.16
    6   13    9     -0.21      0.13
    5   13    9     -0.31      0.78
    4   13    9      0.10      0.43
    3   13    9      0.81      1.56
    2   13    9      0.19      0.15
    1   13    9      0.44      1.28
    0   13    9      0.34     -0.08
   13   14    9      1.94      3.60
   12   14    9     -1.34     -1.10
   11   14    9      2.20      0.14
   10   14    9     -2.48     -0.94
    9   14    9      0.35     -1.11
    8   14    9     -2.98     -0.21
    7   14    9     -0.47      0.26
    6   14    9     -1.80      0.57
    5   14    9     -0.17      1.06
    4   14    9     -0.12      1.34
    3   14    9     -0.21      0.48
    2   14    9      0.35      0.75
    1   14    9     -0.31      0.01
    0   14    9     -0.07     -0.05
   14   15    9      0.01      5.03
   13   15    9     -1.48     -1.10
   12   15    9      2.18      2.06
   11   15    9     -2.79     -1.26
   10   15    9      1.28     -0.45
    9   15    9     -3.69     -0.49
    8   15    9     -0.53      0.10
    7   15    9     -2.92      0.16
    6   15    9     -0.69      1.46
    5   15    9     -1.09      0.90
    4   15    9     -0.45      1.19
    3   15    9     -0.27      0.63
    2   15    9     -0.52      0.27
    1   15    9     -0.17     -1.05
    0   15    9     -0.43      0.02
   15   16    9     -1.78      4.70
   14   16    9     -1.37     -0.93
   13   16    9      1.08      3.12
   12   16    9     -2.58     -1.45
   11   16    9      2.01      0.69
   10   16    9     -3.72     -0.93
    9   16    9      0.06      0.24
    8   16    9     -3.47     -0.46
    7   16    9     -1.09      1.41
    6   16    9     -1.61     -0.01
    5   16    9     -0.79      1.67
    4   16    9     -0.57      0.44
    3   16    9     -0.54      0.77
    2   16    9     -0.68     -0.85
    1   16    9     -0.36      0.10
    0   16    9     -0.06     -2.17
   16   17    9     -2.35      3.32
   15   17    9     -1.13     -0.70
   14   17    9     -0.35      2.66
   13   17    9     -1.85     -1.46
   12   17    9      2.04      1.22
   11   17    9     -2.94     -1.41
   10   17    9      1.15      0.73
    9   17    9     -3.47     -1.12
    8   17    9     -0.87      1.41
    7   17    9     -1.95     -1.17
    6   17    9     -1.14      1.71
    5   17    9     -0.40     -0.54
    4   17    9     -0.69      1.06
    3   17    9     -0.73     -0.43
    2   17    9     -0.39      0.34
    1   17    9     -0.70     -1.83
    0   17    9     -0.10     -0.10
   17   18    9     -1.82      1.89
   16   18    9     -1.04     -0.53
   15   18    9     -1.30      1.36
   14   18    9     -1.00     -1.31
   13   18    9      1.26      0.53
   12   18    9     -1.41     -1.76
   11   18    9      2.10      0.72
   10   18    9     -2.63     -1.62
    9   18    9      0.25      1.55
    8   18    9     -2.33     -1.94
    7   18    9     -0.99      1.71
    6   18    9     -0.51     -1.91
    5   18    9     -0.89      1.00
    4   18    9     -0.25     -0.92
    3   18    9     -0.74      0.42
    2   18    9     -1.02     -1.03
    1   18    9     -0.59      0.05
    0   18    9     -0.10     -1.75
   18   19    9     -1.01      0.77
   17   19    9     -1.18     -0.41
   16   19    9     -1.52      0.30
   15   19    9     -0.65     -1.09
   14   19    9     -0.03     -0.60
   13   19    9      0.22     -1.86
   12   19    9      2.15     -0.20
   11   19    9     -0.84     -1.88
   10   19    9      1.84      1.16
    9   19    9     -2.17     -1.89
    8   19    9      0.18      1.74
    7   19    9     -1.27     -2.36
    6   19    9     -0.61      0.91
    5   19    9     -0.14     -1.82
    4   19    9     -1.05      0.17
    3   19    9     -0.81     -0.87
    2   19    9     -1.48      0.14
    1   19    9     -0.80     -1.07
    0   19    9     -1.55     -0.14
   17   20    9     -1.22     -0.22
   16   20    9     -0.96     -0.80
   15   20    9     -1.17     -1.07
   14   20    9      0.99     -1.65
   13   20    9      0.97     -1.14
   12   20    9      1.21     -1.93
   11   20    9      2.76      0.08
   10   20    9     -0.93     -1.34
    9   20    9      2.23      1.28
    8   20    9     -1.92     -1.31
    7   20    9      0.79      0.91
    6   20    9     -0.88     -1.55
    5   20    9     -0.62     -0.16
    4   20    9     -0.74     -0.89
    3   20    9     -2.01     -0.14
    2   20    9     -1.24     -0.48
    1   20    9     -2.82      0.15
    0   20    9     -0.08     -0.71
   16   21    9     -1.53     -0.78
   15   21    9      0.59     -1.12
   14   21    9     -0.75     -1.07
   13   21    9      2.34     -1.72
   12   21    9      2.06     -0.72
   11   21    9      0.93     -0.95
   10   21    9      3.85      0.28
    9   21    9     -1.51      0.30
    8   21    9      3.13      0.65
    7   21    9     -1.76      0.38
    6   21    9      0.98     -0.29
    5   21    9     -1.20      0.15
    4   21    9     -1.48     -0.70
    3   21    9     -1.65      0.28
    2   21    9     -3.30      0.05
    1   21    9     -1.07      0.10
    0   21    9     -3.95      0.29
   15   22    9     -1.71     -0.20
   14   22    9      2.03     -1.18
   13   22    9      0.14     -0.35
   12   22    9      2.20     -0.90
   11   22    9      3.62     -0.34
   10   22    9     -0.21      1.06
    9   22    9      5.04      0.08
    8   22    9     -1.79      2.51
    7   22    9      3.34     -0.31
    6   22    9     -1.68      2.31
    5   22    9      0.20     -1.15
    4   22    9     -2.11      1.73
    3   22    9     -2.56     -0.58
    2   22    9     -2.27      1.29
    1   22    9     -4.00      0.40
    0   22    9     -0.05      0.96
   13   23    9      2.16     -0.82
   12   23    9      1.61      0.06
   11   23    9      0.95      0.63
   10   23    9      4.96     -0.19
    9   23    9     -0.99      3.11
    8   23    9      5.05     -0.27
    7   23    9     -1.54      4.06
    6   23    9      2.29     -1.18
    5   23    9     -2.17      3.43
    4   23    9     -0.90     -1.38
    3   23    9     -3.29      2.66
    2   23    9     -2.96     -0.12
    1   23    9     -1.87      2.16
    0   23    9     -3.67      0.64
   12   24    9      1.22     -0.16
   11   24    9      2.88      0.14
   10   24    9     -0.14      1.98
    9   24    9      4.84     -0.05
    8   24    9     -0.96      3.98
    7   24    9      3.54     -0.76
    6   24    9     -1.58      4.18
    5   24    9      0.83     -1.74
    4   24    9     -3.41      3.52
    3   24    9     -1.40     -1.04
    2   24    9     -3.74      3.03
    1   24    9     -2.54      0.31
    0   24    9     -0.04      2.86
    9   25    9     -0.47      2.36
    8   25    9      3.16     -0.11
    7   25    9     -0.85      3.41
    6   25    9      1.69     -1.37
    5   25    9     -2.47      3.29
    4   25    9      0.01     -1.71
    3   25    9     -4.41      3.04
    2   25    9     -1.25     -0.39
    1   25    9     -2.49      2.99
    0   25    9     -1.75      0.46
    6   26    9     -1.29      2.17
    5   26    9      0.73     -1.60
    4   26    9     -3.43      2.20
    3   26    9     -0.11     -0.96
    2   26    9     -3.83      2.34
    1   26    9     -0.91      0.13
    0   26    9     -0.01      2.48
    0    0   10     -2.16     -0.15
    1    1   10     -1.39     -1.11
    0    1   10      0.02      0.31
    2    2   10     -0.12     -2.97
    1    2   10     -0.07      0.64
    0    2   10     -0.87      0.06
    3    3   10      0.28     -4.00
    2    3   10     -0.13      0.56
    1    3   10      0.29     -1.87
    0    3   10     -0.10      1.45
    4    4   10     -0.37     -3.68
    3    4   10     -0.09      0.18
    2    4   10      0.51     -3.12
    1    4   10     -0.29      1.36
    0    4   10      0.94      0.23
    5    5   10     -1.12     -2.74
    4    5   10      0.01     -0.09
    3    5   10     -0.24     -3.12
    2    5   10     -0.27      0.67
    1    5   10      0.80     -1.29
    0    5   10     -0.14      1.47
    6    6   10     -1.32     -1.87
    5    6   10      0.04      0.01
    4    6   10     -0.96     -2.45
    3    6   10      0.01      0.15
    2    6   10     -0.14     -1.89
    1    6   10     -0.20      1.16
    0    6   10      0.47      0.28
    7    7   10     -1.15     -1.18
    6    7   10     -0.09      0.36
    5    7   10     -1.03     -1.68
    4    7   10      0.18      0.34
    3    7   10     -0.79     -1.82
    2    7   10     -0.02      0.76
    1    7   10     -0.58     -0.72
    0    7   10     -0.11      1.25
    8    8   10     -0.90     -0.54
    7    8   10     -0.29      0.62
    6    8   10     -0.77     -0.96
    5    8   10     -0.13      1.07
    4    8   10     -0.64     -1.36
    3    8   10     -0.01      0.73
    2    8   10     -1.15     -1.28
    1    8   10     -0.09      0.95
    0    8   10     -1.29      0.21
    9    9   10     -0.58      0.17
    8    9   10     -0.37      0.55
    7    9   10     -0.57     -0.25
    6    9   10     -0.70      1.65
    5    9   10     -0.22     -0.63
    4    9   10     -0.47      1.15
    3    9   10     -0.81     -1.31
    2    9   10     -0.30      0.44
    1    9   10     -1.79     -0.71
    0    9   10     -0.02      0.27
   10   10   10     -0.36      0.89
    9   10   10     -0.23      0.26
    8   10   10     -0.39      0.45
    7   10   10     -0.89      1.55
    6   10   10     -0.06      0.13
    5   10   10     -1.01      1.57
    4   10   10     -0.18     -0.79
    3   10   10     -0.78      0.18
    2   10   10     -1.34     -1.26
    1   10   10     -0.28     -0.63
    0   10   10     -1.95      0.16
   11   11   10     -0.68      1.12
   10   11   10      0.04      0.00
    9   11   10     -0.30      1.16
    8   11   10     -0.36      0.86
    7   11   10     -0.06      0.76
    6   11   10     -0.87      1.46
    5   11   10      0.11     -0.12
    4   11   10     -1.04      0.20
    3   11   10     -0.53     -1.17
    2   11   10     -0.65     -1.16
    1   11   10     -1.47     -0.71
    0   11   10      0.08     -1.55
   12   12   10     -1.49      0.13
   11   12   10      0.27     -0.01
   10   12   10     -0.67      1.46
    9   12   10      0.57      0.15
    8   12   10     -0.09      1.38
    7   12   10      0.24      0.77
    6   12   10      0.18      0.36
    5   12   10     -0.51      0.10
    4   12   10      0.05     -0.78
    3   12   10     -0.63     -1.26
    2   12   10     -0.54     -1.08
    1   12   10     -0.14     -1.47
    0   12   10     -0.87      0.16
   13   13   10     -1.91     -1.86
   12   13   10      0.45      0.19
   11   13   10     -1.52      0.67
   10   13   10      1.39     -0.09
    9   13   10     -0.46      1.80
    8   13   10      1.78     -0.04
    7   13   10      0.26      0.76
    6   13   10      0.84     -0.30
    5   13   10      0.41     -0.56
    4   13   10     -0.05     -1.39
    3   13   10      0.25     -1.07
    2   13   10      0.04     -1.15
    1   13   10      0.04     -0.47
    0   13   10      0.14     -0.46
   14   14   10     -1.14     -3.35
   13   14   10      0.66      0.42
   12   14   10     -2.12     -1.12
   11   14   10      1.86      0.20
   10   14   10     -1.37      1.42
    9   14   10      3.01     -0.43
    8   14   10      0.10      1.12
    7   14   10      2.45     -0.76
    6   14   10      0.77     -0.47
    5   14   10      0.82     -1.64
    4   14   10      0.82     -1.11
    3   14   10      0.39     -1.41
    2   14   10      0.76     -0.74
    1   14   10      0.41      0.57
    0   14   10      0.73      0.13
   15   15   10      0.58     -2.97
   14   15   10      0.92      0.53
   13   15   10     -1.65     -2.50
   12   15   10      2.13      0.71
   11   15   10     -2.32      0.13
   10   15   10      3.52     -0.20
    9   15   10     -0.66      0.98
    8   15   10      3.70     -0.90
    7   15   10      0.88     -0.44
    6   15   10      1.69     -1.61
    5   15   10      1.27     -1.34
    4   15   10      0.39     -1.95
    3   15   10      1.20     -0.97
    2   15   10      0.62      0.17
    1   15   10      1.10     -0.23
    0   15   10      0.17      1.98
   16   16   10      2.04     -1.11
   15   16   10      1.16      0.48
   14   16   10     -0.17     -2.16
   13   16   10      2.37      1.06
   12   16   10     -2.48     -0.96
   11   16   10      3.37      0.46
   10   16   10     -1.80      0.16
    9   16   10      4.19     -0.53
    8   16   10      0.35     -0.71
    7   16   10      2.53     -1.05
    6   16   10      1.42     -1.70
    5   16   10      0.18     -1.74
    4   16   10      1.46     -1.36
    3   16   10      0.12     -0.92
    2   16   10      1.17     -0.53
    1   16   10      0.46      1.62
    0   16   10      0.98      0.13
   17   17   10      2.33      0.57
   16   17   10      1.24      0.36
   15   17   10      1.31     -0.43
   14   17   10      2.55      1.11
   13   17   10     -1.56     -0.63
   12   17   10      2.80      1.17
   11   17   10     -2.52     -0.47
   10   17   10      3.72      0.25
    9   17   10     -0.76     -1.28
    8   17   10      3.19     -0.23
    7   17   10      0.95     -2.25
    6   17   10      0.46     -0.55
    5   17   10      1.43     -1.90
    4   17   10     -0.74     -0.92
    3   17   10      1.20     -0.95
    2   17   10      0.10      0.36
    1   17   10      0.77     -0.19
    0   17   10      0.12      1.60
   18   18   10      1.57      0.99
   17   18   10      1.11      0.27
   16   18   10      1.90      1.10
   15   18   10      2.55      0.93
   14   18   10     -0.10      0.84
   13   18   10      2.09      1.58
   12   18   10     -2.20      0.09
   11   18   10      2.33      1.19
   10   18   10     -1.77     -1.36
    9   18   10      3.08      0.53
    8   18   10     -0.13     -2.71
    7   18   10      1.45      0.65
    6   18   10      0.87     -2.51
    5   18   10     -0.80      0.40
    4   18   10      1.15     -1.42
    3   18   10     -0.64      0.13
    2   18   10      0.83     -0.66
    1   18   10      0.12      0.76
    0   18   10      0.52      0.12
   18   19   10      0.83      0.24
   17   19   10      1.49      1.40
   16   19   10      2.28      0.69
   15   19   10      1.03      2.00
   14   19   10      1.49      1.50
   13   19   10     -0.95      1.44
   12   19   10      0.55      1.89
   11   19   10     -1.96     -0.30
   10   19   10      1.73      1.19
    9   19   10     -1.32     -2.32
    8   19   10      2.24      0.96
    7   19   10     -0.26     -2.78
    6   19   10      0.43      1.40
    5   19   10      0.71     -1.75
    4   19   10     -0.68      1.09
    3   19   10      1.13     -1.08
    2   19   10     -0.12      0.59
    1   19   10      0.89     -0.50
    0   19   10      0.08      0.53
   17   20   10      1.77      0.51
   16   20   10      1.35      1.92
   15   20   10      1.17      1.03
   14   20   10      0.52      2.19
   13   20   10     -0.75      1.96
   12   20   10     -1.10      1.18
   11   20   10     -0.38      1.75
   10   20   10     -1.89     -0.79
    9   20   10      1.75      0.70
    8   20   10     -1.60     -2.10
    7   20   10      1.91      0.80
    6   20   10     -0.33     -1.61
    5   20   10      0.51      1.39
    4   20   10      1.18     -1.08
    3   20   10      0.10      1.03
    2   20   10      1.68     -1.13
    1   20   10      0.20      0.42
    0   20   10      1.59     -0.17
   15   21   10      1.35      1.67
   14   21   10     -1.04      1.27
   13   21   10      0.27      1.67
   12   21   10     -2.01      1.90
   11   21   10     -1.48      0.83
   10   21   10      0.11      0.69
    9   21   10     -2.49     -0.49
    8   21   10      2.24     -0.62
    7   21   10     -1.74     -0.72
    6   21   10      2.00     -0.15
    5   21   10      0.51     -0.41
    4   21   10      1.10      0.59
    3   21   10      2.25     -1.13
    2   21   10      0.69      0.34
    1   21   10      2.56     -1.12
    0   21   10      0.07      0.03
   14   22   10      1.24      0.84
   13   22   10     -2.27      1.30
   12   22   10     -0.38      1.17
   11   22   10     -1.38      1.00
   10   22   10     -2.43      0.91
    9   22   10      1.26     -1.19
    8   22   10     -2.87      0.57
    7   22   10      2.50     -2.27
    6   22   10     -0.82      0.77
    5   22   10      2.15     -1.32
    4   22   10      1.99     -0.16
    3   22   10      1.60     -0.53
    2   22   10      3.22     -1.52
    1   22   10      0.70     -0.61
    0   22   10      3.32     -0.57
   12   23   10     -1.71      1.01
   11   23   10     -1.51      0.98
   10   23   10      0.09     -0.46
    9   23   10     -3.06      1.30
    8   23   10      1.83     -2.89
    7   23   10     -2.12      1.78
    6   23   10      2.34     -3.23
    5   23   10      0.81      1.40
    4   23   10      2.37     -2.09
    3   23   10      3.06     -0.74
    2   23   10      1.74     -1.53
    1   23   10      3.57     -1.40
    0   23   10      0.01     -1.53
   10   24   10     -2.22      0.87
    9   24   10      0.89     -1.61
    8   24   10     -2.55      1.82
    7   24   10      1.64     -3.34
    6   24   10     -0.61      2.50
    5   24   10      2.31     -3.07
    4   24   10      1.97      0.92
    3   24   10      2.61     -2.32
    2   24   10      3.21     -1.28
    1   24   10      1.20     -2.22
    0   24   10      3.33     -0.53
    8   25   10      0.83     -1.71
    7   25   10     -1.34      2.33
    6   25   10      1.53     -2.50
    5   25   10      0.50      2.29
    4   25   10      2.63     -2.27
    3   25   10      2.16     -0.10
    2   25   10      2.37     -2.26
    1   25   10      2.72     -1.06
    0   25   10     -0.08     -2.45
    3   26   10      2.64     -1.56
    2   26   10      1.78     -0.80
    1   26   10      1.27     -2.03
    0   26   10      2.01     -0.24
    0    1   11      1.19     -0.36
    1    2   11      0.55      1.05
    0    2   11      0.01     -0.75
    2    3   11      0.02      2.83
    1    3   11      0.29     -1.09
    0    3   11     -0.31     -0.36
    3    4   11      0.28      3.95
    2    4   11      0.62     -0.88
    1    4   11     -1.01      1.43
    0    4   11      0.00     -1.56
    4    5   11      1.32      4.18
    3    5   11      0.73     -0.39
    2    5   11     -0.64      2.61
    1    5   11      0.57     -1.43
    0    5   11     -1.91     -0.22
    5    6   11      2.67      3.64
    4    6   11      0.60     -0.12
    3    6   11      0.66      2.95
    2    6   11      0.99     -0.88
    1    6   11     -1.44      0.96
    0    6   11     -0.10     -1.38
    6    7   11      3.84      2.51
    5    7   11      0.46     -0.25
    4    7   11      2.13      2.55
    3    7   11      1.03     -0.50
    2    7   11      0.07      1.46
    1    7   11      0.60     -1.06
    0    7   11     -1.26     -0.11
    7    8   11      4.40      1.21
    6    8   11      0.51     -0.47
    5    8   11      3.16      1.55
    4    8   11      0.93     -0.60
    3    8   11      1.57      1.38
    2    8   11      1.05     -0.64
    1    8   11      0.07      0.52
    0    8   11     -0.13     -0.63
    8    9   11      3.99      0.33
    7    9   11      0.69     -0.33
    6    9   11      3.47      0.38
    5    9   11      0.95     -0.91
    4    9   11      2.34      0.72
    3    9   11      1.16     -0.56
    2    9   11      1.29      0.86
    1    9   11      0.54     -0.16
    0    9   11      0.57     -0.04
    9   10   11      2.71     -0.02
    8   10   11      0.70      0.31
    7   10   11      2.98     -0.36
    6   10   11      1.03     -0.79
    5   10   11      2.27     -0.19
    4   10   11      1.06     -0.79
    3   10   11      1.69      0.72
    2   10   11      0.76      0.04
    1   10   11      1.16      0.59
    0   10   11     -0.06      0.51
   10   11   11      1.40     -0.12
    9   11   11      0.41      1.06
    8   11   11      1.92     -0.57
    7   11   11      0.80      0.04
    6   11   11      1.57     -0.78
    5   11   11      0.78     -0.81
    4   11   11      1.27      0.14
    3   11   11      0.43     -0.16
    2   11   11      1.13      0.98
    1   11   11      0.06      0.47
    0   11   11      0.94      0.00
   11   12   11      0.95     -0.07
   10   12   11     -0.09      1.37
    9   12   11      1.05     -0.66
    8   12   11      0.09      1.14
    7   12   11      0.67     -0.92
    6   12   11      0.23     -0.21
    5   12   11      0.35     -0.41
    4   12   11     -0.12     -0.27
    3   12   11      0.50      0.79
    2   12   11     -0.50      0.06
    1   12   11      0.51      0.68
    0   12   11     -0.05      0.07
   12   13   11      1.36      0.32
   11   13   11     -0.59      1.02
   10   13   11      1.09     -0.71
    9   13   11     -0.86      1.78
    8   13   11      0.24     -0.97
    7   13   11     -0.67      0.78
    6   13   11     -0.61     -0.63
    5   13   11     -0.57      0.14
    4   13   11     -0.55      0.29
    3   13   11     -1.10      0.06
    2   13   11     -0.21      0.90
    1   13   11     -0.78     -0.69
    0   13   11     -0.14     -0.06
   13   14   11      1.62      0.72
   12   14   11     -1.09      0.30
   11   14   11      1.90     -0.49
   10   14   11     -1.74      1.55
    9   14   11      0.81     -1.04
    8   14   11     -1.79      1.53
    7   14   11     -0.94     -0.61
    6   14   11     -1.00      0.86
    5   14   11     -1.64     -0.02
    4   14   11     -1.00      0.71
    3   14   11     -1.18      0.64
    2   14   11     -1.33     -0.46
    1   14   11     -0.79      0.40
    0   14   11     -0.12     -1.52
   14   15   11      0.86      0.27
   13   15   11     -1.70     -0.31
   12   15   11      2.43     -0.12
   11   15   11     -2.42      0.67
   10   15   11      2.08     -0.87
    9   15   11     -2.82      1.58
    8   15   11     -0.14     -0.43
    7   15   11     -1.73      1.38
    6   15   11     -2.04      0.11
    5   15   11     -0.45      1.39
    4   15   11     -2.17      0.41
    3   15   11     -0.73      0.76
    2   15   11     -1.46      0.51
    1   15   11     -0.69     -1.09
    0   15   11     -1.14     -0.18
   15   16   11     -0.60     -1.21
   14   16   11     -2.35     -0.52
   13   16   11      1.80     -0.31
   12   16   11     -3.00     -0.28
   11   16   11      2.94     -0.47
   10   16   11     -3.41      0.91
    9   16   11      1.38      0.02
    8   16   11     -2.70      1.39
    7   16   11     -1.24      0.70
    6   16   11     -0.41      1.45
    5   16   11     -2.52      0.66
    4   16   11      0.61      1.62
    3   16   11     -2.08      0.57
    2   16   11     -0.02      0.42
    1   16   11     -1.36      0.19
    0   16   11     -0.11     -0.67
   16   17   11     -1.61     -2.66
   15   17   11     -2.69     -0.39
   14   17   11      0.28     -1.33
   13   17   11     -3.46     -0.82
   12   17   11      2.47     -0.44
   11   17   11     -3.42     -0.16
   10   17   11      2.44      0.50
    9   17   11     -3.30      0.83
    8   17   11      0.38      1.56
    7   17   11     -1.30      0.95
    6   17   11     -1.69      1.47
    5   17   11      1.21      1.20
    4   17   11     -2.20      0.93
    3   17   11      1.45      1.24
    2   17   11     -1.50      0.62
    1   17   11      0.38      0.44
    0   17   11     -1.06     -0.22
   17   18   11     -1.43     -2.87
   16   18   11     -2.43     -0.22
   15   18   11     -1.00     -2.36
   14   18   11     -3.53     -0.83
   13   18   11      0.93     -1.03
   12   18   11     -2.94     -1.11
   11   18   11      2.12      0.47
   10   18   11     -2.92     -0.23
    9   18   11      1.55      2.08
    8   18   11     -2.27      0.31
    7   18   11     -0.05      2.43
    6   18   11      0.26      0.14
    5   18   11     -1.39      1.58
    4   18   11      2.08      0.43
    3   18   11     -1.45      1.14
    2   18   11      1.55      0.71
    1   18   11     -0.86      0.46
    0   18   11     -0.04      0.74
   17   19   11     -1.59     -0.21
   16   19   11     -1.24     -2.41
   15   19   11     -2.95     -0.53
   14   19   11     -0.60     -1.61
   13   19   11     -2.19     -1.45
   12   19   11      0.64     -0.16
   11   19   11     -1.63     -1.43
   10   19   11      1.32      1.69
    9   19   11     -2.14     -0.46
    8   19   11      1.15      2.75
    7   19   11     -1.27     -0.42
    6   19   11      0.04      2.08
    5   19   11      0.99     -0.81
    4   19   11     -0.97      1.46
    3   19   11      2.00     -0.37
    2   19   11     -0.90      1.28
    1   19   11      0.91      0.31
    0   19   11     -0.64     -0.15
   15   20   11     -1.22     -1.49
   14   20   11     -1.38     -1.05
   13   20   11     -0.86     -0.68
   12   20   11     -0.23     -2.08
   11   20   11      0.00      0.60
   10   20   11     -0.81     -1.44
    9   20   11      1.01      1.92
    8   20   11     -1.78     -0.44
    7   20   11      1.09      1.83
    6   20   11     -0.85     -0.87
    5   20   11     -0.15      1.18
    4   20   11      0.97     -1.35
    3   20   11     -1.03      1.58
    2   20   11      1.35     -0.77
    1   20   11     -0.91      0.98
    0   20   11     -0.06     -0.19
   14   21   11     -1.45     -0.52
   13   21   11      0.57     -1.65
   12   21   11     -1.22     -0.19
   11   21   11      0.66     -2.16
   10   21   11     -0.10      0.49
    9   21   11     -0.92     -0.67
    8   21   11      1.05      0.70
    7   21   11     -1.79      0.16
    6   21   11      0.52      0.14
    5   21   11     -0.72     -0.67
    4   21   11     -1.03      0.83
    3   21   11      0.71     -1.18
    2   21   11     -1.55      1.74
    1   21   11      0.56     -0.76
    0   21   11     -1.44      0.05
   12   22   11      1.23     -1.91
   11   22   11     -0.99     -0.38
   10   22   11      0.20     -1.28
    9   22   11      0.27     -0.55
    8   22   11     -1.35      0.76
    7   22   11      0.65     -1.20
    6   22   11     -1.62      1.11
    5   22   11     -0.78     -0.85
    4   22   11     -0.47      0.01
    3   22   11     -2.07      1.26
    2   22   11      0.44     -0.53
    1   22   11     -2.08      1.33
    0   22   11     -0.04     -0.42
   11   23   11      0.54     -1.51
   10   23   11     -0.33     -0.93
    9   23   11     -0.53      0.21
    8   23   11      0.39     -1.92
    7   23   11     -1.32      2.08
    6   23   11     -0.36     -2.46
    5   23   11     -1.14      1.84
    4   23   11     -1.99     -0.46
    3   23   11     -0.23      0.72
    2   23   11     -2.50      1.69
    1   23   11      0.16      0.25
    0   23   11     -2.31      0.19
    8   24   11     -0.64      1.38
    7   24   11      0.07     -2.86
    6   24   11     -0.93      2.50
    5   24   11     -1.21     -2.29
    4   24   11     -0.77      1.96
    3   24   11     -2.27      0.65
    2   24   11     -0.18      1.16
    1   24   11     -2.21      1.27
    0   24   11      0.05      0.96
    5   25   11     -0.78      1.97
    4   25   11     -1.31     -1.01
    3   25   11     -0.70      1.62
    2   25   11     -1.76      1.26
    1   25   11     -0.18      1.32
    0   25   11     -1.62      0.16
    0    0   12      0.65      0.34
    1    1   12      0.57     -0.13
    0    1   12      0.01      0.15
    2    2   12      0.39     -1.53
    1    2   12     -0.16      0.40
    0    2   12      0.82      0.42
    3    3   12     -0.23     -3.31
    2    3   12     -0.38      0.45
    1    3   12      1.00     -0.95
    0    3   12      0.01      1.03
    4    4   12     -1.42     -4.79
    3    4   12     -0.54      0.29
    2    4   12      0.55     -2.62
    1    4   12     -0.53      1.19
    0    4   12      2.03      0.28
    5    5   12     -2.92     -5.19
    4    5   12     -0.51      0.06
    3    5   12     -0.79     -3.92
    2    5   12     -1.13      0.85
    1    5   12      1.91     -1.10
    0    5   12      0.18      1.28
    6    6   12     -4.22     -3.99
    5    6   12     -0.28     -0.11
    4    6   12     -2.59     -4.20
    3    6   12     -1.29      0.34
    2    6   12      0.33     -1.99
    1    6   12     -0.72      1.03
    0    6   12      2.40      0.15
    7    7   12     -4.98     -1.76
    6    7   12     -0.05     -0.22
    5    7   12     -4.10     -3.07
    4    7   12     -0.87     -0.01
    3    7   12     -1.98     -2.07
    2    7   12     -1.34      0.60
    1    7   12      0.97     -0.46
    0    7   12      0.37      0.71
    8    8   12     -4.98     -0.02
    7    8   12      0.02     -0.40
    6    8   12     -4.81     -1.06
    5    8   12     -0.27     -0.18
    4    8   12     -3.77     -1.21
    3    8   12     -1.22      0.35
    2    8   12     -1.32     -0.52
    1    8   12     -0.59      0.56
    0    8   12      0.54      0.10
    9    9   12     -4.21      0.20
    8    9   12     -0.07     -0.74
    7    9   12     -4.62      0.41
    6    9   12      0.02     -0.50
    5    9   12     -4.29      0.19
    4    9   12     -0.58      0.36
    3    9   12     -3.04     -0.10
    2    9   12     -0.88      0.58
    1    9   12     -0.83     -0.08
    0    9   12      0.31      0.32
   10   10   12     -2.96     -0.58
    9   10   12     -0.12     -1.11
    8   10   12     -3.74      0.40
    7   10   12     -0.08     -1.22
    6   10   12     -3.62      1.07
    5   10   12     -0.07      0.28
    4   10   12     -3.31      0.63
    3   10   12     -0.36      0.91
    2   10   12     -1.90     -0.14
    1   10   12     -0.10      0.62
    0   10   12     -0.66     -0.02
   11   11   12     -1.80     -1.00
   10   11   12      0.04     -1.26
    9   11   12     -2.58     -0.51
    8   11   12     -0.15     -2.08
    7   11   12     -2.42      0.70
    6   11   12     -0.01     -0.26
    5   11   12     -2.28      1.10
    4   11   12      0.30      1.23
    3   11   12     -1.97      0.05
    2   11   12      0.38      1.18
    1   11   12     -0.77     -0.39
    0   11   12      0.13      0.79
   12   12   12     -1.22     -0.46
   11   12   12      0.39     -1.04
   10   12   12     -1.74     -0.94
    9   12   12      0.19     -2.53
    8   12   12     -1.46     -0.33
    7   12   12     -0.09     -1.12
    6   12   12     -0.78      0.79
    5   12   12      0.42      1.11
    4   12   12     -0.93      0.45
    3   12   12      1.11      1.64
    2   12   12     -0.65     -0.58
    1   12   12      0.73      1.31
    0   12   12     -0.15     -0.10
   13   13   12     -1.11      0.53
   12   13   12      0.78     -0.55
   11   13   12     -1.52     -0.36
   10   13   12      0.97     -2.20
    9   13   12     -1.30     -0.78
    8   13   12      0.26     -1.80
    7   13   12      0.16     -0.02
    6   13   12      0.10      0.50
    5   13   12      0.67      0.61
    4   13   12      1.08      1.61
    3   13   12      0.13     -0.25
    2   13   12      1.50      1.46
    1   13   12      0.16     -0.51
    0   13   12      0.06      1.31
   14   14   12     -0.86      1.41
   13   14   12      1.11     -0.08
   12   14   12     -1.64      0.66
   11   14   12      1.94     -1.28
   10   14   12     -1.89     -0.23
    9   14   12      1.23     -1.86
    8   14   12     -0.12     -0.48
    7   14   12      0.09     -0.27
    6   14   12      1.79      0.36
    5   14   12      0.22      1.11
    4   14   12      1.56      0.30
    3   14   12      1.24      1.03
    2   14   12      0.71     -0.49
    1   14   12      0.89      0.85
    0   14   12      0.46      0.03
   15   15   12     -0.21      2.14
   14   15   12      1.34      0.14
   13   15   12     -1.42      1.47
   12   15   12      2.85     -0.33
   11   15   12     -2.53      0.69
   10   15   12      2.50     -1.32
    9   15   12     -1.41     -0.26
    8   15   12      0.87     -0.84
    7   15   12      1.51     -0.07
    6   15   12     -0.45      0.44
    5   15   12      2.80      0.52
    4   15   12     -0.14      0.39
    3   15   12      1.81     -0.12
    2   15   12      0.56     -0.13
    1   15   12      0.88     -0.30
    0   15   12      0.08     -0.22
   16   16   12      0.42      2.71
   15   16   12      1.43      0.10
   14   16   12     -0.61      1.98
   13   16   12      3.50      0.18
   12   16   12     -2.35      1.24
   11   16   12      3.59     -0.53
   10   16   12     -2.61      0.16
    9   16   12      2.11     -0.98
    8   16   12     -0.10     -0.46
    7   16   12     -0.10     -0.18
    6   16   12      2.68      0.15
    5   16   12     -1.34      0.05
    4   16   12      2.86      0.11
    3   16   12     -0.98     -0.81
    2   16   12      1.60     -0.53
    1   16   12     -0.19     -1.36
    0   16   12      0.98      0.16
   17   17   12      0.39      2.76
   16   17   12      1.27      0.01
   15   17   12      0.25      2.27
   14   17   12      3.68      0.22
   13   17   12     -1.24      1.28
   12   17   12      4.17      0.13
   11   17   12     -2.60      0.27
   10   17   12      3.08     -0.59
    9   17   12     -1.76     -0.82
    8   17   12      0.99     -0.57
    7   17   12      1.00     -0.69
    6   17   12     -1.24     -0.03
    5   17   12      2.69     -0.16
    4   17   12     -2.27     -0.59
    3   17   12      2.17     -0.77
    2   17   12     -1.61     -1.68
    1   17   12      1.27     -0.56
    0   17   12      0.10     -2.15
   16   18   12      0.43      2.17
   15   18   12      3.15      0.06
   14   18   12      0.04      1.06
   13   18   12      4.05      0.44
   12   18   12     -1.28      0.00
   11   18   12      3.28      0.20
   10   18   12     -2.02     -1.15
    9   18   12      1.78     -0.40
    8   18   12     -0.90     -1.58
    7   18   12     -0.17     -0.11
    6   18   12      1.06     -0.85
    5   18   12     -2.08      0.12
    4   18   12      1.79     -1.00
    3   18   12     -2.75     -0.76
    2   18   12      1.36     -1.42
    1   18   12     -1.20     -1.77
    0   18   12      1.09      0.17
   15   19   12      0.62      0.71
   14   19   12      3.18      0.37
   13   19   12      0.32     -0.41
   12   19   12      2.76      0.94
   11   19   12     -0.71     -1.35
   10   19   12      1.69      0.49
    9   19   12     -1.38     -2.05
    8   19   12      0.62      0.02
    7   19   12     -0.75     -1.51
    6   19   12     -0.83      0.46
    5   19   12      0.41     -1.04
    4   19   12     -2.44      0.50
    3   19   12      0.90     -1.84
    2   19   12     -2.39     -0.37
    1   19   12      0.93     -1.10
    0   19   12      0.18     -0.97
   14   20   12      1.11     -0.75
   13   20   12      1.81      1.06
   12   20   12      0.94     -1.40
   11   20   12      1.02      1.56
   10   20   12     -0.18     -1.89
    9   20   12      0.49      0.73
    8   20   12     -1.18     -1.63
    7   20   12      0.10      0.34
    6   20   12     -0.91     -0.73
    5   20   12     -1.10      0.84
    4   20   12      0.03     -1.34
    3   20   12     -2.35      0.87
    2   20   12      0.64     -1.99
    1   20   12     -1.23      0.36
    0   20   12      0.89      0.18
   12   21   12      0.37      1.85
   11   21   12      1.32     -1.39
   10   21   12     -0.03      1.74
    9   21   12     -0.07     -1.13
    8   21   12      0.07      0.48
    7   21   12     -1.02     -0.10
    6   21   12     -0.08      0.19
    5   21   12     -0.55     -0.04
    4   21   12     -1.32      0.77
    3   21   12      0.38     -1.65
    2   21   12     -1.83      1.04
    1   21   12      0.90     -1.18
    0   21   12      0.15      0.96
   11   22   12     -0.21      2.09
   10   22   12      1.20     -0.49
    9   22   12     -0.24      1.07
    8   22   12     -0.04      0.53
    7   22   12      0.02     -0.36
    6   22   12     -0.37      1.37
    5   22   12     -0.39     -0.42
    4   22   12      0.37     -0.11
    3   22   12     -1.48      0.36
    2   22   12      0.99     -1.62
    1   22   12     -0.96      0.92
    0   22   12      1.18      0.17
    8   23   12     -0.18     -0.15
    7   23   12      0.24      2.03
    6   23   12     -0.15     -1.31
    5   23   12      0.55      1.66
    4   23   12     -0.80     -1.02
    3   23   12      1.11     -0.74
    2   23   12     -1.28     -0.05
    1   23   12      1.19     -0.97
    0   23   12     -0.02      0.41
    5   24   12     -0.36     -1.73
    4   24   12      1.02      0.74
    3   24   12     -0.92     -1.21
    2   24   12      1.07     -1.12
    1   24   12     -0.68     -0.37
    0   24   12      0.92      0.03
    0    1   13     -2.45     -0.16
    1    2   13     -1.97      0.20
    0    2   13      0.03     -0.29
    2    3   13     -1.02      1.02
    1    3   13      0.27     -0.40
    0    3   13     -2.22     -0.17
    3    4   13      0.43      2.12
    2    4   13      0.60     -0.27
    1    4   13     -1.80      0.44
    0    4   13      0.03     -0.59
    4    5   13      1.89      2.92
    3    5   13      0.74     -0.02
    2    5   13     -0.40      1.12
    1    5   13      0.55     -0.37
    0    5   13     -2.25     -0.15
    5    6   13      2.70      2.56
    4    6   13      0.46      0.19
    3    6   13      1.57      1.53
    2    6   13      0.96     -0.02
    1    6   13     -1.08      0.11
    0    6   13     -0.18     -0.08
    6    7   13      2.69      0.91
    5    7   13     -0.11      0.34
    4    7   13      3.03      1.17
    3    7   13      0.79      0.19
    2    7   13      1.17      0.11
    1    7   13      0.46      0.13
    0    7   13     -0.73     -0.21
    7    8   13      2.44     -0.81
    6    8   13     -0.54      0.53
    5    8   13      3.31     -0.02
    4    8   13      0.10      0.21
    3    8   13      3.12     -0.14
    2    8   13      0.66      0.05
    1    8   13      0.82     -0.33
    0    8   13     -0.34      0.24
    8    9   13      2.56     -1.08
    7    9   13     -0.59      0.85
    6    9   13      2.76     -1.10
    5    9   13     -0.57      0.23
    4    9   13      3.63     -0.67
    3    9   13      0.20     -0.33
    2    9   13      2.35     -0.36
    1    9   13      0.08     -0.19
    0    9   13      0.73     -0.15
    9   10   13      2.97      0.18
    8   10   13     -0.47      1.22
    7   10   13      2.25     -0.85
    6   10   13     -0.71      0.48
    5   10   13      2.76     -1.01
    4   10   13     -0.45     -0.74
    3   10   13      2.83     -0.34
    2   10   13     -0.11     -0.87
    1   10   13      1.01      0.02
    0   10   13     -0.28     -0.52
   10   11   13      3.02      1.37
    9   11   13     -0.64      1.37
    8   11   13      2.22      0.70
    7   11   13     -0.49      0.90
    6   11   13      1.54     -0.41
    5   11   13     -0.59     -0.88
    4   11   13      2.03     -0.32
    3   11   13     -0.63     -1.52
    2   11   13      1.18      0.38
    1   11   13     -0.43     -1.05
    0   11   13      0.00      0.07
   11   12   13      2.37      1.01
   10   12   13     -1.29      1.08
    9   12   13      2.37      2.02
    8   12   13     -0.57      1.12
    7   12   13      0.88      1.10
    6   12   13     -0.16     -0.73
    5   12   13      0.58      0.01
    4   12   13     -0.69     -1.91
    3   12   13      0.81      0.45
    2   12   13     -0.89     -1.38
    1   12   13     -0.19      0.56
    0   12   13     -0.12     -0.80
   12   13   13      1.40     -0.58
   11   13   13     -2.17      0.45
   10   13   13      2.30      1.73
    9   13   13     -1.41      0.87
    8   13   13      1.03      2.34
    7   13   13      0.15     -0.50
    6   13   13     -0.57      0.82
    5   13   13      0.01     -2.02
    4   13   13     -0.27      0.22
    3   13   13     -0.86     -1.56
    2   13   13     -0.14      0.72
    1   13   13     -0.64     -0.35
    0   13   13     -0.54      0.11
   13   14   13      0.68     -1.91
   12   14   13     -2.83     -0.15
   11   14   13      1.96      0.13
   10   14   13     -2.74      0.29
    9   14   13      1.64      2.19
    8   14   13     -0.33     -0.37
    7   14   13     -0.75      1.58
    6   14   13      0.86     -1.89
    5   14   13     -1.60      0.09
    4   14   13      0.04     -1.74
    3   14   13     -0.68      0.32
    2   14   13     -0.60      0.01
    1   14   13     -0.41      0.47
    0   14   13     -0.07      0.98
   14   15   13      0.40     -2.06
   13   15   13     -3.00     -0.42
   12   15   13      1.50     -1.28
   11   15   13     -3.93     -0.21
   10   15   13      2.16      0.88
    9   15   13     -1.57     -0.27
    8   15   13      0.11      1.65
    7   15   13      1.02     -1.46
    6   15   13     -2.23      0.23
    5   15   13      1.24     -1.87
    4   15   13     -1.86     -0.18
    3   15   13      0.33     -0.15
    2   15   13     -0.69      0.54
    1   15   13     -0.12      1.80
    0   15   13     -0.36     -0.02
   15   16   13      0.42     -1.40
   14   16   13     -2.68     -0.35
   13   16   13      1.04     -1.48
   12   16   13     -4.45     -0.38
   11   16   13      2.20     -0.29
   10   16   13     -2.95     -0.10
    9   16   13      1.35      1.09
    8   16   13      0.29     -0.70
    7   16   13     -1.53      0.50
    6   16   13      1.85     -1.61
    5   16   13     -2.67     -0.35
    4   16   13      1.52     -0.73
    3   16   13     -1.53      0.52
    2   16   13      0.74      1.55
    1   16   13     -0.70      0.62
    0   16   13     -0.23      2.71
   16   17   13      0.62     -0.78
   15   17   13     -2.00     -0.20
   14   17   13      0.64     -0.75
   13   17   13     -4.15     -0.27
   12   17   13      1.63     -0.41
   11   17   13     -3.80      0.05
   10   17   13      2.04      0.64
    9   17   13     -0.83      0.11
    8   17   13      0.09      0.80
    7   17   13      1.62     -0.76
    6   17   13     -2.10     -0.05
    5   17   13      2.11     -1.06
    4   17   13     -2.02      0.56
    3   17   13      1.78      0.46
    2   17   13     -1.17      1.49
    1   17   13      0.56      2.25
    0   17   13     -0.94     -0.01
   15   18   13      0.43      0.00
   14   18   13     -3.15     -0.14
   13   18   13      0.75      0.33
   12   18   13     -3.81      0.04
   11   18   13      1.69      0.79
   10   18   13     -1.74      0.43
    9   18   13      1.38      1.19
    8   18   13      0.98      0.19
    7   18   13     -0.40      0.56
    6   18   13      2.01     -0.66
    5   18   13     -1.29      0.66
    4   18   13      2.17     -0.49
    3   18   13     -1.05      2.13
    2   18   13      1.64      0.88
    1   18   13     -1.14      1.45
    0   18   13     -0.51      1.65
   14   19   13      0.07      1.06
   13   19   13     -2.98     -0.09
   12   19   13      0.63      1.36
   11   19   13     -2.11      0.11
   10   19   13      1.40      1.60
    9   19   13      0.33      0.44
    8   19   13      1.05      1.22
    7   19   13      1.71      0.07
    6   19   13      0.25      0.77
    5   19   13      1.93     -0.54
    4   19   13     -0.03      2.06
    3   19   13      2.11     -0.25
    2   19   13     -0.61      2.77
    1   19   13      0.75      0.43
    0   19   13     -1.19     -0.01
   12   20   13     -1.85     -0.40
   11   20   13      0.42      1.81
   10   20   13     -0.21     -0.19
    9   20   13      1.18      1.56
    8   20   13      1.45      0.23
    7   20   13      1.30      0.81
    6   20   13      1.68      0.04
    5   20   13      1.16      1.27
    4   20   13      1.88     -0.32
    3   20   13      0.48      2.89
    2   20   13      1.68     -0.34
    1   20   13     -0.76      1.74
    0   20   13     -0.53     -0.34
   11   21   13     -0.57     -0.94
   10   21   13      0.30      1.42
    9   21   13      0.96     -0.44
    8   21   13      1.09      0.68
    7   21   13      1.60      0.26
    6   21   13      1.48      0.24
    5   21   13      1.55      0.35
    4   21   13      1.23      1.66
    3   21   13      1.86     -0.03
    2   21   13      0.02      2.45
    1   21   13      0.81     -0.52
    0   21   13     -0.91     -0.14
    8   22   13      1.25     -0.22
    7   22   13      0.78     -0.51
    6   22   13      1.38      0.72
    5   22   13      1.00     -0.06
    4   22   13      1.58      0.84
    3   22   13      0.43      1.64
    2   22   13      1.54      0.14
    1   22   13     -0.60      1.13
    0   22   13     -0.17     -0.43
    5   23   13      1.18      1.22
    4   23   13      0.11      0.10
    3   23   13      1.50      1.06
    2   23   13     -0.33      1.22
    1   23   13      0.86      0.20
    0   23   13     -0.72     -0.12
    0    0   14      1.54      0.03
    1    1   14      1.26      0.08
    0    1   14      0.04     -0.01
    2    2   14      0.74      0.22
    1    2   14      0.03     -0.10
    0    2   14      1.17      0.04
    3    3   14     -0.03      0.31
    2    3   14     -0.03     -0.17
    1    3   14      0.93      0.23
    0    3   14     -0.06     -0.02
    4    4   14     -0.76      0.29
    3    4   14     -0.09     -0.18
    2    4   14      0.30      0.43
    1    4   14     -0.15     -0.27
    0    4   14      1.30      0.04
    5    5   14     -0.86      0.36
    4    5   14     -0.08     -0.11
    3    5   14     -0.58      0.52
    2    5   14     -0.24     -0.46
    1    5   14      0.95      0.45
    0    5   14     -0.09     -0.51
    6    6   14     -0.15      0.82
    5    6   14      0.02     -0.03
    4    6   14     -1.06      0.61
    3    6   14     -0.22     -0.46
    2    6   14     -0.25      0.79
    1    6   14     -0.18     -0.91
    0    6   14      1.00      0.11
    7    7   14      0.59      1.40
    6    7   14      0.10      0.01
    5    7   14     -0.69      0.93
    4    7   14     -0.07     -0.28
    3    7   14     -1.50      0.89
    2    7   14     -0.23     -0.93
    1    7   14     -0.05      0.59
    0    7   14      0.04     -1.25
    8    8   14      0.20      1.26
    7    8   14      0.09      0.01
    6    8   14      0.02      1.29
    5    8   14      0.05     -0.06
    4    8   14     -1.78      0.87
    3    8   14     -0.16     -0.54
    2    8   14     -1.45      0.63
    1    8   14     -0.05     -1.17
    0    8   14     -0.19      0.16
    9    9   14     -1.47      0.05
    8    9   14      0.07     -0.02
    7    9   14     -0.03      0.96
    6    9   14      0.02      0.06
    5    9   14     -1.06      0.74
    4    9   14     -0.06     -0.03
    3    9   14     -2.08      0.25
    2    9   14     -0.06     -0.58
    1    9   14     -0.75      0.09
    0    9   14      0.14     -0.91
   10   10   14     -3.16     -1.25
    9   10   14      0.23      0.02
    8   10   14     -1.24     -0.38
    7   10   14      0.00      0.10
    6   10   14     -0.36      0.09
    5   10   14     -0.10      0.33
    4   10   14     -1.50     -0.24
    3   10   14      0.00      0.11
    2   10   14     -1.12     -0.51
    1   10   14      0.13     -0.33
    0   10   14      0.04      0.02
   11   11   14     -3.43     -1.28
   10   11   14      0.67      0.18
    9   11   14     -2.67     -1.80
    8   11   14      0.39      0.24
    7   11   14     -0.56     -1.30
    6   11   14     -0.20      0.49
    5   11   14     -0.40     -0.86
    4   11   14     -0.04      0.55
    3   11   14     -0.87     -1.05
    2   11   14      0.19      0.13
    1   11   14      0.26     -0.64
    0   11   14      0.11     -0.12
   12   12   14     -2.19      0.12
   11   12   14      1.24      0.44
   10   12   14     -3.04     -1.95
    9   12   14      1.40      0.66
    8   12   14     -1.44     -2.74
    7   12   14      0.01      0.70
    6   12   14      0.23     -1.84
    5   12   14     -0.25      0.76
    4   12   14     -0.10     -1.28
    3   12   14      0.16      0.29
    2   12   14      0.15     -1.11
    1   12   14      0.22     -0.32
    0   12   14      0.94     -0.12
   13   13   14     -0.73      1.58
   12   13   14      1.66      0.66
   11   13   14     -2.14     -0.62
   10   13   14      2.71      1.23
    9   13   14     -2.05     -3.05
    8   13   14      0.84      1.13
    7   13   14      0.03     -2.86
    6   13   14     -0.42      1.02
    5   13   14      0.71     -1.46
    4   13   14     -0.10      0.45
    3   13   14      0.22     -1.00
    2   13   14      0.20     -0.65
    1   13   14      0.69     -0.59
    0   13   14      0.04     -1.17
   14   14   14     -0.17      1.74
   13   14   14      1.67      0.71
   12   14   14     -0.97      0.91
   11   14   14      3.70      1.61
   10   14   14     -1.91     -1.95
    9   14   14      2.08      1.62
    8   14   14     -0.57     -3.15
    7   14   14     -0.28      1.38
    6   14   14      1.09     -1.75
    5   14   14     -0.51      0.87
    4   14   14      0.72     -0.64
    3   14   14     -0.04     -0.50
    2   14   14      0.35     -0.56
    1   14   14      0.08     -1.87
    0   14   14      0.60     -0.07
   15   15   14     -0.47      0.63
   14   15   14      1.29      0.59
   13   15   14     -0.48      1.27
   12   15   14      3.86      1.53
   11   15   14     -1.40     -0.46
   10   15   14      3.20      1.74
    9   15   14     -1.08     -2.44
    8   15   14      0.22      1.54
    7   15   14      0.87     -1.88
    6   15   14     -0.91      1.34
    5   15   14      1.36     -0.46
    4   15   14     -0.40      0.32
    3   15   14      0.49     -0.38
    2   15   14     -0.13     -1.56
    1   15   14      0.45     -0.37
    0   15   14      0.18     -2.48
   16   16   14     -0.89     -0.57
   15   16   14      0.72      0.42
   14   16   14     -0.65      0.40
   13   16   14      3.14      1.09
   12   16   14     -1.08      0.22
   11   16   14      3.69      1.31
   10   16   14     -1.36     -1.36
    9   16   14      0.90      1.17
    8   16   14      0.16     -1.65
    7   16   14     -1.22      1.28
    6   16   14      1.52     -0.50
    5   16   14     -0.86      1.15
    4   16   14      0.94     -0.40
    3   16   14     -0.40     -0.26
    2   16   14      0.52     -0.88
    1   16   14      0.01     -1.94
    0   16   14      0.73     -0.04
   15   17   14     -0.88     -0.65
   14   17   14      1.92      0.69
   13   17   14     -0.98     -0.15
   12   17   14      3.38      0.63
   11   17   14     -1.44     -0.72
   10   17   14      1.58      0.38
    9   17   14     -0.73     -1.29
    8   17   14     -1.29      0.50
    7   17   14      0.90     -0.62
    6   17   14     -1.49      1.13
    5   17   14      1.02     -0.55
    4   17   14     -0.65      0.97
    3   17   14      0.47     -1.63
    2   17   14     -0.32     -0.47
    1   17   14      0.97     -1.13
    0   17   14      0.65     -1.27
   13   18   14      2.42      0.21
   12   18   14     -1.29     -0.75
   11   18   14      2.02     -0.31
   10   18   14     -1.36     -1.11
    9   18   14     -0.89     -0.48
    8   18   14     -0.22     -0.82
    7   18   14     -2.15      0.20
    6   18   14      0.41     -0.68
    5   18   14     -1.13      1.06
    4   18   14     -0.07     -2.10
    3   18   14     -0.58      0.74
    2   18   14      0.51     -2.66
    1   18   14      0.17     -0.21
    0   18   14      1.38     -0.09
   12   19   14      1.97     -0.49
   11   19   14     -1.43     -1.10
   10   19   14      0.00     -0.94
    9   19   14     -1.13     -1.03
    8   19   14     -2.30     -0.78
    7   19   14     -0.50     -0.78
    6   19   14     -1.92      0.10
    5   19   14     -0.91     -1.93
    4   19   14     -0.91      0.70
    3   19   14     -0.71     -3.55
    2   19   14     -0.43      0.40
    1   19   14      0.93     -2.04
    0   19   14      0.94      0.20
   10   20   14     -1.37     -1.03
    9   20   14     -1.54     -0.95
    8   20   14     -1.09     -0.79
    7   20   14     -2.45     -0.77
    6   20   14     -1.38     -1.29
    5   20   14     -1.50     -0.25
    4   20   14     -1.82     -3.14
    3   20   14     -0.93      0.00
    2   20   14     -0.39     -3.39
    1   20   14      0.03      0.05
    0   20   14      1.04     -0.01
    8   21   14     -2.04     -0.71
    7   21   14     -1.16     -0.56
    6   21   14     -1.99     -0.93
    5   21   14     -1.89     -1.78
    4   21   14     -1.34     -0.91
    3   21   14     -1.50     -3.16
    2   21   14     -0.81     -0.64
    1   21   14      0.34     -1.70
    0   21   14      0.59     -0.30
    5   22   14     -1.53     -1.28
    4   22   14     -1.41     -1.72
    3   22   14     -1.22     -1.35
    2   22   14     -0.42     -2.04
    1   22   14     -0.41     -0.84
    0   22   14      0.66      0.09
    0    1   15      0.81     -0.07
    1    2   15      0.79     -0.05
    0    2   15     -0.06      0.18
    2    3   15      0.59     -0.31
    1    3   15     -0.17      0.41
    0    3   15      0.51     -0.01
    3    4   15      0.27     -0.91
    2    4   15     -0.28      0.42
    1    4   15      0.08     -0.27
    0    4   15     -0.02      0.58
    4    5   15     -0.19     -1.54
    3    5   15     -0.27      0.22
    2    5   15     -0.14     -0.81
    1    5   15     -0.26      0.84
    0    5   15     -0.59      0.00
    5    6   15     -0.85     -1.85
    4    6   15     -0.01     -0.04
    3    6   15     -0.13     -1.28
    2    6   15     -0.36      0.82
    1    6   15     -0.74     -0.47
    0    6   15     -0.01      1.22
    6    7   15     -1.47     -1.63
    5    7   15      0.45     -0.22
    4    7   15     -0.24     -1.35
    3    7   15     -0.09      0.55
    2    7   15     -0.26     -0.71
    1    7   15     -0.25      1.54
    0    7   15     -1.06     -0.03
    7    8   15     -1.34     -0.81
    6    8   15      0.95     -0.32
    5    8   15     -0.65     -0.95
    4    8   15      0.55      0.22
    3    8   15      0.26     -0.45
    2    8   15     -0.16      1.36
    1    8   15     -0.62     -0.12
    0    8   15      0.00      1.79
    8    9   15     -0.04      0.51
    7    9   15      1.16     -0.41
    6    9   15     -0.90     -0.12
    5    9   15      1.26     -0.04
    4    9   15      0.17      0.16
    3    9   15      0.29      0.90
    2    9   15      0.07      0.35
    1    9   15     -0.15      1.61
    0    9   15     -0.80     -0.01
    9   10   15      1.78      1.72
    8   10   15      0.85     -0.60
    7   10   15     -0.34      1.07
    6   10   15      1.58     -0.20
    5   10   15     -0.42      0.92
    4   10   15      0.85      0.60
    3   10   15      0.28      1.03
    2   10   15     -0.03      1.15
    1   10   15     -0.45      0.50
    0   10   15      0.01      1.17
   10   11   15      2.76      1.97
    9   11   15      0.01     -0.95
    8   11   15      0.87      2.18
    7   11   15      1.15     -0.45
    6   11   15     -0.70      1.81
    5   11   15      1.07      0.56
    4   11   15     -0.19      1.57
    3   11   15      0.20      1.01
    2   11   15     -0.11      1.07
    1   11   15     -0.10      0.87
    0   11   15     -0.64      0.06
   11   12   15      2.27      1.06
   10   12   15     -1.04     -1.40
    9   12   15      1.76      2.52
    8   12   15      0.01     -0.96
    7   12   15     -0.26      2.62
    6   12   15      0.70      0.51
    5   12   15     -0.77      2.00
    4   12   15      0.22      1.28
    3   12   15     -0.16      1.29
    2   12   15     -0.12      1.05
    1   12   15     -0.42      0.49
    0   12   15      0.05      0.66
   12   13   15      1.09     -0.21
   11   13   15     -1.83     -1.73
   10   13   15      1.66      1.86
    9   13   15     -1.36     -1.68
    8   13   15      0.46      2.93
    7   13   15     -0.13      0.07
    6   13   15     -0.83      2.39
    5   13   15     -0.12      1.48
    4   13   15     -0.48      1.32
    3   13   15     -0.25      1.55
    2   13   15     -0.23      0.48
    1   13   15     -0.04      1.04
    0   13   15     -0.47      0.08
   13   14   15      0.41     -0.76
   12   14   15     -2.01     -1.70
   11   14   15      0.95      0.78
   10   14   15     -2.36     -2.24
    9   14   15      0.79      2.52
    8   14   15     -0.95     -0.73
    7   14   15     -0.41      2.54
    6   14   15     -0.51      1.12
    5   14   15     -0.64      1.43
    4   14   15     -0.62      1.68
    3   14   15     -0.22      0.36
    2   14   15     -0.17      1.42
    1   14   15     -0.53      0.00
    0   14   15      0.03      1.12
   14   15   15      0.50     -0.25
   13   15   15     -1.53     -1.32
   12   15   15      0.51      0.13
   11   15   15     -2.60     -2.22
   10   15   15      0.69      1.72
    9   15   15     -1.40     -1.42
    8   15   15      0.05      2.25
    7   15   15     -0.51      0.34
    6   15   15     -0.51      1.49
    5   15   15     -0.87      1.15
    4   15   15     -0.21      0.54
    3   15   15     -0.53      1.10
    2   15   15     -0.55      0.01
    1   15   15     -0.06      1.05
    0   15   15     -1.07      0.04
   14   16   15     -0.65     -0.86
   13   16   15      0.58      0.22
   12   16   15     -2.07     -1.61
   11   16   15      0.63      1.06
   10   16   15     -1.48     -1.46
    9   16   15      0.34      1.73
    8   16   15     -0.06     -0.28
    7   16   15     -0.23      1.31
    6   16   15     -0.45      0.38
    5   16   15     -0.05      0.83
    4   16   15     -0.86      0.16
    3   16   15     -0.24      0.57
    2   16   15     -0.26      0.26
    1   16   15     -1.47      0.23
    0   16   15     -0.32      0.39
   13   17   15     -1.08     -0.89
   12   17   15      0.74      0.72
   11   17   15     -1.35     -0.84
   10   17   15      0.61      1.25
    9   17   15      0.33     -0.26
    8   17   15      0.10      1.01
    7   17   15      0.63      0.08
    6   17   15      0.15      0.84
    5   17   15     -0.55     -0.56
    4   17   15      0.40      1.30
    3   17   15     -0.53     -0.85
    2   17   15     -0.96      1.20
    1   17   15     -0.36     -0.35
    0   17   15     -2.20      0.02
   11   18   15      0.89      0.85
   10   18   15      0.14      0.26
    9   18   15      0.50      0.77
    8   18   15      1.55      0.40
    7   18   15      0.31      0.61
    6   18   15      0.58     -0.40
    5   18   15      0.97      1.56
    4   18   15     -0.42     -1.33
    3   18   15      0.39      2.38
    2   18   15     -0.32     -0.99
    1   18   15     -1.77      1.22
    0   18   15     -0.82     -0.60
   10   19   15      0.90      0.56
    9   19   15      1.44      0.88
    8   19   15      0.49      0.37
    7   19   15      1.74      0.36
    6   19   15      1.06      1.19
    5   19   15      0.37     -0.75
    4   19   15      1.64      2.81
    3   19   15     -0.12     -0.96
    2   19   15     -0.11      2.67
    1   19   15     -0.49     -0.28
    0   19   15     -1.78     -0.03
    7   20   15      0.74      0.57
    6   20   15      1.35      0.26
    5   20   15      1.85      2.21
    4   20   15      0.39     -0.19
    3   20   15      1.56      3.25
    2   20   15      0.02      0.28
    1   20   15     -0.62      1.57
    0   20   15     -0.79      0.63
    4   21   15      1.96      2.56
    3   21   15      0.48      0.86
    2   21   15      0.77      2.34
    1   21   15     -0.12      1.29
    0   21   15     -0.64     -0.10
    0    0   16      0.66      0.00
    1    1   16      0.43     -0.28
    0    1   16      0.05     -0.07
    2    2   16      0.14     -0.77
    1    2   16      0.11     -0.30
    0    2   16      0.27     -0.07
    3    3   16      0.24     -0.77
    2    3   16      0.19     -0.29
    1    3   16      0.08     -0.56
    0    3   16      0.09     -0.62
    4    4   16      0.67     -0.08
    3    4   16      0.23     -0.07
    2    4   16      0.25     -0.62
    1    4   16      0.35     -0.65
    0    4   16      0.16     -0.05
    5    5   16      1.07      0.82
    4    5   16      0.11      0.17
    3    5   16      0.65     -0.08
    2    5   16      0.57     -0.30
    1    5   16      0.48     -0.27
    0    5   16      0.16     -0.72
    6    6   16      1.20      1.23
    5    6   16     -0.21      0.26
    4    6   16      0.94      0.64
    3    6   16      0.43      0.07
    2    6   16      0.80     -0.07
    1    6   16      0.54     -0.74
    0    6   16      1.06      0.01
    7    7   16      0.99      0.80
    6    7   16     -0.61      0.16
    5    7   16      1.00      0.94
    4    7   16     -0.21      0.15
    3    7   16      0.82      0.24
    2    7   16      0.63     -0.66
    1    7   16      1.38     -0.04
    0    7   16      0.12     -1.12
    8    8   16      0.38     -0.26
    7    8   16     -0.89      0.02
    6    8   16      0.86      0.52
    5    8   16     -1.12     -0.04
    4    8   16      0.65      0.26
    3    8   16      0.17     -0.64
    2    8   16      1.12     -0.09
    1    8   16      0.49     -1.40
    0    8   16      1.87      0.07
    9    9   16     -0.52     -1.31
    8    9   16     -0.90     -0.03
    7    9   16      0.48     -0.42
    6    9   16     -1.82     -0.28
    5    9   16      0.61     -0.18
    4    9   16     -0.66     -0.80
    3    9   16      0.59     -0.31
    2    9   16      0.53     -1.39
    1    9   16      1.46     -0.10
    0    9   16      0.01     -1.53
   10   10   16     -1.22     -1.73
    9   10   16     -0.64      0.10
    8   10   16     -0.18     -1.34
    7   10   16     -1.90     -0.31
    6   10   16      0.65     -0.92
    5   10   16     -1.32     -1.10
    4   10   16      0.40     -0.75
    3   10   16      0.24     -1.42
    2   10   16      0.61     -0.34
    1   10   16      0.46     -1.34
    0   10   16      1.11      0.11
   11   11   16     -1.26     -1.41
   10   11   16     -0.27      0.37
    9   11   16     -0.77     -1.69
    8   11   16     -1.31     -0.01
    7   11   16      0.48     -1.57
    6   11   16     -1.33     -1.32
    5   11   16      0.63     -1.37
    4   11   16      0.00     -1.79
    3   11   16      0.12     -0.67
    2   11   16      0.72     -1.22
    1   11   16      0.24     -0.01
    0   11   16     -0.05     -0.70
   12   12   16     -0.88     -0.76
   11   12   16      0.07      0.63
   10   12   16     -0.87     -1.40
    9   12   16     -0.41      0.56
    8   12   16      0.10     -1.76
    7   12   16     -0.69     -1.21
    6   12   16      0.77     -1.90
    5   12   16      0.20     -2.38
    4   12   16      0.23     -1.20
    3   12   16      0.92     -1.66
    2   12   16     -0.27     -0.06
    1   12   16      0.45     -0.43
    0   12   16     -0.37      0.08
   13   13   16     -0.63     -0.31
   12   13   16      0.25      0.73
   11   13   16     -0.60     -0.88
   10   13   16      0.34      1.18
    9   13   16     -0.15     -1.46
    8   13   16      0.14     -0.59
    7   13   16      0.53     -1.99
    6   13   16      0.75     -2.67
    5   13   16      0.41     -1.81
    4   13   16      1.33     -2.48
    3   13   16     -0.18     -0.37
    2   13   16      0.84     -0.79
    1   13   16     -0.34      0.30
    0   13   16     -0.12      0.17
   14   14   16     -0.66     -0.23
   13   14   16      0.23      0.60
   12   14   16     -0.43     -0.52
   11   14   16      0.66      1.50
   10   14   16     -0.12     -1.08
    9   14   16      0.66      0.37
    8   14   16      0.18     -1.60
    7   14   16      1.13     -2.20
    6   14   16      0.21     -2.04
    5   14   16      1.82     -2.97
    4   14   16     -0.04     -1.07
    3   14   16      1.28     -1.43
    2   14   16      0.14      0.35
    1   14   16      0.23      0.14
    0   14   16      0.32      0.00
   13   15   16     -0.49     -0.43
   12   15   16      0.50      1.32
   11   15   16     -0.09     -0.89
   10   15   16      0.71      1.13
    9   15   16      0.02     -1.15
    8   15   16      0.96     -1.07
    7   15   16     -0.17     -1.63
    6   15   16      1.86     -2.64
    5   15   16     -0.33     -1.63
    4   15   16      1.75     -1.68
    3   15   16      0.31     -0.25
    2   15   16      0.51     -0.04
    1   15   16      1.44      0.33
    0   15   16     -0.09      0.68
   12   16   16     -0.18     -0.78
   11   16   16      0.46      1.22
   10   16   16     -0.01     -0.95
    9   16   16      0.43      0.05
    8   16   16     -0.34     -0.95
    7   16   16      1.14     -1.64
    6   16   16     -0.77     -1.46
    5   16   16      1.77     -1.31
    4   16   16     -0.26     -1.09
    3   16   16      0.84      0.15
    2   16   16      1.67      0.01
    1   16   16      0.03      0.82
    0   16   16      2.85     -0.03
   10   17   16      0.03      0.49
    9   17   16     -0.26     -0.53
    8   17   16      0.07     -0.64
    7   17   16     -0.87     -0.70
    6   17   16      1.00     -0.68
    5   17   16     -1.03     -1.34
    4   17   16      0.97      0.63
    3   17   16      0.62     -0.88
    2   17   16      0.08      1.07
    1   17   16      3.09     -0.14
    0   17   16      0.24      0.96
    9   18   16     -0.52     -0.18
    8   18   16     -0.58     -0.03
    7   18   16     -0.15     -0.30
    6   18   16     -1.24     -0.80
    5   18   16      0.56      0.84
    4   18   16     -0.80     -1.49
    3   18   16      0.15      1.38
    2   18   16      1.63     -0.89
    1   18   16      0.06      0.61
    0   18   16      3.30      0.06
    6   19   16     -0.21      0.53
    5   19   16     -1.39     -1.29
    4   19   16      0.06      1.33
    3   19   16     -0.34     -1.60
    2   19   16     -0.12      0.41
    1   19   16      1.94     -0.58
    0   19   16      0.46     -0.43
    2   20   16      0.01     -1.23
    1   20   16      0.09     -1.12
    0   20   16      1.31      0.13
    0    1   17     -5.21      0.21
    1    2   17     -4.04      0.63
    0    2   17      0.02      0.60
    2    3   17     -2.71      1.06
    1    3   17     -0.04      0.84
    0    3   17     -2.95      0.16
    3    4   17     -1.92      1.03
    2    4   17     -0.15      0.48
    1    4   17     -1.73      0.65
    0    4   17     -0.05      1.01
    4    5   17     -1.47      0.38
    3    5   17     -0.22     -0.06
    2    5   17     -1.18      0.78
    1    5   17     -0.27      0.63
    0    5   17     -0.91      0.01
    5    6   17     -0.95     -0.50
    4    6   17     -0.13     -0.26
    3    6   17     -1.04      0.39
    2    6   17     -0.48      0.07
    1    6   17     -0.84      0.32
    0    6   17     -0.12      0.48
    6    7   17     -0.43     -1.04
    5    7   17      0.15      0.03
    4    7   17     -0.79     -0.23
    3    7   17     -0.51     -0.06
    2    7   17     -1.13      0.25
    1    7   17     -0.50      0.40
    0    7   17     -1.44     -0.14
    7    8   17     -0.22     -0.94
    6    8   17      0.51      0.53
    5    8   17     -0.41     -0.58
    4    8   17     -0.25      0.39
    3    8   17     -1.05     -0.03
    2    8   17     -0.84      0.52
    1    8   17     -1.95     -0.06
    0    8   17     -0.06      0.71
    8    9   17     -0.29     -0.47
    7    9   17      0.82      0.85
    6    9   17     -0.25     -0.42
    5    9   17      0.21      1.06
    4    9   17     -0.62     -0.10
    3    9   17     -0.95      0.91
    2    9   17     -1.69     -0.15
    1    9   17     -0.71      1.00
    0    9   17     -2.46     -0.28
    9   10   17     -0.37     -0.08
    8   10   17      0.94      0.80
    7   10   17     -0.35     -0.03
    6   10   17      0.63      1.53
    5   10   17     -0.31      0.27
    4   10   17     -0.78      1.43
    3   10   17     -0.85     -0.04
    2   10   17     -1.31      1.16
    1   10   17     -1.79     -0.40
    0   10   17     -0.01      1.07
   10   11   17     -0.25      0.14
    9   11   17      0.89      0.44
    8   11   17     -0.48      0.15
    7   11   17      0.82      1.58
    6   11   17     -0.30      0.80
    5   11   17     -0.54      1.94
    4   11   17     -0.18      0.62
    3   11   17     -1.63      1.37
    2   11   17     -0.57     -0.36
    1   11   17     -0.91      0.93
    0   11   17     -0.85     -0.34
   11   12   17      0.05      0.41
   10   12   17      0.73     -0.02
    9   12   17     -0.46      0.07
    8   12   17      0.78      1.22
    7   12   17     -0.40      0.91
    6   12   17     -0.42      2.29
    5   12   17      0.05      1.55
    4   12   17     -1.74      1.81
    3   12   17      0.26      0.31
    2   12   17     -1.60      0.84
    1   12   17      0.17     -0.53
    0   12   17      0.03      0.46
   12   13   17      0.46      0.75
   11   13   17      0.52     -0.38
   10   13   17     -0.31      0.12
    9   13   17      0.61      0.55
    8   13   17     -0.44      0.49
    7   13   17     -0.41      2.25
    6   13   17      0.08      1.98
    5   13   17     -1.76      2.42
    4   13   17      0.48      1.55
    3   13   17     -1.96      1.09
    2   13   17      0.50     -0.24
    1   13   17     -0.76      0.12
    0   13   17      0.53     -0.18
   12   14   17      0.36     -0.47
   11   14   17     -0.04      0.46
   10   14   17      0.43     -0.19
    9   14   17     -0.43      0.08
    8   14   17     -0.38      1.62
    7   14   17      0.11      1.48
    6   14   17     -1.68      2.74
    5   14   17      0.57      2.49
    4   14   17     -2.06      1.62
    3   14   17      0.31      0.79
    2   14   17     -1.15      0.09
    1   14   17     -0.17     -0.35
    0   14   17      0.14     -0.44
   11   15   17      0.32     -0.63
   10   15   17     -0.38      0.14
    9   15   17     -0.24      0.55
    8   15   17      0.08      0.53
    7   15   17     -1.39      2.31
    6   15   17      0.77      2.27
    5   15   17     -1.95      1.98
    4   15   17      0.35      1.93
    3   15   17     -1.20      0.25
    2   15   17     -0.96      0.02
    1   15   17     -0.17     -0.67
    0   15   17     -1.61      0.05
    9   16   17     -0.06     -0.01
    8   16   17     -0.88      1.23
    7   16   17      0.85      1.08
    6   16   17     -1.55      1.76
    5   16   17      0.80      2.14
    4   16   17     -1.08      0.33
    3   16   17     -0.88      0.82
    2   16   17     -0.10     -0.74
    1   16   17     -2.72     -0.15
    0   16   17      0.14     -0.91
    7   17   17     -0.93      1.04
    6   17   17      1.14      1.21
    5   17   17     -0.80      0.18
    4   17   17     -0.03      1.28
    3   17   17      0.06     -0.89
    2   17   17     -2.38      0.05
    1   17   17      0.31     -0.72
    0   17   17     -3.64      0.06
    4   18   17      0.13     -1.08
    3   18   17     -1.04      0.40
    2   18   17      0.55     -0.68
    1   18   17     -2.98     -0.13
    0   18   17     -0.01     -0.04
    0    0   18      8.52     -0.07
    1    1   18      7.69      0.13
    0    1   18     -0.03     -0.22
    2    2   18      5.92      0.47
    1    2   18     -0.08     -0.58
    0    2   18      6.86     -0.12
    3    3   18      4.22      0.61
    2    3   18     -0.12     -0.58
    1    3   18      4.97      0.25
    0    3   18     -0.09     -1.27
    4    4   18      2.86      0.65
    3    4   18     -0.11     -0.34
    2    4   18      3.28      0.42
    1    4   18     -0.16     -1.26
    0    4   18      3.01     -0.03
    5    5   18      1.58      0.98
    4    5   18     -0.02     -0.13
    3    5   18      2.17      0.44
    2    5   18     -0.14     -0.69
    1    5   18      1.55      0.11
    0    5   18     -0.04     -1.15
    6    6   18      0.48      1.63
    5    6   18      0.13     -0.17
    4    6   18      1.29      0.69
    3    6   18      0.08     -0.27
    2    6   18      1.17      0.07
    1    6   18     -0.02     -0.62
    0    6   18      0.87      0.09
    7    7   18      0.03      2.22
    6    7   18      0.26     -0.41
    5    7   18      0.47      1.21
    4    7   18      0.47     -0.42
    3    7   18      1.15      0.15
    2    7   18      0.28     -0.27
    1    7   18      1.38      0.00
    0    7   18     -0.01     -0.34
    8    8   18      0.33      2.43
    7    8   18      0.26     -0.64
    6    8   18      0.05      1.66
    5    8   18      0.77     -0.98
    4    8   18      0.82      0.40
    3    8   18      0.80     -0.49
    2    8   18      2.03     -0.06
    1    8   18      0.33     -0.32
    0    8   18      2.68      0.21
    9    9   18      0.84      2.31
    8    9   18      0.10     -0.67
    7    9   18      0.21      1.82
    6    9   18      0.73     -1.44
    5    9   18      0.31      0.51
    4    9   18      1.22     -1.04
    3    9   18      1.81     -0.09
    2    9   18      0.95     -0.62
    1    9   18      3.39      0.15
    0    9   18     -0.02     -0.57
   10   10   18      0.94      1.91
    9   10   18     -0.16     -0.49
    8   10   18      0.61      1.79
    7   10   18      0.30     -1.50
    6   10   18      0.03      0.41
    5   10   18      1.21     -1.46
    4   10   18      0.85     -0.42
    3   10   18      1.51     -0.97
    2   10   18      2.73      0.01
    1   10   18      0.69     -1.00
    0   10   18      3.75      0.35
   11   11   18      0.45      1.10
   10   11   18     -0.36     -0.25
    9   11   18      0.76      1.64
    8   11   18     -0.32     -1.20
    7   11   18      0.09      0.41
    6   11   18      0.73     -1.55
    5   11   18     -0.07     -1.02
    4   11   18      1.65     -1.12
    3   11   18      1.19     -0.57
    2   11   18      1.43     -1.15
    1   11   18      2.61      0.30
    0   11   18     -0.01     -1.42
   11   12   18     -0.41     -0.05
   10   12   18      0.49      1.12
    9   12   18     -0.78     -0.76
    8   12   18      0.32      0.69
    7   12   18      0.05     -1.40
    6   12   18     -0.44     -1.33
    5   12   18      1.32     -1.16
    4   12   18     -0.16     -1.65
    3   12   18      1.81     -0.96
    2   12   18      0.94     -0.16
    1   12   18      0.85     -1.45
    0   12   18      1.55      0.32
   10   13   18     -0.86     -0.29
    9   13   18      0.48      0.87
    8   13   18     -0.43     -1.08
    7   13   18     -0.25     -0.88
    6   13   18      0.78     -1.25
    5   13   18     -0.77     -2.50
    4   13   18      1.69     -0.79
    3   13   18     -0.23     -1.25
    2   13   18      1.43     -0.98
    1   13   18      0.51      0.16
    0   13   18     -0.04     -1.39
    9   14   18     -0.47     -0.54
    8   14   18      0.19     -0.02
    7   14   18      0.41     -1.23
    6   14   18     -0.71     -2.33
    5   14   18      1.29     -0.90
    4   14   18     -0.68     -2.41
    3   14   18      1.48     -0.46
    2   14   18      0.10     -0.45
    1   14   18      0.61     -0.78
    0   14   18      0.57      0.07
    7   15   18     -0.32     -1.20
    6   15   18      0.95     -1.10
    5   15   18     -0.70     -2.69
    4   15   18      1.13     -0.32
    3   15   18      0.06     -1.34
    2   15   18      0.76     -0.05
    1   15   18      1.00     -0.02
    0   15   18     -0.13     -0.24
    5   16   18      0.75     -0.48
    4   16   18     -0.03     -1.81
    3   16   18      0.46      0.32
    2   16   18      1.19     -0.26
    1   16   18      0.08      0.29
    0   16   18      1.89     -0.10
    0    1   19     -6.13     -0.09
    1    2   19     -5.40     -1.26
    0    2   19      0.07      0.59
    2    3   19     -4.44     -2.34
    1    3   19      0.19      0.92
    0    3   19     -4.38     -0.08
    3    4   19     -3.40     -2.45
    2    4   19      0.31      0.96
    1    4   19     -3.10     -1.22
    0    4   19      0.08      1.42
    4    5   19     -2.15     -2.00
    3    5   19      0.26      0.90
    2    5   19     -2.24     -1.41
    1    5   19      0.30      1.40
    0    5   19     -1.81     -0.09
    5    6   19     -0.79     -1.86
    4    6   19     -0.08      0.96
    3    6   19     -1.67     -1.01
    2    6   19      0.33      1.19
    1    6   19     -1.49     -0.36
    0    6   19      0.02      1.21
    6    7   19      0.10     -2.22
    5    7   19     -0.61      1.14
    4    7   19     -1.00     -0.79
    3    7   19     -0.06      1.17
    2    7   19     -1.88      0.01
    1    7   19      0.17      0.83
    0    7   19     -2.14     -0.09
    7    8   19      0.17     -2.61
    6    8   19     -1.02      1.27
    5    8   19     -0.30     -0.98
    4    8   19     -0.77      1.39
    3    8   19     -1.98      0.35
    2    8   19     -0.04      0.73
    1    8   19     -3.30      0.26
    0    8   19      0.00      0.40
    8    9   19     -0.28     -2.70
    7    9   19     -1.00      1.17
    6    9   19      0.10     -1.22
    5    9   19     -1.32      1.55
    4    9   19     -1.32      0.46
    3    9   19     -0.58      0.93
    2    9   19     -3.65      0.71
    1    9   19     -0.05      0.43
    0    9   19     -4.78     -0.13
    9   10   19     -0.60     -2.48
    8   10   19     -0.53      0.89
    7   10   19      0.11     -1.35
    6   10   19     -1.28      1.39
    5   10   19     -0.29      0.52
    4   10   19     -1.05      1.04
    3   10   19     -2.63      1.09
    2   10   19     -0.38      0.75
    1   10   19     -4.83      0.33
    0   10   19      0.03      0.76
    9   11   19      0.09      0.60
    8   11   19     -0.08     -1.44
    7   11   19     -0.60      1.03
    6   11   19      0.42      0.49
    5   11   19     -1.00      0.85
    4   11   19     -0.92      1.50
    3   11   19     -0.75      0.83
    2   11   19     -3.33      0.79
    1   11   19     -0.24      1.32
    0   11   19     -4.56     -0.17
    8   12   19      0.25      0.70
    7   12   19      0.46      0.13
    6   12   19     -0.40      0.51
    5   12   19      0.39      1.74
    4   12   19     -0.79      0.50
    3   12   19     -1.28      1.35
    2   12   19     -0.65      1.34
    1   12   19     -2.95      0.20
    0   12   19      0.06      2.01
    6   13   19      0.66      1.44
    5   13   19     -0.41      0.11
    4   13   19      0.18      1.84
    3   13   19     -0.86      0.73
    2   13   19     -1.15      0.62
    1   13   19     -0.44      1.86
    0   13   19     -1.96     -0.12
    4   14   19     -0.68      0.10
    3   14   19     -0.02      1.08
    2   14   19     -0.85      0.94
    1   14   19     -0.89      0.07
    0   14   19      0.08      1.55
    0    0   20      1.91      0.10
    1    1   20      2.07      0.91
    0    1   20     -0.05     -0.01
    2    2   20      2.40      2.37
    1    2   20     -0.09     -0.05
    0    2   20      2.15      0.10
    3    3   20      2.44      2.93
    2    3   20     -0.11     -0.22
    1    3   20      2.24      1.60
    0    3   20     -0.07     -0.33
    4    4   20      1.83      2.34
    3    4   20     -0.09     -0.51
    2    4   20      2.18      2.24
    1    4   20     -0.17     -0.77
    0    4   20      1.95      0.12
    5    5   20      0.71      1.67
    4    5   20      0.00     -0.77
    3    5   20      1.71      1.73
    2    5   20     -0.24     -1.34
    1    5   20      1.80      0.87
    0    5   20      0.01     -1.28
    6    6   20     -0.24      1.65
    5    6   20      0.18     -0.90
    4    6   20      0.88      1.10
    3    6   20     -0.13     -1.81
    2    6   20      1.77      0.52
    1    6   20     -0.18     -1.55
    0    6   20      1.95      0.13
    7    7   20     -0.51      1.91
    6    7   20      0.40     -0.85
    5    7   20      0.09      1.05
    4    7   20      0.24     -1.99
    3    7   20      1.56     -0.05
    2    7   20     -0.27     -1.65
    1    7   20      2.49     -0.13
    0    7   20      0.10     -1.24
    8    8   20     -0.22      1.87
    7    8   20      0.55     -0.66
    6    8   20     -0.29      1.29
    5    8   20      0.78     -1.83
    4    8   20      1.04     -0.17
    3    8   20     -0.05     -1.65
    2    8   20      2.84     -0.71
    1    8   20     -0.21     -0.78
    0    8   20      3.60      0.09
    7    9   20     -0.25      1.29
    6    9   20      1.15     -1.42
    5    9   20      0.35     -0.02
    4    9   20      0.42     -1.51
    3    9   20      2.42     -0.98
    2    9   20     -0.32     -0.62
    1    9   20      4.13     -0.53
    0    9   20      0.07     -0.14
    6   10   20     -0.22      0.06
    5   10   20      0.79     -1.18
    4   10   20      1.31     -0.96
    3   10   20     -0.13     -0.69
    2   10   20      3.56     -0.94
    1   10   20     -0.25     -0.12
    0   10   20      4.55      0.02
    4   11   20      0.14     -0.64
    3   11   20      2.11     -1.04
    2   11   20     -0.25     -0.48
    1   11   20      3.78     -0.43
    0   11   20     -0.03     -0.49
    0   12   20      3.07     -0.01
    0    1   21      0.39      0.01
    1    2   21     -0.11     -0.94
    0    2   21      0.11     -0.36
    2    3   21     -0.53     -1.62
    1    3   21      0.07     -0.32
    0    3   21     -0.42     -0.02
    3    4   21     -0.45     -1.30
    2    4   21     -0.06      0.32
    1    4   21     -0.81     -0.80
    0    4   21      0.08     -0.02
    4    5   21     -0.01     -0.62
    3    5   21     -0.17      1.13
    2    5   21     -0.87     -0.66
    1    5   21     -0.04      0.78
    0    5   21     -1.19     -0.12
    5    6   21      0.31     -0.44
    4    6   21     -0.21      1.58
    3    6   21     -0.62     -0.14
    2    6   21     -0.11      1.63
    1    6   21     -1.49     -0.13
    0    6   21     -0.02      1.25
    4    7   21     -0.36     -0.03
    3    7   21     -0.10      1.99
    2    7   21     -1.51      0.23
    1    7   21      0.00      1.34
    0    7   21     -1.99     -0.19
    2    8   21      0.15      1.15
    1    8   21     -2.18      0.16
    0    8   21     -0.07      0.66
    1    1    0    149.81      0.00
    0    2    0    125.25      0.13
    1    2    0      0.38     -0.24
    1    3    0     70.43      0.16
   21   21    0      0.13      0.17
   16   25    0     -0.72     -0.14
   14   26    0      1.05      0.39
   12   27    0      1.43      0.36
    6   29    0     -0.12      2.09
    0    1    1   -134.28      0.14
    0    3    1    -64.84     -0.09
   16   25    1     -0.99     -0.07
   14   26    1      0.04     -0.85
   12   27    1      0.06     -1.22
    6   29    1     -2.08      1.05
    0    2    2     54.39      0.18
   17   24    2     -0.11     -0.03
   14   26    2      1.57      1.21
   12   27    2      0.02     -0.76
    9   28    2     -0.50     -2.74
    5   29    2      1.75     -3.97
   17   24    3     -1.04      0.90
    9   28    3      1.78     -1.36
    4   29    3     -1.23      5.54
    5   29    3     -1.51      3.28
   19   22    4      0.22     -1.61
   18   23    4      0.41     -1.83
   15   25    4      0.18     -0.89
   13   26    4     -0.61      0.53
   11   27    4     -0.63      0.92
    8   28    4     -0.20     -0.47
    1   29    4      1.25     -0.51
    2   29    4      0.05      1.47
    3   29    4      0.99     -2.38
   16   24    5     -0.16      1.07
   10   27    5     -0.38      0.58
    7   28    5     -0.97      1.77
   18   22    6      0.24     -0.22
    9   27    6      1.58     -2.02
    5   28    6     -1.23     -3.63
   16   23    7     -0.45      1.45
    8   27    7     -1.18      2.51
    0   28    7     -0.06     -3.24
    1   28    7      3.42     -1.79
    2   28    7     -1.93     -1.22
    3   28    7      3.09     -2.96
   19   20    8      0.48     -0.01
   18   21    8      1.06     -0.01
    9   26    8     -0.01     -2.71
    6   27    8      0.26     -2.50
   18   20    9     -1.29     -0.31
   17   21    9     -1.39     -0.43
   14   23    9     -1.41      0.65
   10   25    9      2.89      0.28
    7   26    9      1.36     -0.57
    0   27    9     -0.47      0.18
    1   27    9     -1.78      1.51
    2   27    9     -0.07     -0.01
   16   21   10      1.02      0.46
   13   23   10      0.59      0.22
   11   24   10     -0.37      0.49
    4   26   10      0.78      1.20
    5   26   10      1.85     -1.28
   16   20   11     -1.82     -0.29
   13   22   11     -1.45     -0.10
    9   24   11      0.15     -1.45
    6   25   11     -0.19     -2.86
   17   18   12      0.84      0.02
   16   19   12      1.96      0.04
   13   21   12      1.61     -1.34
    9   23   12      0.85      0.70
    6   24   12      0.54      2.40
   13   20   13     -0.31      1.75
    9   22   13      0.18      0.38
    6   23   13      0.17     -1.19
    0   24   13      0.14      0.33
   14   18   14     -0.83     -0.81
   11   20   14      0.84     -0.70
    9   21   14     -1.09     -0.59
    6   22   14     -0.95     -0.35
   12   18   15     -1.04     -0.13
    8   20   15      1.90      0.88
    5   21   15      0.98      0.61
   11   17   16     -0.06     -0.83
    7   19   16     -0.79     -0.03
    3   20   16     -0.17      0.34
    4   20   16     -1.35     -1.63
   10   16   17     -0.08     -0.34
    8   17   17      0.63     -0.05
    5   18   17      0.70      0.92
   12   12   18     -0.30      0.00
   11   13   18     -0.02      0.21
    8   15   18      0.36     -0.84
    6   16   18     -0.57     -1.80
    0   17   18     -0.12      0.34
    1   17   18      1.96      0.14
    2   17   18     -0.12      0.54
   10   11   19     -0.45     -1.86
    9   12   19     -0.24     -1.34
    7   13   19      0.27      0.30
    5   14   19      0.55      1.84
    0   15   19     -0.76     -0.01
    1   15   19     -0.47      0.55
    8    9   20      0.50     -0.43
    7   10   20      1.03     -0.94
    5   11   20      0.12     -0.84
    1   12   20     -0.07     -0.93
    2   12   20      2.27     -0.55
    3   12   20     -0.03     -0.59
    5    7   21     -0.29      1.49
    3    8   21     -1.30      0.31
    4    8   21     -0.18      1.78
    0    9   21     -2.31     -0.10
    1    9   21      0.18     -0.04
    0    0    0      0.00      0.00
# SQUEEZE RESULTS
# Note: Data are Listed for all Voids in the P1 Unit Cell
# i.e. Centre of Gravity, Solvent Accessible Volume,
# Recovered number of Electrons in the Void and
# Details about the Squeezed Material
loop_
  _platon_squeeze_void_nr
  _platon_squeeze_void_average_x
  _platon_squeeze_void_average_y
  _platon_squeeze_void_average_z
  _platon_squeeze_void_volume
  _platon_squeeze_void_count_electrons
  _platon_squeeze_void_content
   1  0.500  0.500  0.000       217        78 ' '
   2  0.000  0.000  0.500       217        78 ' '
# Missing Reflections Below sin(th)/lambda= 0.25
loop_
  _platon_missing_refln_index_h
  _platon_missing_refln_index_k
  _platon_missing_refln_index_l
  _platon_missing_refln_theta
    1    1    0     1.373
    0    2    0     1.942
    1    2    0     2.171
    1    3    0     3.071
    0    1    1     1.629
    0    3    1     3.194
    0    2    2     3.259
_platon_squeeze_void_probe_radius                  1.20
_platon_squeeze_details
)
TITL 1         P -4 21 c    R = 0.10
CELL   20.9730   20.9730   15.5680     90.00     90.00     90.00
SPGR P-421c
# Solvent Accessible Volume =     447.7
# Electrons Found in S.A.V. =     153.8
# Note: Atoms in Void as Cxxx and Qxxx all others
C101 0.964 0.939 0.425 !       3.38 eA-3
C102 0.550 0.486 0.059 !       2.99 eA-3
C103 0.502 0.503 0.045 !       2.73 eA-3
C104 1.000 1.003 0.547 !       2.72 eA-3
C105 0.986 0.079 0.569 !       2.66 eA-3
C106 0.967 0.043 0.465 !       2.27 eA-3
C107 1.005 0.052 0.501 !       2.20 eA-3
C108 0.511 0.456 0.919 !       2.04 eA-3
C109 0.549 0.545 0.979 !       2.03 eA-3
C110 0.511 0.484 0.111 !       2.01 eA-3
C111 0.578 0.519 0.044 !       1.99 eA-3
C112 0.015 0.937 0.656 !       1.94 eA-3
C113 0.579 0.499 0.957 !       1.91 eA-3
Q114 0.770 0.965 0.022 !       1.89 eA-3
C115 0.924 0.047 0.407 !       1.89 eA-3
C116 0.563 0.574 0.950 !       1.79 eA-3
Q117 0.699 0.906 0.013 !       1.72 eA-3
C118 0.022 0.988 0.491 !       1.66 eA-3
C119 0.423 0.439 0.031 !       1.57 eA-3
C120 0.997 0.049 0.407 !       1.55 eA-3
C121 0.970 0.077 0.483 !       1.51 eA-3
C122 0.956 0.077 0.388 !       1.40 eA-3
Q123 0.093 0.769 0.988 !       1.37 eA-3
C124 0.050 0.891 0.564 !       1.34 eA-3
C125 0.405 0.437 0.952 !       1.30 eA-3
Q126 0.613 0.405 0.062 !       1.26 eA-3
Q127 0.405 0.627 0.048 !       1.22 eA-3
Q128 0.110 0.013 0.609 !       1.22 eA-3
C129 0.551 0.531 0.839 !       1.21 eA-3
C130 0.604 0.485 0.048 !       1.20 eA-3
Q131 0.424 0.410 0.824 !       1.18 eA-3
Q132 0.876 0.046 0.376 !       1.16 eA-3
C133 0.407 0.441 0.861 !       1.16 eA-3
C134 0.594 0.542 0.972 !       1.16 eA-3
Q135 0.919 0.063 0.715 !       1.13 eA-3
C136 0.587 0.581 0.924 !       1.12 eA-3
Q137 0.362 0.469 0.051 !       1.11 eA-3
C138 0.016 0.988 0.343 !       1.10 eA-3
C139 0.908 0.936 0.387 !       1.10 eA-3
C140 0.515 0.488 0.844 !       1.10 eA-3
Q141 1.003 0.828 0.582 !       1.09 eA-3
Q142 0.592 0.625 0.984 !       1.09 eA-3
C143 0.566 0.592 0.888 !       1.08 eA-3
Q144 0.109 0.033 0.348 !       1.08 eA-3
Q145 0.457 0.550 0.220 !       1.06 eA-3
C146 0.408 0.484 0.841 !       1.02 eA-3
C147 0.594 0.573 0.985 !       0.98 eA-3
Q148 0.111 0.951 0.687 !       0.98 eA-3
C149 0.864 1.000 0.507 !       0.96 eA-3
Q150 0.454 0.344 0.911 !       0.96 eA-3
C151 0.876 0.061 0.611 !       0.95 eA-3
Q152 0.482 0.200 0.516 !       0.95 eA-3
C153 0.062 0.936 0.673 !       0.91 eA-3
Q154 1.000 1.000 0.000 !       0.90 eA-3
C155 0.905 1.000 0.346 !       0.87 eA-3
Q156 0.913 0.080 0.397 !       0.86 eA-3
Q157 0.671 0.046 0.986 !       0.86 eA-3
Q158 0.906 0.935 0.503 !       0.79 eA-3
Q159 0.452 0.375 0.564 !       0.79 eA-3
Q160 0.014 0.985 0.940 !       0.79 eA-3
Q161 1.000 0.498 0.750 !       0.78 eA-3
Q162 0.375 0.752 0.579 !       0.78 eA-3
Q163 0.911 0.917 0.640 !       0.77 eA-3
Q164 0.249 0.298 0.733 !       0.77 eA-3
Q165 0.436 0.232 0.609 !       0.76 eA-3
Q166 0.425 0.405 0.312 !       0.76 eA-3
Q167 1.000 1.001 0.765 !       0.75 eA-3
Q168 0.331 0.207 0.891 !       0.75 eA-3
Q169 0.810 0.015 0.517 !       0.75 eA-3
Q170 0.935 0.342 0.748 !       0.75 eA-3
Q171 0.938 0.812 0.191 !       0.73 eA-3
Q172 0.684 0.406 0.657 !       0.73 eA-3
Q173 0.799 0.403 0.858 !       0.73 eA-3
Q174 0.546 0.688 0.939 !       0.73 eA-3
Q175 0.502 0.344 0.064 !       0.73 eA-3
Q176 0.705 0.811 0.016 !       0.72 eA-3
Q177 0.937 0.643 0.188 !       0.72 eA-3
Q178 0.011 0.077 0.299 !       0.71 eA-3
Q179 0.845 0.419 0.191 !       0.71 eA-3
Q180 0.029 0.427 0.939 !       0.71 eA-3
Q181 0.093 0.297 0.734 !       0.70 eA-3
Q182 0.766 0.060 0.576 !       0.70 eA-3
Q183 0.640 0.233 0.186 !       0.70 eA-3
Q184 0.794 0.471 0.903 !       0.69 eA-3
Q185 0.563 0.048 0.966 !       0.69 eA-3
Q186 0.625 0.064 0.005 !       0.68 eA-3
Q187 0.169 0.453 0.377 !       0.68 eA-3
Q188 0.593 0.347 0.410 !       0.68 eA-3
Q189 0.658 0.641 0.063 !       0.68 eA-3
Q190 0.094 0.251 0.514 !       0.68 eA-3
Q191 0.309 0.014 0.829 !       0.67 eA-3
Q192 0.406 0.439 0.513 !       0.67 eA-3
C193 0.922 0.980 0.642 !       0.67 eA-3
Q194 0.564 0.624 0.127 !       0.67 eA-3
Q195 0.361 0.405-0.004 !       0.67 eA-3
Q196 0.920 0.157 0.220 !       0.67 eA-3
C197 0.673 0.173 0.613 !       0.67 eA-3
Q198 0.158 0.657 0.176 !       0.66 eA-3
Q199 0.657 0.503 0.124 !       0.66 eA-3
)
;
_shelx_fab_checksum              17958
loop_
_space_group_symop_operation_xyz
'x, y, z'
'-x, -y, z'
'y, -x, -z'
'-y, x, -z'
'-x+1/2, y+1/2, -z+1/2'
'x+1/2, -y+1/2, -z+1/2'
'-y+1/2, -x+1/2, z+1/2'
'y+1/2, x+1/2, z+1/2'
loop_
_atom_site_label
_atom_site_type_symbol
_atom_site_fract_x
_atom_site_fract_y
_atom_site_fract_z
_atom_site_U_iso_or_equiv
_atom_site_adp_type
_atom_site_occupancy
_atom_site_site_symmetry_order
_atom_site_calc_flag
_atom_site_refinement_flags_posn
_atom_site_refinement_flags_adp
Zn1 Zn 0.26481(7) 0.05855(7) 0.01190(8) 0.0393(4) Uani 1 1 d . .
P1 P 0.19546(18) -0.06217(19) -0.08496(19) 0.0524(10) Uani 1 1 d . .
O1 O 0.2180(4) -0.0276(4) -0.0098(5) 0.053(2) Uani 1 1 d . .
O2 O 0.1531(5) -0.0195(5) -0.1447(6) 0.061(3) Uani 1 1 d . .
O3 O 0.2481(5) -0.0791(4) -0.1503(5) 0.053(3) Uani 1 1 d . .
O4 O 0.2034(6) 0.1554(6) -0.5475(5) 0.078(3) Uani 1 1 d . .
O5 O 0.2970(6) -0.0257(6) 0.5838(5) 0.078(3) Uani 1 1 d . .
N1 N 0.3272(5) 0.0564(5) -0.0928(6) 0.042(3) Uani 1 1 d . .
N2 N 0.3350(6) 0.0202(6) 0.0869(6) 0.049(3) Uani 1 1 d . .
N3 N 0.2172(5) 0.0863(5) 0.1211(6) 0.040(3) Uani 1 1 d . .
N4 N 0.2093(5) 0.1223(5) -0.0566(5) 0.044(3) Uani 1 1 d . .
C1 C 0.3815(6) 0.0206(6) -0.0967(7) 0.035(3) Uani 1 1 d . .
C2 C 0.4031(6) 0.0146(6) -0.1831(7) 0.041(3) Uani 1 1 d . .
H2A H 0.4460 0.0335 -0.1895 0.050 Uiso 1 1 calc R U
H2B H 0.4050 -0.0308 -0.2001 0.050 Uiso 1 1 calc R U
C3 C 0.3595(6) 0.0469(6) -0.2329(7) 0.039(3) Uani 1 1 d . .
H3A H 0.3397 0.0176 -0.2751 0.046 Uiso 1 1 calc R U
H3B H 0.3807 0.0819 -0.2646 0.046 Uiso 1 1 calc R U
C4 C 0.3109(6) 0.0727(5) -0.1750(7) 0.037(3) Uani 1 1 d . .
C5 C 0.2616(6) 0.1094(6) -0.1984(7) 0.035(3) Uani 1 1 d . .
C6 C 0.2494(6) 0.1210(8) -0.2931(7) 0.053(4) Uani 1 1 d . .
C7 C 0.2880(7) 0.1616(7) -0.3380(8) 0.054(4) Uani 1 1 d . .
H7A H 0.3241 0.1806 -0.3113 0.064 Uiso 1 1 calc R U
C8 C 0.2732(8) 0.1750(8) -0.4262(8) 0.061(4) Uani 1 1 d . .
H8A H 0.2990 0.2038 -0.4579 0.074 Uiso 1 1 calc R U
C9 C 0.2225(8) 0.1466(8) -0.4642(7) 0.057(4) Uani 1 1 d . .
C10 C 0.2437(10) 0.1981(10) -0.5976(9) 0.098(7) Uani 1 1 d . .
H10A H 0.2267 0.2018 -0.6560 0.147 Uiso 1 1 calc R U
H10B H 0.2871 0.1809 -0.5999 0.147 Uiso 1 1 calc R U
H10C H 0.2444 0.2403 -0.5705 0.147 Uiso 1 1 calc R U
C11 C 0.1842(8) 0.1040(9) -0.4199(9) 0.070(5) Uani 1 1 d . .
H11A H 0.1499 0.0827 -0.4475 0.084 Uiso 1 1 calc R U
C12 C 0.1978(8) 0.0937(8) -0.3344(9) 0.064(4) Uani 1 1 d . .
H12A H 0.1704 0.0666 -0.3023 0.077 Uiso 1 1 calc R U
C13 C 0.2136(7) 0.1363(7) -0.1428(8) 0.048(3) Uani 1 1 d . .
C14 C 0.1673(7) 0.1806(8) -0.1669(8) 0.063(5) Uani 1 1 d . .
H14A H 0.1611 0.1979 -0.2227 0.076 Uiso 1 1 calc R U
C15 C 0.1344(8) 0.1935(8) -0.0982(9) 0.072(5) Uani 1 1 d . .
H15A H 0.1000 0.2229 -0.0951 0.086 Uiso 1 1 calc R U
C16 C 0.1583(7) 0.1562(7) -0.0276(8) 0.059(4) Uani 1 1 d . .
C17 C 0.1552(9) -0.1327(8) -0.0587(7) 0.071(5) Uani 1 1 d . .
C18 C 0.1626(8) 0.1191(8) 0.1275(7) 0.063(5) Uani 1 1 d . .
C19 C 0.1403(8) 0.1231(8) 0.2168(8) 0.064(5) Uani 1 1 d . .
H19A H 0.1041 0.1454 0.2378 0.076 Uiso 1 1 calc R U
C20 C 0.1823(9) 0.0886(8) 0.2620(8) 0.074(5) Uani 1 1 d . .
H20A H 0.1805 0.0810 0.3221 0.088 Uiso 1 1 calc R U
C21 C 0.2308(6) 0.0647(7) 0.2040(7) 0.043(3) Uani 1 1 d . .
C22 C 0.2819(7) 0.0256(7) 0.2261(8) 0.050(4) Uani 1 1 d . .
C23 C 0.2849(7) 0.0072(6) 0.3214(7) 0.042(3) Uani 1 1 d . .
C24 C 0.2430(7) -0.0331(6) 0.3572(8) 0.050(4) Uani 1 1 d . .
H24A H 0.2111 -0.0523 0.3225 0.060 Uiso 1 1 calc R U
C25 C 0.2457(8) -0.0469(8) 0.4443(8) 0.069(5) Uani 1 1 d . .
H25A H 0.2161 -0.0759 0.4691 0.082 Uiso 1 1 calc R U
C26 C 0.2911(6) -0.0187(7) 0.4939(8) 0.049(3) Uani 1 1 d . .
C27 C 0.2509(10) -0.0665(10) 0.6226(8) 0.099(7) Uani 1 1 d . .
H27A H 0.2544 -0.0636 0.6853 0.149 Uiso 1 1 calc R U
H27B H 0.2587 -0.1106 0.6045 0.149 Uiso 1 1 calc R U
H27C H 0.2081 -0.0535 0.6048 0.149 Uiso 1 1 calc R U
C28 C 0.3338(8) 0.0265(8) 0.4588(7) 0.065(5) Uani 1 1 d . .
H28A H 0.3634 0.0489 0.4938 0.078 Uiso 1 1 calc R U
C29 C 0.3306(7) 0.0366(9) 0.3716(8) 0.065(5) Uani 1 1 d . .
H29A H 0.3605 0.0645 0.3453 0.078 Uiso 1 1 calc R U
C30 C 0.3306(6) 0.0055(6) 0.1748(7) 0.036(3) Uani 1 1 d . .
C31 C 0.3812(7) -0.0350(7) 0.1972(8) 0.054(4) Uani 1 1 d . .
H31A H 0.3884 -0.0527 0.2526 0.065 Uiso 1 1 calc R U
C32 C 0.4184(6) -0.0451(8) 0.1262(8) 0.059(4) Uani 1 1 d . .
H32A H 0.4564 -0.0697 0.1223 0.071 Uiso 1 1 calc R U
C33 C 0.3879(6) -0.0108(7) 0.0604(8) 0.045(3) Uani 1 1 d . .
C34 C 0.4103(7) -0.0090(6) -0.0268(7) 0.047(3) Uani 1 1 d . .
H34A H 0.4493 -0.0305 -0.0380 0.056 Uiso 1 1 calc R U
C35 C 0.0938(9) 0.0120(11) -0.1041(15) 0.103(5) Uani 1 1 d . .
H35A H 0.0632 -0.0208 -0.0846 0.124 Uiso 1 1 calc R U
H35B H 0.1062 0.0386 -0.0542 0.124 Uiso 1 1 calc R U
C36 C 0.0646(9) 0.0530(10) -0.1741(15) 0.103(5) Uani 1 1 d . .
H36A H 0.0206 0.0636 -0.1588 0.155 Uiso 1 1 calc R U
H36B H 0.0650 0.0296 -0.2286 0.155 Uiso 1 1 calc R U
H36C H 0.0894 0.0924 -0.1803 0.155 Uiso 1 1 calc R U
C37 C 0.2981(9) -0.1245(8) -0.1262(10) 0.075(6) Uani 1 1 d . .
H37A H 0.2897 -0.1401 -0.0672 0.091 Uiso 1 1 calc R U
H37B H 0.3397 -0.1022 -0.1256 0.091 Uiso 1 1 calc R U
C38 C 0.3024(11) -0.1799(9) -0.1846(12) 0.106(7) Uani 1 1 d . .
H38A H 0.3443 -0.2002 -0.1782 0.159 Uiso 1 1 calc R U
H38B H 0.2970 -0.1656 -0.2441 0.159 Uiso 1 1 calc R U
H38C H 0.2689 -0.2107 -0.1703 0.159 Uiso 1 1 calc R U
loop_
_atom_site_aniso_label
_atom_site_aniso_U_11
_atom_site_aniso_U_22
_atom_site_aniso_U_33
_atom_site_aniso_U_23
_atom_site_aniso_U_13
_atom_site_aniso_U_12
Zn1 0.0514(9) 0.0503(9) 0.0161(5) 0.0015(6) 0.0019(6) 0.0122(7)
P1 0.066(2) 0.068(3) 0.0229(14) 0.0057(17) -0.0022(16) -0.028(2)
O1 0.068(6) 0.069(6) 0.023(4) 0.001(4) 0.003(4) -0.017(5)
O2 0.076(7) 0.072(7) 0.035(5) 0.009(5) -0.007(5) -0.027(6)
O3 0.080(7) 0.054(6) 0.026(4) -0.001(4) 0.006(5) -0.013(5)
O4 0.112(7) 0.108(7) 0.015(3) 0.018(4) 0.003(4) 0.006(5)
O5 0.112(7) 0.108(7) 0.015(3) 0.018(4) 0.003(4) 0.006(5)
N1 0.053(7) 0.051(7) 0.021(4) 0.003(5) 0.000(4) 0.005(6)
N2 0.071(8) 0.061(8) 0.014(5) 0.010(5) -0.008(5) -0.008(6)
N3 0.053(7) 0.049(6) 0.018(4) 0.007(4) 0.001(4) 0.030(5)
N4 0.058(7) 0.061(7) 0.013(4) 0.003(4) 0.001(4) 0.012(6)
C1 0.048(8) 0.036(7) 0.020(5) -0.003(5) 0.005(5) 0.004(6)
C2 0.048(8) 0.039(7) 0.038(6) -0.005(6) 0.012(6) -0.005(6)
C3 0.056(8) 0.039(7) 0.020(5) -0.003(5) 0.010(5) 0.011(6)
C4 0.053(8) 0.027(7) 0.030(6) -0.003(5) 0.009(6) 0.003(6)
C5 0.043(7) 0.032(7) 0.030(6) -0.001(5) 0.006(6) -0.006(6)
C6 0.045(9) 0.090(11) 0.025(6) 0.004(7) 0.005(6) 0.012(8)
C7 0.055(9) 0.077(10) 0.029(6) 0.001(7) 0.000(6) 0.007(8)
C8 0.070(10) 0.083(11) 0.031(7) 0.013(7) 0.005(7) -0.007(9)
C9 0.068(10) 0.087(11) 0.017(6) -0.001(6) 0.000(6) 0.003(9)
C10 0.133(17) 0.132(16) 0.030(7) 0.022(9) -0.013(9) -0.038(14)
C11 0.072(11) 0.104(14) 0.034(7) 0.011(8) -0.023(8) -0.015(10)
C12 0.076(11) 0.077(11) 0.038(7) 0.001(7) 0.006(8) -0.014(9)
C13 0.059(9) 0.060(9) 0.025(6) 0.003(6) 0.009(6) -0.001(7)
C14 0.071(10) 0.094(12) 0.025(6) 0.017(7) 0.011(6) 0.042(9)
C15 0.073(11) 0.107(14) 0.036(7) 0.022(8) 0.005(7) 0.045(11)
C16 0.084(11) 0.073(10) 0.019(6) 0.009(6) 0.006(6) 0.041(9)
C17 0.102(13) 0.094(12) 0.017(6) 0.004(7) -0.012(7) -0.069(11)
C18 0.080(11) 0.097(12) 0.012(5) 0.011(6) -0.001(6) 0.028(10)
C19 0.081(11) 0.083(11) 0.027(6) 0.002(7) 0.007(7) 0.052(9)
C20 0.108(14) 0.090(12) 0.022(6) 0.003(7) -0.002(8) 0.049(11)
C21 0.056(8) 0.057(8) 0.017(5) -0.003(6) 0.006(5) 0.012(8)
C22 0.064(10) 0.060(9) 0.026(6) 0.002(6) -0.002(6) 0.005(8)
C23 0.060(9) 0.050(8) 0.016(5) 0.009(5) 0.001(5) 0.003(7)
C24 0.063(10) 0.052(9) 0.034(6) 0.005(6) -0.007(6) -0.008(7)
C25 0.111(14) 0.076(11) 0.019(6) 0.004(6) 0.006(7) -0.026(10)
C26 0.059(8) 0.068(9) 0.020(6) 0.004(6) -0.001(6) 0.000(7)
C27 0.141(19) 0.139(17) 0.018(6) 0.013(9) 0.007(9) -0.032(16)
C28 0.084(11) 0.096(12) 0.014(5) 0.000(7) -0.011(6) -0.008(10)
C29 0.052(9) 0.122(14) 0.022(6) 0.014(7) -0.003(6) -0.005(9)
C30 0.036(7) 0.049(8) 0.021(5) 0.008(5) -0.005(5) 0.014(6)
C31 0.065(10) 0.071(10) 0.027(6) 0.003(6) 0.007(6) 0.012(8)
C32 0.039(8) 0.105(13) 0.033(6) 0.020(8) 0.001(6) 0.019(8)
C33 0.030(8) 0.065(10) 0.041(7) 0.001(7) 0.002(6) 0.012(7)
C34 0.056(8) 0.055(8) 0.028(6) -0.008(6) 0.001(6) -0.014(7)
C35 0.061(8) 0.118(12) 0.130(13) 0.037(10) -0.011(9) -0.009(9)
C36 0.061(8) 0.118(12) 0.130(13) 0.037(10) -0.011(9) -0.009(9)
C37 0.088(13) 0.081(13) 0.057(9) -0.022(9) 0.022(9) -0.058(11)
C38 0.144(19) 0.097(15) 0.077(13) -0.016(12) -0.034(13) -0.013(14)
loop_
_atom_type_symbol
_atom_type_description
_atom_type_scat_dispersion_real
_atom_type_scat_dispersion_imag
_atom_type_scat_source
C C 0.0033 0.0016 'International Tables Vol C Tables 4.2.6.8 and 6.1.1.4'
H H 0.0000 0.0000 'International Tables Vol C Tables 4.2.6.8 and 6.1.1.4'
N N 0.0061 0.0033 'International Tables Vol C Tables 4.2.6.8 and 6.1.1.4'
O O 0.0106 0.0060 'International Tables Vol C Tables 4.2.6.8 and 6.1.1.4'
P P 0.1023 0.0942 'International Tables Vol C Tables 4.2.6.8 and 6.1.1.4'
Zn Zn 0.2839 1.4301 'International Tables Vol C Tables 4.2.6.8 and 6.1.1.4'
loop_
_geom_angle_atom_site_label_1
_geom_angle_atom_site_label_2
_geom_angle_atom_site_label_3
_geom_angle
_geom_angle_site_symmetry_1
_geom_angle_site_symmetry_3
N2 Zn1 N3 89.4(4) . .
N2 Zn1 N4 162.6(4) . .
N3 Zn1 N4 88.3(4) . .
N2 Zn1 N1 89.2(4) . .
N3 Zn1 N1 162.8(4) . .
N4 Zn1 N1 88.0(4) . .
N2 Zn1 O1 95.2(4) . .
N3 Zn1 O1 98.7(4) . .
N4 Zn1 O1 102.2(4) . .
N1 Zn1 O1 98.6(4) . .
O1 P1 O3 114.3(5) . .
O1 P1 O2 112.1(6) . .
O3 P1 O2 98.4(6) . .
O1 P1 C17 113.0(5) . .
O3 P1 C17 107.7(7) . .
O2 P1 C17 110.4(7) . .
P1 O1 Zn1 135.7(5) . .
C35 O2 P1 117.3(10) . .
C37 O3 P1 119.5(8) . .
C9 O4 C10 114.8(13) . .
C26 O5 C27 115.0(12) . .
C1 N1 C4 107.7(9) . .
C1 N1 Zn1 124.7(7) . .
C4 N1 Zn1 124.6(8) . .
C33 N2 C30 104.2(11) . .
C33 N2 Zn1 127.4(8) . .
C30 N2 Zn1 126.5(9) . .
C18 N3 C21 105.8(10) . .
C18 N3 Zn1 128.5(7) . .
C21 N3 Zn1 124.9(8) . .
C16 N4 C13 105.4(10) . .
C16 N4 Zn1 127.4(7) . .
C13 N4 Zn1 127.1(9) . .
N1 C1 C34 125.0(10) . .
N1 C1 C2 110.8(10) . .
C34 C1 C2 124.2(12) . .
C3 C2 C1 106.2(11) . .
C2 C3 C4 107.3(10) . .
C5 C4 N1 126.2(11) . .
C5 C4 C3 125.6(10) . .
N1 C4 C3 108.0(10) . .
C4 C5 C13 126.9(11) . .
C4 C5 C6 119.1(10) . .
C13 C5 C6 113.8(11) . .
C7 C6 C12 118.9(12) . .
C7 C6 C5 119.8(12) . .
C12 C6 C5 121.2(13) . .
C6 C7 C8 118.9(14) . .
C9 C8 C7 120.1(14) . .
C8 C9 O4 125.8(14) . .
C8 C9 C11 121.4(12) . .
O4 C9 C11 112.8(14) . .
C12 C11 C9 117.5(15) . .
C11 C12 C6 123.1(15) . .
N4 C13 C14 111.0(11) . .
N4 C13 C5 123.2(12) . .
C14 C13 C5 125.8(11) . .
C15 C14 C13 106.6(12) . .
C14 C15 C16 109.3(13) . .
N4 C16 C15 107.7(11) . .
N4 C16 C17 126.4(11) . 4
C15 C16 C17 125.9(13) . 4
C16 C17 C18 122.0(12) 3 3
C16 C17 P1 121.6(9) 3 .
C18 C17 P1 116.4(10) 3 .
N3 C18 C17 125.6(12) . 4
N3 C18 C19 111.9(10) . .
C17 C18 C19 121.9(13) 4 .
C20 C19 C18 104.9(12) . .
C19 C20 C21 108.7(11) . .
N3 C21 C22 125.2(10) . .
N3 C21 C20 108.6(11) . .
C22 C21 C20 126.2(11) . .
C30 C22 C21 127.9(11) . .
C30 C22 C23 117.3(12) . .
C21 C22 C23 114.7(11) . .
C24 C23 C29 120.1(11) . .
C24 C23 C22 122.2(12) . .
C29 C23 C22 117.6(12) . .
C23 C24 C25 120.8(14) . .
C26 C25 C24 119.5(14) . .
C25 C26 C28 121.0(11) . .
C25 C26 O5 125.3(13) . .
C28 C26 O5 113.4(12) . .
C29 C28 C26 117.0(14) . .
C28 C29 C23 121.6(15) . .
C22 C30 N2 123.5(11) . .
C22 C30 C31 127.5(11) . .
N2 C30 C31 108.9(11) . .
C32 C31 C30 108.9(12) . .
C31 C32 C33 104.5(12) . .
N2 C33 C32 113.5(11) . .
N2 C33 C34 122.9(12) . .
C32 C33 C34 123.6(12) . .
C1 C34 C33 127.5(13) . .
C36 C35 O2 105.9(16) . .
O3 C37 C38 113.4(15) . .
loop_
_geom_bond_atom_site_label_1
_geom_bond_atom_site_label_2
_geom_bond_distance
_geom_bond_site_symmetry_2
Zn1 N2 2.043(11) .
Zn1 N3 2.056(9) .
Zn1 N4 2.069(10) .
Zn1 N1 2.090(10) .
Zn1 O1 2.083(8) .
P1 O1 1.456(9) .
P1 O3 1.543(10) .
P1 O2 1.566(11) .
P1 C17 1.750(15) .
O2 C35 1.54(2) .
O3 C37 1.47(2) .
O4 C9 1.370(14) .
O4 C10 1.458(19) .
O5 C26 1.413(15) .
O5 C27 1.43(2) .
N1 C1 1.366(16) .
N1 C4 1.369(15) .
N2 C33 1.351(16) .
N2 C30 1.407(13) .
N3 C18 1.338(17) .
N3 C21 1.398(14) .
N4 C16 1.361(16) .
N4 C13 1.377(14) .
C1 C34 1.390(17) .
C1 C2 1.424(14) .
C2 C3 1.377(17) .
C3 C4 1.464(15) .
C4 C5 1.340(17) .
C5 C13 1.441(17) .
C5 C6 1.516(15) .
C6 C7 1.367(19) .
C6 C12 1.38(2) .
C7 C8 1.435(17) .
C8 C9 1.35(2) .
C9 C11 1.39(2) .
C11 C12 1.379(19) .
C13 C14 1.395(19) .
C14 C15 1.302(19) .
C15 C16 1.440(18) .
C16 C17 1.447(16) 4
C17 C16 1.447(16) 3
C17 C18 1.454(17) 3
C18 C17 1.454(17) 4
C18 C19 1.469(16) .
C19 C20 1.340(19) .
C20 C21 1.450(18) .
C21 C22 1.392(19) .
C22 C30 1.362(17) .
C22 C23 1.534(15) .
C23 C24 1.340(18) .
C23 C29 1.381(19) .
C24 C25 1.388(17) .
C25 C26 1.362(19) .
C26 C28 1.41(2) .
C28 C29 1.375(16) .
C30 C31 1.404(17) .
C31 C32 1.371(18) .
C32 C33 1.405(17) .
C33 C34 1.438(16) .
C35 C36 1.52(3) .
C37 C38 1.48(2) .
