#------------------------------------------------------------------------------
#$Date: 2019-11-17 13:28:49 +0200 (Sun, 17 Nov 2019) $
#$Revision: 230165 $
#$URL: file:///home/coder/svn-repositories/cod/cif/7/05/78/7057872.cif $
#------------------------------------------------------------------------------
#
# This file is available in the Crystallography Open Database (COD),
# http://www.crystallography.net/
#
# All data on this site have been placed in the public domain by the
# contributors.
#
data_7057872
loop_
_publ_author_name
'Hanana, Manel'
'Arcostanzo, H\'el\`ene'
'Das, Pradip K.'
'Bouget, Morgane'
'Le Gac, St\'ephane'
'Okuno, Hanako'
'Cornut, Renaud'
'Jousselme, Bruno'
'Dorcet, Vincent'
'Boitrel, Bernard'
'Campidelli, St\'ephane'
_publ_section_title
;
 Synergic effect on oxygen reduction reaction of strapped iron porphyrins
 polymerized around carbon nanotubes
;
_journal_issue                   24
_journal_name_full               'New Journal of Chemistry'
_journal_page_first              19749
_journal_paper_doi               10.1039/C8NJ04516J
_journal_volume                  42
_journal_year                    2018
_chemical_compound_source        'synthesis as described'
_chemical_formula_moiety         'C75 H48 Fe N6 O10'
_chemical_formula_sum            'C75 H48 Fe N6 O10'
_chemical_formula_weight         1249.04
_space_group_crystal_system      monoclinic
_space_group_IT_number           14
_space_group_name_Hall           '-P 2ybc'
_space_group_name_H-M_alt        'P 1 21/c 1'
_symmetry_space_group_name_Hall  '-P 2ybc'
_symmetry_space_group_name_H-M   'P 1 21/c 1'
_atom_sites_solution_hydrogens   geom
_audit_update_record
;
2018-07-06 deposited with the CCDC.
2018-10-30 downloaded from the CCDC.
;
_cell_angle_alpha                90
_cell_angle_beta                 104.175(2)
_cell_angle_gamma                90
_cell_formula_units_Z            4
_cell_length_a                   16.0673(8)
_cell_length_b                   15.0517(6)
_cell_length_c                   29.0440(14)
_cell_measurement_reflns_used    9370
_cell_measurement_temperature    150(2)
_cell_measurement_theta_max      27.46
_cell_measurement_theta_min      2.56
_cell_measurement_wavelength     0.71073
_cell_volume                     6810.1(5)
_computing_cell_refinement       'Bruker APEX2 (Bruker, 2014)'
_computing_data_collection       'Bruker APEX2 (Bruker, 2014)'
_computing_data_reduction        'Bruker APEX2 (Bruker, 2014)'
_computing_molecular_graphics
'SXGRAPH (Farrugia, 1999), Mercury (CSD, 2014)'
_computing_publication_material  'CRYSCALC (T. Roisnel, local program, 2016)'
_computing_structure_refinement  'SHELXL-2016/6 (Sheldrick, 2016)'
_computing_structure_solution    'SHELXT (Sheldrick, 2015)'
_diffrn_ambient_temperature      150(2)
_diffrn_detector                 'CCD plate'
_diffrn_measured_fraction_theta_full 0.997
_diffrn_measured_fraction_theta_max 0.994
_diffrn_measurement_device_type  'APEXII, Bruker-AXS'
_diffrn_measurement_method       'CCD rotation images, thin slices'
_diffrn_radiation_monochromator  graphite
_diffrn_radiation_probe          x-ray
_diffrn_radiation_source         'fine-focus sealed tube'
_diffrn_radiation_type           MoK\a
_diffrn_radiation_wavelength     0.71073
_diffrn_reflns_av_R_equivalents  0.0547
_diffrn_reflns_av_unetI/netI     0.0856
_diffrn_reflns_limit_h_max       19
_diffrn_reflns_limit_h_min       -20
_diffrn_reflns_limit_k_max       17
_diffrn_reflns_limit_k_min       -19
_diffrn_reflns_limit_l_max       37
_diffrn_reflns_limit_l_min       -37
_diffrn_reflns_number            51054
_diffrn_reflns_theta_full        25.242
_diffrn_reflns_theta_max         27.484
_diffrn_reflns_theta_min         2.945
_exptl_absorpt_coefficient_mu    0.283
_exptl_absorpt_correction_T_max  0.948
_exptl_absorpt_correction_T_min  0.840
_exptl_absorpt_correction_type   multi-scan
_exptl_absorpt_process_details
;
  [Sheldrick, G.M. (2014). SADABS Bruker AXS Inc., Madison, Wisconsin, USA]
;
_exptl_crystal_colour            black
_exptl_crystal_density_diffrn    1.218
_exptl_crystal_description       stick
_exptl_crystal_F_000             2584
_exptl_crystal_size_max          0.600
_exptl_crystal_size_mid          0.220
_exptl_crystal_size_min          0.190
_refine_diff_density_max         1.555
_refine_diff_density_min         -1.085
_refine_diff_density_rms         0.094
_refine_ls_extinction_method     none
_refine_ls_goodness_of_fit_ref   1.018
_refine_ls_hydrogen_treatment    constr
_refine_ls_matrix_type           full
_refine_ls_number_parameters     840
_refine_ls_number_reflns         15532
_refine_ls_number_restraints     59
_refine_ls_restrained_S_all      1.021
_refine_ls_R_factor_all          0.1747
_refine_ls_R_factor_gt           0.1065
_refine_ls_shift/su_max          0.009
_refine_ls_shift/su_mean         0.000
_refine_ls_structure_factor_coef Fsqd
_refine_ls_weighting_details
'w=1/[\s^2^(Fo^2^)+(0.1635P)^2^+13.4943P] where P=(Fo^2^+2Fc^2^)/3'
_refine_ls_weighting_scheme      calc
_refine_ls_wR_factor_gt          0.2756
_refine_ls_wR_factor_ref         0.3234
_reflns_number_gt                8594
_reflns_number_total             15532
_reflns_threshold_expression     >2sigma(I)
_cod_data_source_file            c8nj04516j2.cif
_cod_data_source_block           PD81
_cod_depositor_comments          'Adding full bibliography for 7057872.cif.'
_cod_database_code               7057872
_shelx_res_file
;
TITL import_a.res in P2(1)/c
    PD81.res
    created by SHELXL-2016/6 at 15:04:25 on 07-Nov-2016
CELL  0.71073  16.0673  15.0517  29.0440   90.000  104.175   90.000
ZERR     4.00   0.0008   0.0006   0.0014    0.000    0.002    0.000
LATT   1
SYMM  - X, 1/2 + Y, 1/2 - Z
SFAC  C    H    FE   N    O
UNIT  300  192  4    24   40
MERG   2
EADP C84 C85 C86 C87 C88 C89
EADP C54 C55 C56 C57 C58 C59 C54B C55B C56B C57B C58B C59B
DFIX 1.39 0.01 C54 C55 C55 C56 C56 C57 C57 C58 C58 C59 C59 C54
DFIX 1.39 0.01 C84 C85 C85 C86 C86 C87 C87 C88 C88 C89 C89 C84
FLAT 0.01 C54 C55 C56 C57 C58  C59
FLAT 0.01 C84 C85 C86 C87 C88 C89
EADP C60 C61 C60B C61B
EADP O67 O67B O68 O68B
EADP C63 C63B
EADP O64 O64B O65 O65B
EADP C66 C66B
EADP C28 C29 C30
DFIX 1.45 0.02 C48 C49
DFIX 1.15 0.02 C49 C50
DFIX 2.60 0.02 C48 C50
EADP C48 C49 C50
EADP N51 N51B
EADP N81 N81B
EADP O53 O53B
EADP C52 C52B O83 O83B
EADP C82 C82B
EXYZ C52 C52B
EXYZ C82 C82B
DFIX 1.28 0.05 C52B O53B C52 O53
DFIX 1.35 0.01 C52B N51B C52 N51
DFIX 1.28 0.07 C82 O83
DFIX 1.28 0.07 C82B O83B
DFIX 1.35 0.01 C82B N81B C82 N81
FMAP   2
PLAN   20
SIZE     0.19   0.22   0.60
ACTA
BOND   $H
CONF
WPDB  -2
L.S.  20    0  103
ABIN
TEMP  -123.00
WGHT    0.163500   13.494300
FVAR       0.18047   0.52272   0.56316
FE1   3    0.373628    0.475298    0.777201    11.00000    0.03718    0.02009 =
         0.04818   -0.00761    0.02049   -0.00522
N1    4    0.429211    0.594876    0.802065    11.00000    0.04745    0.02149 =
         0.04769   -0.00824    0.02166   -0.00184
N2    4    0.458408    0.416303    0.832680    11.00000    0.04335    0.02130 =
         0.04222   -0.00868    0.02043   -0.01036
N3    4    0.371831    0.356725    0.742218    11.00000    0.03581    0.02771 =
         0.04655   -0.00645    0.01930   -0.00898
N4    4    0.338540    0.534786    0.712055    11.00000    0.04398    0.02268 =
         0.05320   -0.00508    0.01781   -0.00050
C1    1    0.399460    0.676869    0.783637    11.00000    0.04095    0.02390 =
         0.06052   -0.00617    0.02690   -0.00117
C2    1    0.435232    0.744194    0.817240    11.00000    0.06502    0.02390 =
         0.05617   -0.01103    0.02308   -0.00701
AFIX  43
H2    2    0.422908    0.805929    0.813958    11.00000   -1.20000
AFIX   0
C3    1    0.489539    0.704987    0.854444    11.00000    0.05930    0.02981 =
         0.05205   -0.01624    0.01931   -0.00995
AFIX  43
H3    2    0.524561    0.733949    0.881364    11.00000   -1.20000
AFIX   0
C4    1    0.484332    0.610980    0.845602    11.00000    0.05052    0.02481 =
         0.04196   -0.00985    0.02031   -0.00663
C5    1    0.525690    0.547706    0.877884    11.00000    0.05347    0.02815 =
         0.04481   -0.01421    0.02090   -0.00957
C6    1    0.511373    0.455513    0.871788    11.00000    0.05085    0.02687 =
         0.04025   -0.00328    0.02190   -0.00623
C7    1    0.546507    0.391119    0.906349    11.00000    0.06828    0.03728 =
         0.04435   -0.00420    0.01778   -0.01279
AFIX  43
H7    2    0.585949    0.401469    0.936055    11.00000   -1.20000
AFIX   0
C8    1    0.513129    0.311332    0.889022    11.00000    0.06678    0.02904 =
         0.04892    0.00173    0.01608   -0.00613
AFIX  43
H8    2    0.523837    0.255535    0.904641    11.00000   -1.20000
AFIX   0
C9    1    0.459466    0.327213    0.843346    11.00000    0.04272    0.02482 =
         0.04459   -0.00420    0.02245   -0.00540
C10   1    0.419544    0.260531    0.812239    11.00000    0.03683    0.02632 =
         0.04959   -0.00582    0.02253   -0.00615
C11   1    0.383160    0.274981    0.764026    11.00000    0.04523    0.02117 =
         0.05359   -0.00762    0.02555   -0.00752
C12   1    0.354471    0.206396    0.729633    11.00000    0.05643    0.02745 =
         0.06097   -0.01355    0.02266   -0.01486
AFIX  43
H12   2    0.353511    0.144519    0.735929    11.00000   -1.20000
AFIX   0
C13   1    0.329112    0.245399    0.686779    11.00000    0.05894    0.03094 =
         0.05403   -0.01475    0.01765   -0.01377
AFIX  43
H13   2    0.309292    0.216209    0.657112    11.00000   -1.20000
AFIX   0
C14   1    0.337717    0.339410    0.694444    11.00000    0.04283    0.02689 =
         0.05205   -0.00827    0.01840   -0.00701
C15   1    0.311322    0.403343    0.659576    11.00000    0.04095    0.03349 =
         0.04569   -0.00958    0.01197   -0.00467
C16   1    0.309892    0.494977    0.668194    11.00000    0.03992    0.03301 =
         0.04635   -0.00516    0.01206   -0.00019
C17   1    0.278275    0.561017    0.632689    11.00000    0.06276    0.04620 =
         0.05273   -0.00524    0.01063    0.00763
AFIX  43
H17   2    0.256887    0.550890    0.599613    11.00000   -1.20000
AFIX   0
C18   1    0.284557    0.640508    0.655052    11.00000    0.05664    0.03206 =
         0.06681    0.00040    0.01367    0.01248
AFIX  43
H18   2    0.266842    0.696315    0.640687    11.00000   -1.20000
AFIX   0
C19   1    0.322723    0.625081    0.704228    11.00000    0.03560    0.03044 =
         0.05800   -0.00405    0.01590    0.00021
C20   1    0.346957    0.691489    0.738515    11.00000    0.03753    0.02732 =
         0.06122   -0.00470    0.02609    0.00029
C21   1    0.421081    0.168370    0.830942    11.00000    0.05103    0.02148 =
         0.04987   -0.00343    0.02164   -0.00798
C22   1    0.372225    0.147055    0.862805    11.00000    0.07096    0.03006 =
         0.06087   -0.00907    0.03766   -0.00292
AFIX  43
H22   2    0.339280    0.192228    0.872820    11.00000   -1.20000
AFIX   0
C23   1    0.370269    0.061220    0.880454    11.00000    0.08429    0.03003 =
         0.05983   -0.00547    0.03715   -0.01460
AFIX  43
H23   2    0.335213    0.047367    0.901489    11.00000   -1.20000
AFIX   0
C24   1    0.420508   -0.003496    0.866688    11.00000    0.07317    0.02369 =
         0.04751   -0.00340    0.01545   -0.01108
C25   1    0.470259    0.016310    0.835729    11.00000    0.05669    0.02678 =
         0.06891   -0.01137    0.02150   -0.00237
AFIX  43
H25   2    0.504579   -0.028719    0.826723    11.00000   -1.20000
AFIX   0
C26   1    0.470836    0.100906    0.817615    11.00000    0.05275    0.03212 =
         0.07037   -0.00237    0.03186   -0.00329
AFIX  43
H26   2    0.505077    0.113624    0.796002    11.00000   -1.20000
AFIX   0
O27   5    0.426833   -0.089911    0.883360    11.00000    0.10646    0.02363 =
         0.06726    0.00296    0.02846   -0.00887
C28   1    0.353847   -0.122663    0.898890    11.00000    0.13140    0.05745 =
         0.07527    0.00215    0.00511   -0.01670
AFIX  23
H28A  2    0.365970   -0.184086    0.910845    11.00000   -1.20000
H28B  2    0.345858   -0.085531    0.925614    11.00000   -1.20000
AFIX   0
C29   1    0.277474   -0.122491    0.863022    11.00000    0.13140    0.05745 =
         0.07527    0.00215    0.00511   -0.01670
C30   1    0.216729   -0.120713    0.831824    11.00000    0.13140    0.05745 =
         0.07527    0.00215    0.00511   -0.01670
AFIX 163
H30   2    0.166899   -0.119254    0.806233    11.00000   -1.20000
AFIX   0
C31   1    0.319085    0.784443    0.724060    11.00000    0.04060    0.02555 =
         0.05636   -0.00518    0.02225   -0.00137
C32   1    0.232770    0.806628    0.713434    11.00000    0.04477    0.02629 =
         0.10140   -0.00715    0.03208   -0.00215
AFIX  43
H32   2    0.191774    0.762328    0.715584    11.00000   -1.20000
AFIX   0
C33   1    0.205218    0.890876    0.699915    11.00000    0.03521    0.03243 =
         0.10642   -0.00049    0.02533   -0.00186
AFIX  43
H33   2    0.146031    0.905390    0.694245    11.00000   -1.20000
AFIX   0
C34   1    0.263837    0.954621    0.694563    11.00000    0.03994    0.02686 =
         0.06048   -0.00499    0.01695   -0.00009
C35   1    0.349453    0.933843    0.704085    11.00000    0.03926    0.02750 =
         0.06203   -0.00047    0.02211   -0.00559
AFIX  43
H35   2    0.389582    0.978196    0.700675    11.00000   -1.20000
AFIX   0
C36   1    0.378197    0.849854    0.718492    11.00000    0.03237    0.03305 =
         0.05754    0.00237    0.02240    0.00181
AFIX  43
H36   2    0.437626    0.836180    0.724635    11.00000   -1.20000
AFIX   0
O37   5    0.242535    1.040448    0.678660    11.00000    0.04069    0.02336 =
         0.09099    0.00082    0.02029    0.00344
C38   1    0.163763    1.074854    0.686317    11.00000    0.05114    0.02863 =
         0.09562    0.00545    0.01104    0.00825
AFIX  23
H38A  2    0.151435    1.133106    0.670266    11.00000   -1.20000
H38B  2    0.116231    1.033960    0.671955    11.00000   -1.20000
AFIX   0
C39   1    0.167419    1.085339    0.735782    11.00000    0.09874    0.05935 =
         0.09225   -0.00212    0.03408    0.03196
C40   1    0.173399    1.095783    0.775854    11.00000    0.19396    0.12875 =
         0.11809   -0.01318    0.05989    0.06438
AFIX 163
H40   2    0.178319    1.104375    0.808817    11.00000   -1.20000
AFIX   0
C41   1    0.586837    0.577044    0.922898    11.00000    0.07339    0.02794 =
         0.04189   -0.00561    0.01389   -0.01634
C42   1    0.673850    0.576161    0.927149    11.00000    0.06322    0.03556 =
         0.04761   -0.00183    0.00518   -0.01254
AFIX  43
H42   2    0.695756    0.557614    0.901144    11.00000   -1.20000
AFIX   0
C43   1    0.730156    0.602423    0.969544    11.00000    0.08475    0.05696 =
         0.06212    0.01088    0.01239   -0.01472
C44   1    0.696896    0.632782    1.005997    11.00000    0.10164    0.09659 =
         0.04797    0.00253   -0.00387   -0.05035
AFIX  43
H44   2    0.735209    0.653863    1.034171    11.00000   -1.20000
AFIX   0
C45   1    0.611650    0.633699    1.003174    11.00000    0.11877    0.09347 =
         0.04110   -0.01467    0.02195   -0.04982
AFIX  43
H45   2    0.590751    0.653599    1.029289    11.00000   -1.20000
AFIX   0
C46   1    0.553952    0.604700    0.960905    11.00000    0.08365    0.05525 =
         0.05033   -0.01342    0.02585   -0.03170
O47   5    0.817067    0.599272    0.976942    11.00000    0.07043    0.08507 =
         0.13486    0.03442   -0.01996   -0.01714
C48   1    0.860535    0.537490    0.937403    11.00000    0.12798    0.74533 =
         0.13392    0.09676   -0.01751   -0.22639
AFIX  23
H48A  2    0.844052    0.569832    0.906837    11.00000   -1.20000
H48B  2    0.923517    0.544322    0.948795    11.00000   -1.20000
AFIX   0
C49   1    0.845775    0.438004    0.924369    11.00000    0.12798    0.74533 =
         0.13392    0.09676   -0.01751   -0.22639
C50   1    0.815866    0.361510    0.922583    11.00000    0.12798    0.74533 =
         0.13392    0.09676   -0.01751   -0.22639
AFIX 163
H50   2    0.793022    0.303086    0.921219    11.00000   -1.20000
AFIX   0
PART    1
N51   4    0.468984    0.596790    0.961597    21.00000    0.08789    0.07760 =
         0.03093   -0.03124    0.02968   -0.03643
AFIX  43
H51   2    0.449273    0.542014    0.958264    21.00000   -1.20000
AFIX   0
C52   1    0.410468    0.658132    0.966483    21.00000    0.11867    0.06141 =
         0.04894    0.01755    0.01645   -0.01313
O53   5    0.428344    0.722521    0.996361    21.00000    0.11603    0.03362 =
         0.09747   -0.00032    0.03579   -0.00897
PART    2
N51B  4    0.460334    0.601963    0.948977   -21.00000    0.08789    0.07760 =
         0.03093   -0.03124    0.02968   -0.03643
AFIX  43
H51B  2    0.434681    0.560785    0.928970   -21.00000   -1.20000
AFIX   0
C52B  1    0.410468    0.658132    0.966483   -21.00000    0.11867    0.06141 =
         0.04894    0.01755    0.01645   -0.01313
O53B  5    0.443850    0.727527    0.985018   -21.00000    0.11603    0.03362 =
         0.09747   -0.00032    0.03579   -0.00897
PART    1
C54   1    0.322449    0.629884    0.945581    21.00000    0.08544    0.07464 =
         0.05973    0.00433    0.02559    0.01565
C55   1    0.258694    0.687144    0.951299    21.00000    0.08544    0.07464 =
         0.05973    0.00433    0.02559    0.01565
AFIX  43
H55   2    0.273648    0.742343    0.967008    21.00000   -1.20000
AFIX   0
C56   1    0.172483    0.664612    0.934195    21.00000    0.08544    0.07464 =
         0.05973    0.00433    0.02559    0.01565
AFIX  43
H56   2    0.128784    0.704284    0.938165    21.00000   -1.20000
AFIX   0
C57   1    0.150746    0.583228    0.911156    21.00000    0.08544    0.07464 =
         0.05973    0.00433    0.02559    0.01565
AFIX  43
H57   2    0.092033    0.567719    0.899519    21.00000   -1.20000
AFIX   0
C58   1    0.213769    0.525256    0.905170    21.00000    0.08544    0.07464 =
         0.05973    0.00433    0.02559    0.01565
C59   1    0.299273    0.549470    0.922346    21.00000    0.08544    0.07464 =
         0.05973    0.00433    0.02559    0.01565
AFIX  43
H59   2    0.343000    0.510089    0.918107    21.00000   -1.20000
AFIX   0
PART    2
SAME C54 > C59
C54B  1    0.314341    0.643204    0.951515   -21.00000    0.08544    0.07464 =
         0.05973    0.00433    0.02559    0.01565
C55B  1    0.261340    0.662315    0.981068   -21.00000    0.08544    0.07464 =
         0.05973    0.00433    0.02559    0.01565
AFIX  43
H55B  2    0.283228    0.690368    1.010878   -21.00000   -1.20000
AFIX   0
C56B  1    0.174356    0.639292    0.965999   -21.00000    0.08544    0.07464 =
         0.05973    0.00433    0.02559    0.01565
AFIX  43
H56B  2    0.139807    0.640052    0.988269   -21.00000   -1.20000
AFIX   0
C57B  1    0.137559    0.615412    0.919289   -21.00000    0.08544    0.07464 =
         0.05973    0.00433    0.02559    0.01565
AFIX  43
H57B  2    0.077800    0.603679    0.908838   -21.00000   -1.20000
AFIX   0
C58B  1    0.190334    0.609270    0.888609   -21.00000    0.08544    0.07464 =
         0.05973    0.00433    0.02559    0.01565
C59B  1    0.278804    0.621537    0.904728   -21.00000    0.08544    0.07464 =
         0.05973    0.00433    0.02559    0.01565
AFIX  43
H59B  2    0.314672    0.614923    0.883356   -21.00000   -1.20000
AFIX   0
PART    1
C60   1    0.190809    0.434933    0.882289    21.00000    0.05061    0.07955 =
         0.04471    0.00909    0.01543    0.01716
AFIX  23
H60A  2    0.152279    0.404888    0.899258    21.00000   -1.20000
H60B  2    0.244163    0.399353    0.887799    21.00000   -1.20000
AFIX   0
C61   1    0.146666    0.431740    0.827699    21.00000    0.05061    0.07955 =
         0.04471    0.00909    0.01543    0.01716
PART    2
C60B  1    0.149708    0.587105    0.837165   -21.00000    0.05061    0.07955 =
         0.04471    0.00909    0.01543    0.01716
AFIX  23
H60C  2    0.184295    0.616181    0.817546   -21.00000   -1.20000
H60D  2    0.092075    0.614790    0.828694   -21.00000   -1.20000
AFIX   0
C61B  1    0.139122    0.488045    0.822284   -21.00000    0.05061    0.07955 =
         0.04471    0.00909    0.01543    0.01716
PART    1
C63   1    0.056162    0.466315    0.819392    21.00000    0.04518    0.10560 =
         0.06269    0.00821    0.02641    0.00881
O64   5    0.031998    0.528593    0.788326    21.00000    0.04867    0.14155 =
         0.10428    0.05084    0.03072    0.03173
O65   5    0.006095    0.445718    0.841550    21.00000    0.04867    0.14155 =
         0.10428    0.05084    0.03072    0.03173
PART    2
SAME C63 > O65
C63B  1    0.100071    0.434003    0.857465   -21.00000    0.04518    0.10560 =
         0.06269    0.00821    0.02641    0.00881
O64B  5    0.141240    0.369866    0.881338   -21.00000    0.04867    0.14155 =
         0.10428    0.05084    0.03072    0.03173
O65B  5    0.025889    0.442674    0.857291   -21.00000    0.04867    0.14155 =
         0.10428    0.05084    0.03072    0.03173
PART    1
C66   1    0.205863    0.481490    0.801036    21.00000    0.04358    0.03797 =
         0.04077    0.02283    0.00771    0.01802
O67   5    0.179314    0.544369    0.775330    21.00000    0.04274    0.06743 =
         0.07510    0.01668    0.02684    0.00959
O68   5    0.280914    0.452572    0.807921    21.00000    0.04274    0.06743 =
         0.07510    0.01668    0.02684    0.00959
PART    2
SAME C66 > O68
C66B  1    0.227677    0.453460    0.817996   -21.00000    0.04358    0.03797 =
         0.04077    0.02283    0.00771    0.01802
O67B  5    0.261730    0.389844    0.842296   -21.00000    0.04274    0.06743 =
         0.07510    0.01668    0.02684    0.00959
O68B  5    0.259767    0.491042    0.787608   -21.00000    0.04274    0.06743 =
         0.07510    0.01668    0.02684    0.00959
PART    0
C71   1    0.273509    0.373770    0.609419    11.00000    0.05203    0.03689 =
         0.04716   -0.00871    0.00632   -0.00360
C72   1    0.323418    0.378505    0.576495    11.00000    0.06111    0.02879 =
         0.04226    0.00130    0.00288   -0.00197
AFIX  43
H72   2    0.381323    0.398056    0.585960    11.00000   -1.20000
AFIX   0
C73   1    0.287394    0.354155    0.529283    11.00000    0.08131    0.04019 =
         0.04297    0.00064    0.00691    0.00474
C74   1    0.203083    0.323790    0.516814    11.00000    0.07347    0.06403 =
         0.04761   -0.01319   -0.00102   -0.00135
AFIX  43
H74   2    0.178606    0.306701    0.484878    11.00000   -1.20000
AFIX   0
C75   1    0.154835    0.317940    0.549126    11.00000    0.05261    0.08111 =
         0.06931   -0.02382    0.00117   -0.00960
AFIX  43
H75   2    0.097633    0.296256    0.539866    11.00000   -1.20000
AFIX   0
C76   1    0.189792    0.343975    0.596012    11.00000    0.05673    0.06487 =
         0.05433   -0.01694    0.00739   -0.00474
O77   5    0.330682    0.357649    0.494135    11.00000    0.09005    0.05645 =
         0.04356   -0.00170    0.01110   -0.00510
C78   1    0.413065    0.396317    0.505891    11.00000    0.09247    0.04504 =
         0.05071    0.00739    0.02788   -0.00355
AFIX  23
H78A  2    0.441111    0.386981    0.479488    11.00000   -1.20000
H78B  2    0.448548    0.366913    0.534519    11.00000   -1.20000
AFIX   0
C79   1    0.408198    0.492004    0.514970    11.00000    0.09965    0.05247 =
         0.05675    0.01354    0.02625   -0.00470
C80   1    0.402522    0.568157    0.521729    11.00000    0.13778    0.05452 =
         0.07454    0.01120    0.03676    0.00165
AFIX 163
H80   2    0.397915    0.629978    0.527216    11.00000   -1.20000
AFIX   0
PART    1
N81   4    0.136716    0.347412    0.624705    21.00000    0.03840    0.13260 =
         0.04117   -0.03338   -0.00536   -0.02539
AFIX  43
H81   2    0.144499    0.396397    0.641764    21.00000   -1.20000
AFIX   0
C82   1    0.075134    0.297403    0.634792    21.00000    0.06337    0.06982 =
         0.07117   -0.00075   -0.00072    0.00193
O83   5    0.048404    0.231433    0.610966    21.00000    0.11867    0.06141 =
         0.04894    0.01755    0.01645   -0.01313
PART    2
N81B  4    0.150335    0.337365    0.637873   -21.00000    0.03840    0.13260 =
         0.04117   -0.03338   -0.00536   -0.02539
AFIX  43
H81B  2    0.177745    0.360581    0.665190   -21.00000   -1.20000
AFIX   0
C82B  1    0.075134    0.297403    0.634792   -21.00000    0.06337    0.06982 =
         0.07117   -0.00075   -0.00072    0.00193
O83B  5    0.030948    0.257353    0.594989   -21.00000    0.11867    0.06141 =
         0.04894    0.01755    0.01645   -0.01313
PART    1
C84   1    0.047012    0.299301    0.681148    21.00000    0.04921    0.06194 =
         0.07671   -0.00769    0.01768   -0.00272
C85   1   -0.034113    0.269777    0.681355    21.00000    0.04921    0.06194 =
         0.07671   -0.00769    0.01768   -0.00272
AFIX  43
H85   2   -0.073834    0.255233    0.652327    21.00000   -1.20000
AFIX   0
C86   1   -0.057560    0.261375    0.723865    21.00000    0.04921    0.06194 =
         0.07671   -0.00769    0.01768   -0.00272
AFIX  43
H86   2   -0.113723    0.240964    0.723368    21.00000   -1.20000
AFIX   0
C87   1   -0.002231    0.281602    0.767116    21.00000    0.04921    0.06194 =
         0.07671   -0.00769    0.01768   -0.00272
AFIX  43
H87   2   -0.019917    0.275177    0.795846    21.00000   -1.20000
AFIX   0
C88   1    0.079333    0.311360    0.767589    21.00000    0.04921    0.06194 =
         0.07671   -0.00769    0.01768   -0.00272
C89   1    0.102695    0.319705    0.724565    21.00000    0.04921    0.06194 =
         0.07671   -0.00769    0.01768   -0.00272
AFIX  43
H89   2    0.158818    0.340116    0.724967    21.00000   -1.20000
AFIX   0
PART    2
SAME C84 > C89
C84B  1    0.054174    0.311812    0.678357   -21.00000    0.03596    0.07566 =
         0.06689    0.01026    0.00451    0.04075
C85B  1    0.010784    0.245855    0.694642   -21.00000    0.06360    0.08332 =
         0.13293    0.04421    0.03346    0.04463
AFIX  43
H85B  2   -0.006489    0.193948    0.676164   -21.00000   -1.20000
AFIX   0
C86B  1   -0.007832    0.255507    0.738557   -21.00000    0.06696    0.12760 =
         0.12555    0.03547    0.03647    0.05039
AFIX  43
H86B  2   -0.032702    0.207703    0.751867   -21.00000   -1.20000
AFIX   0
C87B  1    0.009867    0.334636    0.762796   -21.00000    0.06577    0.12415 =
         0.10229    0.04072    0.05128    0.06220
AFIX  43
H87B  2   -0.008942    0.343176    0.791046   -21.00000   -1.20000
AFIX   0
C88B  1    0.054411    0.401932    0.746920   -21.00000    0.03636    0.07483 =
         0.06280    0.01832    0.01521    0.03248
C89B  1    0.078037    0.390226    0.704379   -21.00000    0.05029    0.07343 =
         0.05444    0.01986    0.01285    0.02676
AFIX  43
H89B  2    0.109940    0.434748    0.693057   -21.00000   -1.20000
AFIX   0
PART    1
C90   1    0.140938    0.332443    0.814436    21.00000    0.04277    0.04352 =
         0.06078    0.01571    0.01586    0.00925
AFIX  23
H90A  2    0.198822    0.311375    0.813403    21.00000   -1.20000
H90B  2    0.123257    0.298899    0.839785    21.00000   -1.20000
AFIX   0
PART    2
C90B  1    0.076375    0.490002    0.772417   -21.00000    0.02616    0.10941 =
         0.05943    0.00896    0.01652    0.03496
AFIX  23
H90C  2    0.022151    0.517729    0.775536   -21.00000   -1.20000
H90D  2    0.101178    0.529312    0.751905   -21.00000   -1.20000
AFIX   0
HKLF    4




REM  import_a.res in P2(1)/c
REM R1 =  0.1065 for    8594 Fo > 4sig(Fo)  and  0.1747 for all   15532 data
REM    840 parameters refined using     59 restraints

END

WGHT      0.1531     14.4773

REM Highest difference peak  1.555,  deepest hole -1.085,  1-sigma level  0.094
Q1    1   0.8329  0.3205  0.9204  11.00000  0.05    1.56
Q2    1   0.8549  0.5811  0.9405  11.00000  0.05    1.51
Q3    1   0.9300  0.5660  0.9630  11.00000  0.05    1.05
Q4    1   0.6164  0.6259  1.0559  11.00000  0.05    0.86
Q5    1   0.0112  0.3276  0.6029  11.00000  0.05    0.72
Q6    1   0.2698  0.4399  0.8609  11.00000  0.05    0.65
Q7    1   1.0091  0.5472  0.9781  11.00000  0.05    0.64
Q8    1   0.8811  0.5820  0.9976  11.00000  0.05    0.58
Q9    1   0.4435  0.7125  0.9598  11.00000  0.05    0.54
Q10   1   0.3183  0.4884  0.7732  11.00000  0.05    0.52
Q11   1   0.9041  0.3324  0.9095  11.00000  0.05    0.50
Q12   1   0.0323  0.5129  0.8613  11.00000  0.05    0.49
Q13   1   0.3772  0.4854  0.7484  11.00000  0.05    0.49
Q14   1   0.2271 -0.0813  0.8176  11.00000  0.05    0.43
Q15   1   0.1448  0.4342  0.8977  11.00000  0.05    0.43
Q16   1   0.1934  0.6877  0.9675  11.00000  0.05    0.43
Q17   1   0.0554  0.5359  0.7797  11.00000  0.05    0.41
Q18   1   0.4309  0.4731  0.7853  11.00000  0.05    0.38
Q19   1   0.0987  0.4854  0.8622  11.00000  0.05    0.37
Q20   1   0.3288  0.4553  0.8006  11.00000  0.05    0.37
;
_shelx_res_checksum              85999
_shelx_fab_file
;
    3    0    0     12.42      0.00
    4    0    0    -16.46      0.00
    5    0    0    -13.88      0.00
    6    0    0    -17.25      0.00
    7    0    0    -20.19      0.00
    8    0    0    -14.09      0.00
    9    0    0     -4.65      0.00
   10    0    0      0.16      0.00
   11    0    0     -1.08      0.00
   12    0    0     -3.73      0.00
   13    0    0     -3.29      0.00
   14    0    0     -0.39      0.00
   15    0    0      1.50      0.00
   16    0    0      0.88      0.00
   17    0    0     -0.73      0.00
   18    0    0     -1.45      0.00
   19    0    0     -1.68      0.00
   20    0    0     -2.48      0.00
    2    1    0     53.01      0.00
    3    1    0     33.87      0.00
    4    1    0     19.36      0.00
    5    1    0     17.95      0.00
    6    1    0     17.06      0.00
    7    1    0      8.91      0.00
    8    1    0     -2.51      0.00
    9    1    0     -9.65      0.00
   10    1    0     -9.48      0.00
   11    1    0     -5.91      0.00
   12    1    0     -4.00      0.00
   13    1    0     -3.89      0.00
   14    1    0     -3.06      0.00
   15    1    0     -0.95      0.00
   16    1    0      1.26      0.00
   17    1    0      2.43      0.00
   18    1    0      2.56      0.00
   19    1    0      2.66      0.00
   20    1    0      2.70      0.00
    1    2    0     30.61      0.00
    2    2    0     -4.33      0.00
    3    2    0    -20.40      0.00
    4    2    0    -14.03      0.00
    5    2    0     -6.03      0.00
    6    2    0     -6.96      0.00
    7    2    0     -9.59      0.00
    8    2    0     -6.77      0.00
    9    2    0     -0.81      0.00
   10    2    0      2.83      0.00
   11    2    0      2.51      0.00
   12    2    0      0.75      0.00
   13    2    0      0.42      0.00
   14    2    0      1.45      0.00
   15    2    0      1.80      0.00
   16    2    0      0.93      0.00
   17    2    0      0.07      0.00
   18    2    0     -0.44      0.00
   19    2    0     -1.02      0.00
   20    2    0     -1.05      0.00
    1    3    0     44.47      0.00
    2    3    0     44.88      0.00
    3    3    0     14.79      0.00
    4    3    0     -2.71      0.00
    5    3    0      4.67      0.00
    6    3    0     14.78      0.00
    7    3    0     10.45      0.00
    8    3    0     -2.05      0.00
    9    3    0     -8.75      0.00
   10    3    0     -6.26      0.00
   11    3    0     -1.75      0.00
   12    3    0     -0.80      0.00
   13    3    0     -1.23      0.00
   14    3    0      0.79      0.00
   15    3    0      4.29      0.00
   16    3    0      5.65      0.00
   17    3    0      4.00      0.00
   18    3    0      1.84      0.00
   19    3    0      1.31      0.00
    0    4    0    -25.94      0.00
    1    4    0    -10.33      0.00
    2    4    0     20.22      0.00
    3    4    0     38.07      0.00
    4    4    0     35.22      0.00
    5    4    0     23.19      0.00
    6    4    0     12.85      0.00
    7    4    0      5.66      0.00
    8    4    0     -0.05      0.00
    9    4    0     -3.17      0.00
   10    4    0     -2.02      0.00
   11    4    0      1.16      0.00
   12    4    0      2.04      0.00
   13    4    0      0.36      0.00
   14    4    0     -0.53      0.00
   15    4    0      0.47      0.00
   16    4    0      1.35      0.00
   17    4    0      0.86      0.00
   18    4    0     -0.34      0.00
   19    4    0     -1.12      0.00
    1    5    0     15.34      0.00
    2    5    0     17.96      0.00
    3    5    0      9.99      0.00
    4    5    0      3.70      0.00
    5    5    0      4.18      0.00
    6    5    0      5.14      0.00
    7    5    0      1.70      0.00
    8    5    0     -2.76      0.00
    9    5    0     -3.84      0.00
   10    5    0     -1.64      0.00
   11    5    0      1.33      0.00
   12    5    0      2.27      0.00
   13    5    0      0.40      0.00
   14    5    0     -1.19      0.00
   15    5    0      0.48      0.00
   16    5    0      3.44      0.00
   17    5    0      3.95      0.00
   18    5    0      1.90      0.00
   19    5    0     -0.22      0.00
    0    6    0    -18.34      0.00
    1    6    0    -10.76      0.00
    2    6    0      3.97      0.00
    3    6    0     11.16      0.00
    4    6    0      7.21      0.00
    5    6    0      2.59      0.00
    6    6    0      4.40      0.00
    7    6    0      6.66      0.00
    8    6    0      3.22      0.00
    9    6    0     -1.77      0.00
   10    6    0     -2.37      0.00
   11    6    0      0.21      0.00
   12    6    0      1.44      0.00
   13    6    0      0.15      0.00
   14    6    0     -0.98      0.00
   15    6    0      0.10      0.00
   16    6    0      1.95      0.00
   17    6    0      2.40      0.00
   18    6    0      1.72      0.00
   19    6    0      0.95      0.00
    1    7    0      4.12      0.00
    2    7    0      7.20      0.00
    3    7    0      8.45      0.00
    4    7    0      6.57      0.00
    5    7    0      2.11      0.00
    6    7    0     -0.92      0.00
    7    7    0     -0.11      0.00
    8    7    0      1.62      0.00
    9    7    0      1.21      0.00
   10    7    0     -0.05      0.00
   11    7    0      0.31      0.00
   12    7    0      1.80      0.00
   13    7    0      2.05      0.00
   14    7    0      0.21      0.00
   15    7    0     -1.59      0.00
   16    7    0     -1.23      0.00
   17    7    0      0.21      0.00
   18    7    0      0.57      0.00
    0    8    0    -13.32      0.00
    1    8    0     -9.59      0.00
    2    8    0     -2.72      0.00
    3    8    0      0.47      0.00
    4    8    0     -0.31      0.00
    5    8    0      0.19      0.00
    6    8    0      4.17      0.00
    7    8    0      7.97      0.00
    8    8    0      7.92      0.00
    9    8    0      4.64      0.00
   10    8    0      1.09      0.00
   11    8    0     -0.78      0.00
   12    8    0     -1.15      0.00
   13    8    0     -1.17      0.00
   14    8    0     -1.09      0.00
   15    8    0     -0.06      0.00
   16    8    0      2.53      0.00
   17    8    0      5.78      0.00
   18    8    0      7.07      0.00
    1    9    0     -4.48      0.00
    2    9    0     -4.31      0.00
    3    9    0     -1.23      0.00
    4    9    0     -0.61      0.00
    5    9    0     -2.78      0.00
    6    9    0     -2.08      0.00
    7    9    0      3.41      0.00
    8    9    0      8.22      0.00
    9    9    0      7.88      0.00
   10    9    0      4.61      0.00
   11    9    0      2.69      0.00
   12    9    0      2.56      0.00
   13    9    0      1.80      0.00
   14    9    0     -0.35      0.00
   15    9    0     -1.99      0.00
   16    9    0     -2.21      0.00
   17    9    0     -1.96      0.00
    0   10    0     -3.00      0.00
    1   10    0     -2.22      0.00
    2   10    0     -0.49      0.00
    3   10    0      0.89      0.00
    4   10    0      0.97      0.00
    5   10    0      0.01      0.00
    6   10    0     -0.22      0.00
    7   10    0      1.77      0.00
    8   10    0      4.82      0.00
    9   10    0      6.23      0.00
   10   10    0      5.02      0.00
   11   10    0      2.69      0.00
   12   10    0      1.23      0.00
   13   10    0      1.23      0.00
   14   10    0      1.67      0.00
   15   10    0      1.47      0.00
   17   10    0      1.10      0.00
    1   11    0     -4.95      0.00
    2   11    0     -5.87      0.00
    3   11    0     -2.94      0.00
    4   11    0     -0.15      0.00
    5   11    0     -0.04      0.00
    6   11    0     -0.58      0.00
    7   11    0      0.75      0.00
    8   11    0      2.53      0.00
    9   11    0      1.94      0.00
   10   11    0     -0.41      0.00
   11   11    0     -1.80      0.00
   12   11    0     -1.47      0.00
   13   11    0     -0.24      0.00
   14   11    0      1.61      0.00
   15   11    0      3.18      0.00
   16   11    0      2.54      0.00
    0   12    0      0.59      0.00
    1   12    0     -0.74      0.00
    2   12    0     -2.74      0.00
    3   12    0     -2.34      0.00
    4   12    0     -0.02      0.00
    5   12    0      0.97      0.00
    6   12    0     -0.47      0.00
    7   12    0     -1.53      0.00
    8   12    0      0.05      0.00
    9   12    0      2.23      0.00
   10   12    0      1.86      0.00
   11   12    0      0.01      0.00
   12   12    0     -0.05      0.00
   13   12    0      1.42      0.00
   14   12    0      1.69      0.00
   15   12    0      0.67      0.00
    1   13    0     -1.09      0.00
    2   13    0     -2.36      0.00
    3   13    0     -2.33      0.00
    4   13    0     -0.95      0.00
    5   13    0     -0.22      0.00
    6   13    0     -0.34      0.00
    7   13    0      0.26      0.00
    8   13    0      1.29      0.00
    9   13    0      1.32      0.00
   10   13    0      0.70      0.00
   11   13    0      0.79      0.00
   12   13    0      1.97      0.00
   13   13    0      3.44      0.00
   14   13    0      3.78      0.00
   15   13    0      2.30      0.00
    0   14    0     -0.82      0.00
    1   14    0     -0.51      0.00
    2   14    0     -0.22      0.00
    3   14    0     -0.17      0.00
    4   14    0      0.50      0.00
    5   14    0      1.09      0.00
    6   14    0     -0.05      0.00
    7   14    0     -1.61      0.00
    8   14    0     -0.96      0.00
    9   14    0      0.91      0.00
   10   14    0      1.36      0.00
   11   14    0      1.17      0.00
   12   14    0      2.27      0.00
   13   14    0      3.54      0.00
   14   14    0      3.16      0.00
    1   15    0      0.38      0.00
    2   15    0      0.32      0.00
    3   15    0      0.45      0.00
    4   15    0      1.09      0.00
    5   15    0      1.65      0.00
    6   15    0      1.66      0.00
    7   15    0      1.35      0.00
    8   15    0      1.38      0.00
    9   15    0      1.86      0.00
   10   15    0      1.64      0.00
   11   15    0     -0.15      0.00
   12   15    0     -2.05      0.00
    0   16    0      1.84      0.00
    1   16    0      2.04      0.00
    2   16    0      1.62      0.00
    3   16    0     -0.22      0.00
    4   16    0     -1.88      0.00
    5   16    0     -2.08      0.00
    6   16    0     -1.72      0.00
    7   16    0     -1.44      0.00
    8   16    0     -0.24      0.00
    9   16    0      1.98      0.00
   10   16    0      3.34      0.00
   11   16    0      2.71      0.00
    1   17    0      0.37      0.00
    2   17    0      1.60      0.00
    3   17    0      2.01      0.00
    4   17    0     -0.02      0.00
    5   17    0     -2.68      0.00
    6   17    0     -3.33      0.00
    7   17    0     -2.51      0.00
    8   17    0     -1.98      0.00
    9   17    0     -1.59      0.00
    0   18    0     -0.30      0.00
    1   18    0      0.19      0.00
    2   18    0      0.88      0.00
    3   18    0      0.83      0.00
    4   18    0      0.23      0.00
    5   18    0     -0.15      0.00
    6   18    0      0.10      0.00
    7   18    0      0.65      0.00
    1   19    0      0.30      0.00
    2   19    0      1.10      0.00
    4   19    0      0.54      0.00
  -20    1    1     -0.35      0.00
  -19    1    1      0.28      0.00
  -18    1    1      0.17      0.00
  -17    1    1      0.16      0.00
  -16    1    1      1.28      0.00
  -15    1    1      2.23      0.00
  -14    1    1      0.42      0.00
  -13    1    1     -3.92      0.00
  -12    1    1     -6.79      0.00
  -11    1    1     -5.73      0.00
  -10    1    1     -3.73      0.00
   -9    1    1     -4.99      0.00
   -8    1    1     -8.89      0.00
   -7    1    1     -9.30      0.00
   -6    1    1     -3.14      0.00
   -5    1    1     -2.48      0.00
   -4    1    1    -21.23      0.00
   -3    1    1    -34.32      0.00
    2    1    1     44.06      0.00
    3    1    1    -29.72      0.00
    4    1    1    -41.46      0.00
    5    1    1    -29.59      0.00
    6    1    1    -23.66      0.00
    7    1    1    -19.83      0.00
    8    1    1    -10.09      0.00
    9    1    1      1.56      0.00
   10    1    1      7.39      0.00
   11    1    1      5.52      0.00
   12    1    1      0.66      0.00
   13    1    1     -1.80      0.00
   14    1    1     -1.06      0.00
   15    1    1      0.07      0.00
   16    1    1     -0.42      0.00
   17    1    1     -1.92      0.00
   18    1    1     -2.91      0.00
   19    1    1     -3.23      0.00
   20    1    1     -3.21      0.00
  -20    2    1     -3.92      0.00
  -19    2    1     -2.78      0.00
  -18    2    1     -2.09      0.00
  -17    2    1     -2.72      0.00
  -16    2    1     -3.32      0.00
  -15    2    1     -2.34      0.00
  -14    2    1     -0.04      0.00
  -13    2    1      0.78      0.00
  -12    2    1     -1.07      0.00
  -11    2    1     -1.43      0.00
  -10    2    1      2.73      0.00
   -9    2    1      5.31      0.00
   -8    2    1     -2.56      0.00
   -7    2    1    -19.51      0.00
   -6    2    1    -31.66      0.00
   -5    2    1    -27.46      0.00
   -4    2    1    -16.72      0.00
   -3    2    1    -20.08      0.00
   -2    2    1    -28.37      0.00
   -1    2    1     -2.09      0.00
    1    2    1    110.73      0.00
    2    2    1     92.88      0.00
    3    2    1     36.18      0.00
    4    2    1     -2.83      0.00
    5    2    1     -7.10      0.00
    6    2    1      1.20      0.00
    7    2    1      1.82      0.00
    8    2    1     -5.52      0.00
    9    2    1    -10.66      0.00
   10    2    1     -8.15      0.00
   11    2    1     -2.66      0.00
   12    2    1     -0.61      0.00
   13    2    1     -1.43      0.00
   14    2    1     -1.03      0.00
   15    2    1      1.26      0.00
   16    2    1      2.83      0.00
   17    2    1      2.07      0.00
   18    2    1      0.45      0.00
   19    2    1      0.25      0.00
  -20    3    1     -1.48      0.00
  -19    3    1     -2.17      0.00
  -18    3    1     -1.70      0.00
  -17    3    1     -0.68      0.00
  -16    3    1      0.73      0.00
  -15    3    1      1.37      0.00
  -14    3    1      0.49      0.00
  -13    3    1     -0.35      0.00
  -12    3    1      0.00      0.00
  -11    3    1      0.22      0.00
  -10    3    1     -1.42      0.00
   -9    3    1     -5.13      0.00
   -8    3    1     -8.92      0.00
   -7    3    1     -8.89      0.00
   -6    3    1     -2.79      0.00
   -5    3    1      7.64      0.00
   -4    3    1     18.24      0.00
   -3    3    1     22.99      0.00
   -2    3    1     16.56      0.00
   -1    3    1      2.89      0.00
    0    3    1     -4.28      0.00
    1    3    1      3.23      0.00
    2    3    1     19.13      0.00
    3    3    1     32.10      0.00
    4    3    1     36.17      0.00
    5    3    1     30.99      0.00
    6    3    1     20.19      0.00
    7    3    1      9.40      0.00
    8    3    1      2.18      0.00
    9    3    1     -0.96      0.00
   10    3    1     -0.97      0.00
   11    3    1     -0.06      0.00
   12    3    1     -0.38      0.00
   13    3    1     -1.58      0.00
   14    3    1     -2.03      0.00
   15    3    1     -1.40      0.00
   16    3    1     -0.09      0.00
   17    3    1      1.13      0.00
   18    3    1      0.92      0.00
   19    3    1     -0.53      0.00
  -19    4    1     -1.28      0.00
  -18    4    1     -2.92      0.00
  -17    4    1     -6.20      0.00
  -16    4    1     -7.79      0.00
  -15    4    1     -4.88      0.00
  -14    4    1      0.01      0.00
  -13    4    1      2.28      0.00
  -12    4    1      1.66      0.00
  -11    4    1      1.95      0.00
  -10    4    1      5.07      0.00
   -9    4    1      7.08      0.00
   -8    4    1      1.70      0.00
   -7    4    1     -9.67      0.00
   -6    4    1    -14.88      0.00
   -5    4    1     -5.81      0.00
   -4    4    1      6.74      0.00
   -3    4    1      5.14      0.00
   -2    4    1     -7.53      0.00
   -1    4    1     -7.09      0.00
    0    4    1     17.46      0.00
    1    4    1     43.25      0.00
    2    4    1     41.36      0.00
    3    4    1     15.66      0.00
    4    4    1     -4.71      0.00
    5    4    1     -5.67      0.00
    6    4    1     -0.08      0.00
    7    4    1     -1.57      0.00
    8    4    1     -7.34      0.00
    9    4    1     -8.93      0.00
   10    4    1     -5.18      0.00
   11    4    1     -0.93      0.00
   12    4    1     -0.02      0.00
   13    4    1     -1.67      0.00
   14    4    1     -2.17      0.00
   15    4    1      0.03      0.00
   16    4    1      2.72      0.00
   17    4    1      3.78      0.00
   18    4    1      3.42      0.00
   19    4    1      2.61      0.00
  -19    5    1      0.13      0.00
  -18    5    1      0.21      0.00
  -17    5    1      1.01      0.00
  -16    5    1      1.52      0.00
  -15    5    1      0.58      0.00
  -14    5    1     -0.33      0.00
  -13    5    1      1.24      0.00
  -12    5    1      3.89      0.00
  -11    5    1      3.60      0.00
  -10    5    1      0.34      0.00
   -9    5    1     -1.36      0.00
   -8    5    1     -0.14      0.00
   -7    5    1     -0.77      0.00
   -6    5    1     -5.31      0.00
   -5    5    1     -6.96      0.00
   -4    5    1     -0.52      0.00
   -3    5    1      5.43      0.00
   -2    5    1     -2.52      0.00
   -1    5    1    -21.98      0.00
    0    5    1    -33.26      0.00
    1    5    1    -22.40      0.00
    2    5    1      1.31      0.00
    3    5    1     16.78      0.00
    4    5    1     16.33      0.00
    5    5    1     10.32      0.00
    6    5    1      7.84      0.00
    7    5    1      5.31      0.00
    8    5    1     -2.05      0.00
    9    5    1     -9.57      0.00
   10    5    1    -10.42      0.00
   11    5    1     -5.80      0.00
   12    5    1     -1.93      0.00
   13    5    1     -1.15      0.00
   14    5    1     -0.54      0.00
   15    5    1      2.06      0.00
   16    5    1      4.54      0.00
   17    5    1      4.41      0.00
   19    5    1      1.65      0.00
  -19    6    1      1.59      0.00
  -18    6    1     -0.95      0.00
  -17    6    1     -2.61      0.00
  -16    6    1     -0.94      0.00
  -15    6    1      2.12      0.00
  -14    6    1      2.41      0.00
  -13    6    1     -0.29      0.00
  -12    6    1     -2.43      0.00
  -11    6    1     -2.72      0.00
  -10    6    1     -2.92      0.00
   -9    6    1     -3.64      0.00
   -8    6    1     -3.88      0.00
   -7    6    1     -3.43      0.00
   -6    6    1     -2.73      0.00
   -5    6    1     -1.91      0.00
   -4    6    1     -1.88      0.00
   -3    6    1     -3.72      0.00
   -2    6    1     -5.91      0.00
   -1    6    1     -4.65      0.00
    0    6    1      1.41      0.00
    1    6    1      8.56      0.00
    2    6    1     12.13      0.00
    3    6    1     11.60      0.00
    4    6    1      9.38      0.00
    5    6    1      6.76      0.00
    6    6    1      3.93      0.00
    7    6    1      1.56      0.00
    8    6    1      0.02      0.00
    9    6    1     -0.77      0.00
   10    6    1     -0.07      0.00
   11    6    1      2.25      0.00
   12    6    1      3.78      0.00
   13    6    1      2.28      0.00
   14    6    1     -0.84      0.00
   15    6    1     -2.47      0.00
   16    6    1     -1.84      0.00
   17    6    1     -0.86      0.00
   18    6    1     -0.95      0.00
   19    6    1     -1.35      0.00
  -19    7    1      3.68      0.00
  -17    7    1      2.66      0.00
  -16    7    1     -0.70      0.00
  -15    7    1     -2.75      0.00
  -14    7    1     -2.34      0.00
  -13    7    1     -0.56      0.00
  -12    7    1      0.90      0.00
  -11    7    1      1.42      0.00
  -10    7    1      1.68      0.00
   -9    7    1      3.48      0.00
   -8    7    1      6.49      0.00
   -7    7    1      5.77      0.00
   -6    7    1     -1.52      0.00
   -5    7    1     -8.76      0.00
   -4    7    1     -8.05      0.00
   -3    7    1     -2.77      0.00
   -2    7    1     -2.13      0.00
   -1    7    1     -6.74      0.00
    0    7    1     -7.81      0.00
    1    7    1      0.30      0.00
    2    7    1     11.59      0.00
    3    7    1     15.15      0.00
    4    7    1      9.35      0.00
    5    7    1      3.42      0.00
    6    7    1      3.22      0.00
    7    7    1      4.41      0.00
    8    7    1      2.20      0.00
    9    7    1     -1.42      0.00
   10    7    1     -2.65      0.00
   11    7    1     -1.39      0.00
   12    7    1     -0.41      0.00
   13    7    1     -1.50      0.00
   14    7    1     -3.10      0.00
   15    7    1     -2.65      0.00
   16    7    1     -0.39      0.00
   17    7    1      1.63      0.00
   18    7    1      2.30      0.00
  -18    8    1     -0.73      0.00
  -17    8    1      0.33      0.00
  -16    8    1      1.46      0.00
  -15    8    1      0.87      0.00
  -14    8    1     -1.53      0.00
  -13    8    1     -3.18      0.00
  -12    8    1     -2.33      0.00
  -11    8    1     -0.64      0.00
  -10    8    1     -1.14      0.00
   -9    8    1     -3.71      0.00
   -8    8    1     -3.86      0.00
   -7    8    1      1.03      0.00
   -6    8    1      6.04      0.00
   -5    8    1      5.31      0.00
   -4    8    1      0.92      0.00
   -3    8    1     -1.24      0.00
   -2    8    1     -0.36      0.00
   -1    8    1      0.51      0.00
    0    8    1      0.29      0.00
    1    8    1      0.78      0.00
    2    8    1      3.66      0.00
    3    8    1      6.77      0.00
    4    8    1      5.42      0.00
    5    8    1     -0.05      0.00
    6    8    1     -3.17      0.00
    7    8    1     -1.09      0.00
    8    8    1      1.63      0.00
    9    8    1      1.23      0.00
   10    8    1     -0.48      0.00
   11    8    1     -0.55      0.00
   12    8    1      0.99      0.00
   13    8    1      1.72      0.00
   14    8    1      0.27      0.00
   15    8    1     -1.52      0.00
   16    8    1     -1.38      0.00
   17    8    1     -0.13      0.00
   18    8    1      0.54      0.00
  -18    9    1      3.40      0.00
  -17    9    1      3.14      0.00
  -16    9    1      2.44      0.00
  -15    9    1      1.81      0.00
  -14    9    1      0.80      0.00
  -13    9    1     -0.55      0.00
  -12    9    1     -1.69      0.00
  -11    9    1     -1.86      0.00
  -10    9    1     -0.30      0.00
   -9    9    1      2.26      0.00
   -8    9    1      3.52      0.00
   -7    9    1      2.15      0.00
   -6    9    1     -0.98      0.00
   -5    9    1     -4.02      0.00
   -4    9    1     -5.57      0.00
   -3    9    1     -5.98      0.00
   -2    9    1     -7.13      0.00
   -1    9    1     -9.13      0.00
    0    9    1     -8.90      0.00
    1    9    1     -4.44      0.00
    2    9    1      1.46      0.00
    3    9    1      4.14      0.00
    4    9    1      2.36      0.00
    5    9    1     -0.94      0.00
    6    9    1     -2.09      0.00
    7    9    1     -0.48      0.00
    8    9    1      1.33      0.00
    9    9    1      1.19      0.00
   10    9    1     -0.15      0.00
   11    9    1     -0.84      0.00
   12    9    1     -0.37      0.00
   13    9    1      0.46      0.00
   14    9    1      0.48      0.00
   15    9    1     -0.46      0.00
   16    9    1     -0.66      0.00
   17    9    1      1.06      0.00
  -17   10    1      1.56      0.00
  -15   10    1     -0.17      0.00
  -14   10    1     -0.25      0.00
  -13   10    1     -0.57      0.00
  -12   10    1     -0.31      0.00
  -11   10    1      0.08      0.00
  -10   10    1     -1.27      0.00
   -9   10    1     -3.71      0.00
   -8   10    1     -3.71      0.00
   -7   10    1     -0.17      0.00
   -6   10    1      3.05      0.00
   -5   10    1      2.44      0.00
   -4   10    1      0.37      0.00
   -3   10    1      1.37      0.00
   -2   10    1      4.67      0.00
   -1   10    1      4.90      0.00
    0   10    1      0.00      0.00
    1   10    1     -5.42      0.00
    2   10    1     -5.75      0.00
    3   10    1     -1.60      0.00
    4   10    1      1.36      0.00
    5   10    1      0.60      0.00
    6   10    1     -0.24      0.00
    7   10    1      1.78      0.00
    8   10    1      3.91      0.00
    9   10    1      2.69      0.00
   10   10    1     -0.31      0.00
   11   10    1     -1.46      0.00
   12   10    1     -0.68      0.00
   13   10    1      0.06      0.00
   14   10    1      1.15      0.00
   15   10    1      3.48      0.00
   17   10    1      3.22      0.00
  -16   11    1     -0.55      0.00
  -15   11    1      0.23      0.00
  -14   11    1      0.87      0.00
  -13   11    1      0.27      0.00
  -12   11    1     -0.50      0.00
  -11   11    1      0.58      0.00
  -10   11    1      2.96      0.00
   -9   11    1      3.71      0.00
   -8   11    1      1.68      0.00
   -7   11    1     -0.84      0.00
   -6   11    1     -1.47      0.00
   -5   11    1     -0.98      0.00
   -4   11    1     -1.49      0.00
   -3   11    1     -3.05      0.00
   -2   11    1     -3.79      0.00
   -1   11    1     -3.06      0.00
    0   11    1     -2.45      0.00
    1   11    1     -3.02      0.00
    2   11    1     -3.43      0.00
    3   11    1     -2.24      0.00
    4   11    1     -0.62      0.00
    5   11    1     -0.65      0.00
    6   11    1     -1.77      0.00
    7   11    1     -1.32      0.00
    8   11    1      1.56      0.00
    9   11    1      4.39      0.00
   10   11    1      4.23      0.00
   11   11    1      1.53      0.00
   12   11    1     -0.67      0.00
   13   11    1     -1.21      0.00
   14   11    1     -1.56      0.00
   15   11    1     -2.01      0.00
   16   11    1     -1.40      0.00
  -16   12    1      2.07      0.00
  -15   12    1      0.31      0.00
  -14   12    1     -1.23      0.00
  -13   12    1     -1.51      0.00
  -12   12    1     -0.36      0.00
  -11   12    1      0.97      0.00
  -10   12    1      0.79      0.00
   -9   12    1     -0.55      0.00
   -8   12    1     -0.76      0.00
   -7   12    1      0.66      0.00
   -6   12    1      1.40      0.00
   -5   12    1      0.38      0.00
   -4   12    1     -0.30      0.00
   -3   12    1      0.75      0.00
   -2   12    1      1.82      0.00
   -1   12    1      1.08      0.00
    0   12    1     -1.16      0.00
    1   12    1     -3.58      0.00
    2   12    1     -4.50      0.00
    3   12    1     -2.72      0.00
    4   12    1      0.17      0.00
    5   12    1      1.39      0.00
    6   12    1      1.41      0.00
    7   12    1      2.48      0.00
    8   12    1      3.88      0.00
    9   12    1      3.36      0.00
   10   12    1      1.26      0.00
   11   12    1     -0.61      0.00
   12   12    1     -1.34      0.00
   13   12    1     -0.45      0.00
   14   12    1      1.67      0.00
   15   12    1      2.84      0.00
  -15   13    1      3.29      0.00
  -14   13    1      5.36      0.00
  -13   13    1      5.77      0.00
  -12   13    1      3.27      0.00
  -11   13    1      0.51      0.00
  -10   13    1     -0.38      0.00
   -9   13    1     -1.25      0.00
   -8   13    1     -3.43      0.00
   -7   13    1     -4.29      0.00
   -6   13    1     -1.86      0.00
   -5   13    1      1.22      0.00
   -4   13    1      1.81      0.00
   -3   13    1      0.72      0.00
   -2   13    1      0.49      0.00
   -1   13    1      1.32      0.00
    0   13    1      1.38      0.00
    1   13    1     -0.27      0.00
    2   13    1     -2.43      0.00
    3   13    1     -2.88      0.00
    4   13    1     -1.01      0.00
    5   13    1      0.81      0.00
    6   13    1      0.08      0.00
    7   13    1     -1.80      0.00
    8   13    1     -1.90      0.00
    9   13    1     -0.83      0.00
   10   13    1     -1.12      0.00
   11   13    1     -1.94      0.00
   12   13    1     -0.76      0.00
   13   13    1      1.63      0.00
   14   13    1      2.72      0.00
  -14   14    1     -1.11      0.00
  -13   14    1     -1.67      0.00
  -12   14    1     -1.78      0.00
  -11   14    1     -2.13      0.00
  -10   14    1     -2.49      0.00
   -9   14    1     -2.03      0.00
   -8   14    1     -0.80      0.00
   -7   14    1      0.20      0.00
   -6   14    1      0.23      0.00
   -5   14    1     -0.12      0.00
   -4   14    1      0.20      0.00
   -3   14    1      0.56      0.00
   -2   14    1     -0.06      0.00
   -1   14    1     -0.70      0.00
    0   14    1     -0.37      0.00
    1   14    1     -0.42      0.00
    2   14    1     -1.59      0.00
    3   14    1     -1.93      0.00
    4   14    1     -0.62      0.00
    5   14    1      0.39      0.00
    6   14    1      0.13      0.00
    7   14    1     -0.21      0.00
    8   14    1     -0.04      0.00
    9   14    1      0.17      0.00
   10   14    1      0.29      0.00
   11   14    1      0.51      0.00
   12   14    1      1.17      0.00
   13   14    1      2.36      0.00
  -13   15    1     -0.88      0.00
  -12   15    1     -1.13      0.00
  -11   15    1      0.01      0.00
  -10   15    1      1.94      0.00
   -9   15    1      2.09      0.00
   -8   15    1      0.29      0.00
   -7   15    1     -0.58      0.00
   -6   15    1      0.30      0.00
   -5   15    1      0.82      0.00
   -4   15    1      0.51      0.00
   -3   15    1      0.81      0.00
   -2   15    1      1.28      0.00
   -1   15    1      0.51      0.00
    0   15    1     -0.54      0.00
    1   15    1     -0.56      0.00
    2   15    1     -0.81      0.00
    3   15    1     -2.15      0.00
    4   15    1     -2.62      0.00
    5   15    1     -1.34      0.00
    6   15    1     -0.37      0.00
    7   15    1     -0.40      0.00
    8   15    1      0.46      0.00
    9   15    1      2.39      0.00
   10   15    1      3.54      0.00
   11   15    1      3.49      0.00
  -10   16    1      0.00      0.00
   -9   16    1     -0.12      0.00
   -8   16    1      0.18      0.00
   -7   16    1      0.10      0.00
   -6   16    1      0.15      0.00
   -5   16    1      0.03      0.00
   -4   16    1     -0.81      0.00
   -3   16    1     -1.56      0.00
   -2   16    1     -1.46      0.00
   -1   16    1     -1.00      0.00
    0   16    1     -0.58      0.00
    1   16    1      0.34      0.00
    2   16    1      1.90      0.00
    3   16    1      2.89      0.00
    4   16    1      2.27      0.00
    5   16    1      0.98      0.00
    6   16    1      0.42      0.00
    7   16    1      0.37      0.00
    8   16    1      0.35      0.00
    9   16    1      0.58      0.00
   10   16    1      0.43      0.00
   11   16    1     -1.04      0.00
  -10   17    1      0.43      0.00
   -9   17    1      0.14      0.00
   -8   17    1     -0.31      0.00
   -7   17    1     -0.77      0.00
   -6   17    1     -1.38      0.00
   -5   17    1     -1.88      0.00
   -4   17    1     -1.60      0.00
   -3   17    1     -0.45      0.00
   -2   17    1      0.57      0.00
   -1   17    1      0.79      0.00
    0   17    1      0.91      0.00
    1   17    1      1.67      0.00
    2   17    1      2.25      0.00
    3   17    1      1.55      0.00
    4   17    1     -0.03      0.00
    5   17    1     -1.15      0.00
    6   17    1     -1.33      0.00
    7   17    1     -1.12      0.00
    8   17    1     -0.80      0.00
    9   17    1      0.07      0.00
   -8   18    1      1.50      0.00
   -7   18    1      2.32      0.00
   -6   18    1      4.09      0.00
   -5   18    1      5.01      0.00
   -4   18    1      3.88      0.00
   -3   18    1      2.23      0.00
   -2   18    1      1.66      0.00
   -1   18    1      1.50      0.00
    0   18    1      0.86      0.00
    1   18    1      0.70      0.00
    2   18    1      1.85      0.00
    3   18    1      2.57      0.00
    4   18    1      0.85      0.00
    5   18    1     -1.89      0.00
    6   18    1     -2.59      0.00
    7   18    1     -1.31      0.00
   -4   19    1     -0.14      0.00
   -3   19    1     -0.18      0.00
   -2   19    1      0.04      0.00
   -1   19    1     -0.43      0.00
    0   19    1     -1.38      0.00
    1   19    1     -1.63      0.00
    2   19    1     -1.17      0.00
    3   19    1     -0.90      0.00
  -20    0    2      3.67      0.00
  -19    0    2      4.93      0.00
  -18    0    2      4.25      0.00
  -17    0    2      2.60      0.00
  -16    0    2      1.79      0.00
  -15    0    2      1.63      0.00
  -14    0    2     -0.72      0.00
  -13    0    2     -6.10      0.00
  -12    0    2    -10.08      0.00
  -11    0    2     -8.93      0.00
  -10    0    2     -5.06      0.00
   -9    0    2     -2.27      0.00
   -8    0    2      0.90      0.00
   -7    0    2     11.50      0.00
   -6    0    2     32.13      0.00
   -5    0    2     43.12      0.00
   -4    0    2     15.87      0.00
   -3    0    2    -28.74      0.00
    2    0    2     52.65      0.00
    3    0    2    -18.59      0.00
    4    0    2    -29.93      0.00
    5    0    2    -17.78      0.00
    6    0    2    -12.90      0.00
    7    0    2    -10.92      0.00
    8    0    2     -1.52      0.00
    9    0    2     11.56      0.00
   10    0    2     18.05      0.00
   11    0    2     14.38      0.00
   12    0    2      6.60      0.00
   13    0    2      2.13      0.00
   14    0    2      2.18      0.00
   15    0    2      2.83      0.00
   16    0    2      0.95      0.00
   17    0    2     -2.29      0.00
   18    0    2     -3.85      0.00
   19    0    2     -3.40      0.00
  -20    1    2     -1.85      0.00
  -19    1    2     -0.67      0.00
  -18    1    2      0.00      0.00
  -17    1    2      0.00      0.00
  -16    1    2     -0.12      0.00
  -15    1    2      0.11      0.00
  -14    1    2      0.79      0.00
  -13    1    2      0.44      0.00
  -12    1    2     -2.04      0.00
  -11    1    2     -3.80      0.00
  -10    1    2     -1.56      0.00
   -9    1    2      2.24      0.00
   -8    1    2      1.53      0.00
   -7    1    2     -5.01      0.00
   -6    1    2     -9.55      0.00
   -5    1    2     -3.10      0.00
   -4    1    2      9.67      0.00
   -3    1    2     16.13      0.00
   -2    1    2     23.71      0.00
    2    1    2    104.62      0.00
    3    1    2     44.78      0.00
    4    1    2      0.88      0.00
    5    1    2    -13.35      0.00
    6    1    2    -11.68      0.00
    7    1    2     -8.65      0.00
    8    1    2     -8.77      0.00
    9    1    2     -9.15      0.00
   10    1    2     -6.56      0.00
   11    1    2     -2.76      0.00
   12    1    2     -1.45      0.00
   13    1    2     -2.33      0.00
   14    1    2     -2.17      0.00
   15    1    2     -0.07      0.00
   16    1    2      1.53      0.00
   17    1    2      0.58      0.00
   18    1    2     -1.56      0.00
   19    1    2     -2.22      0.00
  -20    2    2     -1.48      0.00
  -19    2    2     -1.58      0.00
  -18    2    2     -1.51      0.00
  -17    2    2     -0.68      0.00
  -16    2    2      1.96      0.00
  -15    2    2      4.56      0.00
  -14    2    2      3.89      0.00
  -13    2    2      0.50      0.00
  -12    2    2     -1.48      0.00
  -11    2    2      0.11      0.00
  -10    2    2      2.44      0.00
   -9    2    2      1.37      0.00
   -8    2    2     -2.61      0.00
   -7    2    2     -4.20      0.00
   -6    2    2     -1.39      0.00
   -5    2    2     -2.46      0.00
   -4    2    2    -17.81      0.00
   -3    2    2    -40.24      0.00
   -2    2    2    -43.93      0.00
   -1    2    2    -17.23      0.00
    0    2    2     14.23      0.00
    1    2    2     18.45      0.00
    2    2    2      1.10      0.00
    3    2    2     -7.48      0.00
    4    2    2      1.57      0.00
    5    2    2     10.70      0.00
    6    2    2      8.92      0.00
    7    2    2      3.20      0.00
    8    2    2      1.50      0.00
    9    2    2      3.25      0.00
   10    2    2      4.71      0.00
   11    2    2      3.85      0.00
   12    2    2      1.26      0.00
   13    2    2     -0.82      0.00
   14    2    2     -1.13      0.00
   15    2    2     -0.30      0.00
   16    2    2      0.86      0.00
   17    2    2      1.63      0.00
   18    2    2      0.99      0.00
   19    2    2     -0.72      0.00
  -20    3    2     -1.18      0.00
  -19    3    2      0.39      0.00
  -18    3    2      1.26      0.00
  -17    3    2     -0.37      0.00
  -16    3    2     -2.70      0.00
  -15    3    2     -2.46      0.00
  -14    3    2     -0.04      0.00
  -13    3    2     -0.10      0.00
  -12    3    2     -4.61      0.00
  -11    3    2     -7.99      0.00
  -10    3    2     -4.59      0.00
   -9    3    2      1.18      0.00
   -8    3    2     -1.26      0.00
   -7    3    2    -13.42      0.00
   -6    3    2    -21.51      0.00
   -5    3    2    -12.82      0.00
   -4    3    2      1.85      0.00
   -3    3    2     -1.88      0.00
   -2    3    2    -21.23      0.00
   -1    3    2    -19.57      0.00
    0    3    2     18.87      0.00
    1    3    2     54.86      0.00
    2    3    2     44.45      0.00
    3    3    2     -0.34      0.00
    4    3    2    -32.31      0.00
    5    3    2    -30.95      0.00
    6    3    2    -14.74      0.00
    7    3    2     -5.23      0.00
    8    3    2     -4.22      0.00
    9    3    2     -3.00      0.00
   10    3    2      1.87      0.00
   11    3    2      5.95      0.00
   12    3    2      5.06      0.00
   13    3    2      1.17      0.00
   14    3    2     -0.87      0.00
   15    3    2      0.10      0.00
   16    3    2      1.37      0.00
   17    3    2      1.03      0.00
   18    3    2      0.07      0.00
   19    3    2     -0.08      0.00
  -20    4    2     -3.05      0.00
  -19    4    2     -3.86      0.00
  -18    4    2     -3.62      0.00
  -17    4    2     -2.43      0.00
  -16    4    2     -0.94      0.00
  -15    4    2     -0.80      0.00
  -14    4    2     -1.35      0.00
  -13    4    2      0.16      0.00
  -12    4    2      3.06      0.00
  -11    4    2      3.74      0.00
  -10    4    2      1.50      0.00
   -9    4    2     -1.68      0.00
   -8    4    2     -5.12      0.00
   -7    4    2     -9.27      0.00
   -6    4    2    -12.25      0.00
   -5    4    2     -8.00      0.00
   -4    4    2      7.75      0.00
   -3    4    2     26.07      0.00
   -2    4    2     28.52      0.00
   -1    4    2     11.28      0.00
    0    4    2     -5.61      0.00
    1    4    2     -3.27      0.00
    2    4    2     13.15      0.00
    3    4    2     25.81      0.00
    4    4    2     27.36      0.00
    5    4    2     23.71      0.00
    6    4    2     20.45      0.00
    7    4    2     15.64      0.00
    8    4    2      6.70      0.00
    9    4    2     -2.31      0.00
   10    4    2     -5.52      0.00
   11    4    2     -3.61      0.00
   12    4    2     -1.55      0.00
   13    4    2     -1.17      0.00
   14    4    2     -0.75      0.00
   15    4    2      0.89      0.00
   16    4    2      2.81      0.00
   17    4    2      3.24      0.00
   18    4    2      1.53      0.00
   19    4    2     -0.68      0.00
  -19    5    2      0.97      0.00
  -18    5    2     -1.35      0.00
  -17    5    2     -4.48      0.00
  -16    5    2     -4.68      0.00
  -15    5    2     -1.21      0.00
  -14    5    2      1.36      0.00
  -13    5    2      0.05      0.00
  -12    5    2     -2.80      0.00
  -11    5    2     -4.15      0.00
  -10    5    2     -3.69      0.00
   -9    5    2     -3.22      0.00
   -8    5    2     -5.54      0.00
   -7    5    2     -9.99      0.00
   -6    5    2     -9.98      0.00
   -5    5    2     -1.30      0.00
   -4    5    2      9.59      0.00
   -3    5    2     12.40      0.00
   -2    5    2      6.29      0.00
   -1    5    2      1.59      0.00
    0    5    2      7.04      0.00
    1    5    2     17.33      0.00
    2    5    2     19.23      0.00
    3    5    2     10.64      0.00
    4    5    2      3.08      0.00
    5    5    2      3.43      0.00
    6    5    2      6.10      0.00
    7    5    2      5.20      0.00
    8    5    2      2.21      0.00
    9    5    2      0.79      0.00
   10    5    2      2.07      0.00
   11    5    2      4.37      0.00
   12    5    2      4.49      0.00
   13    5    2      1.32      0.00
   14    5    2     -2.28      0.00
   15    5    2     -3.31      0.00
   16    5    2     -1.70      0.00
   17    5    2      0.79      0.00
   19    5    2      1.99      0.00
  -19    6    2      1.25      0.00
  -18    6    2      1.38      0.00
  -17    6    2      0.28      0.00
  -16    6    2     -1.02      0.00
  -15    6    2     -1.31      0.00
  -14    6    2     -0.40      0.00
  -13    6    2      1.37      0.00
  -12    6    2      3.03      0.00
  -11    6    2      2.93      0.00
  -10    6    2      1.15      0.00
   -9    6    2      1.00      0.00
   -8    6    2      3.01      0.00
   -7    6    2      0.97      0.00
   -6    6    2     -8.09      0.00
   -5    6    2    -14.94      0.00
   -4    6    2     -9.98      0.00
   -3    6    2      1.41      0.00
   -2    6    2      5.85      0.00
   -1    6    2      0.27      0.00
    0    6    2     -4.58      0.00
    1    6    2      1.48      0.00
    2    6    2     13.93      0.00
    3    6    2     18.67      0.00
    4    6    2     11.70      0.00
    5    6    2      4.06      0.00
    6    6    2      3.69      0.00
    7    6    2      4.95      0.00
    8    6    2      1.22      0.00
    9    6    2     -4.35      0.00
   10    6    2     -5.44      0.00
   11    6    2     -1.87      0.00
   12    6    2      1.05      0.00
   13    6    2     -0.20      0.00
   14    6    2     -2.85      0.00
   15    6    2     -2.60      0.00
   16    6    2     -0.36      0.00
   17    6    2      0.56      0.00
   18    6    2      0.23      0.00
  -19    7    2     -1.35      0.00
  -18    7    2     -3.23      0.00
  -17    7    2     -3.12      0.00
  -16    7    2     -0.12      0.00
  -15    7    2      2.63      0.00
  -14    7    2      2.13      0.00
  -13    7    2     -0.07      0.00
  -12    7    2     -0.58      0.00
  -11    7    2      0.15      0.00
  -10    7    2     -1.16      0.00
   -9    7    2     -4.39      0.00
   -8    7    2     -5.27      0.00
   -7    7    2     -1.92      0.00
   -6    7    2      1.77      0.00
   -5    7    2      2.04      0.00
   -4    7    2      0.00      0.00
   -3    7    2     -1.61      0.00
   -2    7    2     -2.01      0.00
   -1    7    2     -1.14      0.00
    0    7    2      1.05      0.00
    1    7    2      4.08      0.00
    2    7    2      7.54      0.00
    3    7    2     10.13      0.00
    4    7    2      8.97      0.00
    5    7    2      3.95      0.00
    6    7    2     -0.38      0.00
    7    7    2     -1.36      0.00
    8    7    2     -1.55      0.00
    9    7    2     -2.81      0.00
   10    7    2     -3.17      0.00
   11    7    2     -1.22      0.00
   12    7    2      1.32      0.00
   13    7    2      1.93      0.00
   14    7    2      0.17      0.00
   15    7    2     -1.92      0.00
   16    7    2     -2.48      0.00
   17    7    2     -2.21      0.00
   18    7    2     -2.21      0.00
  -18    8    2      1.70      0.00
  -17    8    2      0.12      0.00
  -16    8    2     -1.80      0.00
  -15    8    2     -1.93      0.00
  -14    8    2     -0.38      0.00
  -13    8    2      1.06      0.00
  -12    8    2      1.13      0.00
  -11    8    2      0.49      0.00
  -10    8    2      0.87      0.00
   -9    8    2      3.18      0.00
   -8    8    2      5.87      0.00
   -7    8    2      5.23      0.00
   -6    8    2     -0.37      0.00
   -5    8    2     -6.88      0.00
   -4    8    2     -8.63      0.00
   -3    8    2     -6.08      0.00
   -2    8    2     -4.79      0.00
   -1    8    2     -6.27      0.00
    0    8    2     -5.16      0.00
    1    8    2      2.37      0.00
    2    8    2     11.67      0.00
    3    8    2     14.60      0.00
    4    8    2      9.72      0.00
    5    8    2      3.19      0.00
    6    8    2      0.43      0.00
    7    8    2      0.68      0.00
    8    8    2      0.53      0.00
    9    8    2     -0.91      0.00
   10    8    2     -1.80      0.00
   11    8    2     -1.00      0.00
   12    8    2      0.37      0.00
   13    8    2      0.63      0.00
   14    8    2     -0.44      0.00
   15    8    2     -1.95      0.00
   16    8    2     -2.49      0.00
   17    8    2     -1.06      0.00
   18    8    2      0.98      0.00
  -18    9    2      2.87      0.00
  -17    9    2      3.44      0.00
  -16    9    2      2.59      0.00
  -15    9    2      0.87      0.00
  -14    9    2     -1.30      0.00
  -13    9    2     -2.90      0.00
  -12    9    2     -2.69      0.00
  -11    9    2     -1.60      0.00
  -10    9    2     -2.28      0.00
   -9    9    2     -4.71      0.00
   -8    9    2     -4.66      0.00
   -7    9    2      0.00      0.00
   -6    9    2      4.24      0.00
   -5    9    2      2.53      0.00
   -4    9    2     -2.66      0.00
   -3    9    2     -4.78      0.00
   -2    9    2     -2.81      0.00
   -1    9    2     -1.40      0.00
    0    9    2     -3.10      0.00
    1    9    2     -4.65      0.00
    2    9    2     -1.73      0.00
    3    9    2      3.96      0.00
    4    9    2      6.10      0.00
    5    9    2      3.13      0.00
    6    9    2      0.58      0.00
    7    9    2      1.94      0.00
    8    9    2      3.87      0.00
    9    9    2      2.58      0.00
   10    9    2     -0.28      0.00
   11    9    2     -1.03      0.00
   12    9    2      0.35      0.00
   13    9    2      0.92      0.00
   14    9    2      0.15      0.00
   15    9    2      0.50      0.00
   16    9    2      2.22      0.00
   17    9    2      2.73      0.00
  -17   10    2      0.02      0.00
  -15   10    2      2.75      0.00
  -14   10    2      2.20      0.00
  -13   10    2     -0.14      0.00
  -12   10    2     -2.40      0.00
  -11   10    2     -2.95      0.00
  -10   10    2     -1.77      0.00
   -9   10    2     -0.62      0.00
   -8   10    2     -0.76      0.00
   -7   10    2     -1.04      0.00
   -6   10    2     -0.12      0.00
   -5   10    2      1.18      0.00
   -4   10    2      1.65      0.00
   -3   10    2      1.56      0.00
   -2   10    2      1.44      0.00
   -1   10    2      1.21      0.00
    0   10    2      1.17      0.00
    1   10    2      2.16      0.00
    2   10    2      4.34      0.00
    3   10    2      6.12      0.00
    4   10    2      5.10      0.00
    5   10    2      1.38      0.00
    6   10    2     -1.51      0.00
    7   10    2     -0.75      0.00
    8   10    2      2.37      0.00
    9   10    2      4.68      0.00
   10   10    2      4.66      0.00
   11   10    2      3.18      0.00
   12   10    2      2.01      0.00
   13   10    2      1.24      0.00
   14   10    2     -0.75      0.00
   15   10    2     -3.74      0.00
   17   10    2     -2.70      0.00
  -16   11    2      0.77      0.00
  -15   11    2      0.21      0.00
  -14   11    2     -0.52      0.00
  -13   11    2     -1.03      0.00
  -12   11    2     -0.01      0.00
  -11   11    2      1.73      0.00
  -10   11    2      1.77      0.00
   -9   11    2      0.25      0.00
   -8   11    2     -0.23      0.00
   -7   11    2      0.97      0.00
   -6   11    2      1.11      0.00
   -5   11    2     -1.49      0.00
   -4   11    2     -4.17      0.00
   -3   11    2     -3.41      0.00
   -2   11    2     -0.01      0.00
   -1   11    2      1.98      0.00
    0   11    2      0.65      0.00
    1   11    2     -1.68      0.00
    2   11    2     -1.50      0.00
    3   11    2      1.54      0.00
    4   11    2      3.68      0.00
    5   11    2      2.08      0.00
    6   11    2     -0.60      0.00
    7   11    2     -0.45      0.00
    8   11    2      1.35      0.00
    9   11    2      1.39      0.00
   10   11    2      0.09      0.00
   11   11    2     -0.30      0.00
   12   11    2      0.11      0.00
   13   11    2      0.88      0.00
   14   11    2      3.13      0.00
   15   11    2      6.05      0.00
   16   11    2      6.31      0.00
  -16   12    2     -0.72      0.00
  -15   12    2      0.25      0.00
  -14   12    2      2.61      0.00
  -13   12    2      3.71      0.00
  -12   12    2      2.42      0.00
  -11   12    2      0.98      0.00
  -10   12    2      0.89      0.00
   -9   12    2      0.56      0.00
   -8   12    2     -1.23      0.00
   -7   12    2     -2.49      0.00
   -6   12    2     -1.26      0.00
   -5   12    2      0.91      0.00
   -4   12    2      1.20      0.00
   -3   12    2     -0.03      0.00
   -2   12    2      0.03      0.00
   -1   12    2      1.98      0.00
    0   12    2      2.99      0.00
    1   12    2      1.10      0.00
    2   12    2     -1.67      0.00
    3   12    2     -2.05      0.00
    4   12    2      0.19      0.00
    5   12    2      2.04      0.00
    6   12    2      1.31      0.00
    7   12    2     -0.54      0.00
    8   12    2     -0.68      0.00
    9   12    2      0.48      0.00
   10   12    2     -0.10      0.00
   11   12    2     -2.81      0.00
   12   12    2     -4.74      0.00
   13   12    2     -4.66      0.00
   14   12    2     -3.83      0.00
   15   12    2     -2.54      0.00
  -15   13    2      1.32      0.00
  -14   13    2     -0.44      0.00
  -13   13    2     -1.67      0.00
  -12   13    2     -1.17      0.00
  -11   13    2      0.21      0.00
  -10   13    2      0.78      0.00
   -9   13    2      0.40      0.00
   -8   13    2      0.45      0.00
   -7   13    2      1.09      0.00
   -6   13    2      0.75      0.00
   -5   13    2     -0.93      0.00
   -4   13    2     -2.23      0.00
   -3   13    2     -2.38      0.00
   -2   13    2     -2.24      0.00
   -1   13    2     -1.73      0.00
    0   13    2     -0.63      0.00
    1   13    2     -0.50      0.00
    2   13    2     -1.66      0.00
    3   13    2     -1.49      0.00
    4   13    2      0.59      0.00
    5   13    2      1.66      0.00
    6   13    2      0.95      0.00
    7   13    2      0.69      0.00
    8   13    2      1.24      0.00
    9   13    2      1.21      0.00
   10   13    2      0.46      0.00
   11   13    2     -0.37      0.00
   12   13    2     -0.65      0.00
   13   13    2      0.48      0.00
   14   13    2      2.40      0.00
  -14   14    2      0.72      0.00
  -13   14    2      1.12      0.00
  -12   14    2      0.23      0.00
  -11   14    2     -0.14      0.00
  -10   14    2      1.03      0.00
   -9   14    2      1.42      0.00
   -8   14    2     -0.17      0.00
   -7   14    2     -0.97      0.00
   -6   14    2      0.80      0.00
   -5   14    2      2.67      0.00
   -4   14    2      2.53      0.00
   -3   14    2      1.71      0.00
   -2   14    2      1.42      0.00
   -1   14    2      0.83      0.00
    0   14    2     -0.33      0.00
    1   14    2     -1.33      0.00
    2   14    2     -2.34      0.00
    3   14    2     -3.19      0.00
    4   14    2     -2.30      0.00
    5   14    2      0.05      0.00
    6   14    2      1.06      0.00
    7   14    2      0.20      0.00
    8   14    2     -0.27      0.00
    9   14    2      0.16      0.00
   10   14    2      0.30      0.00
   11   14    2      0.51      0.00
   12   14    2      1.61      0.00
   13   14    2      2.59      0.00
  -13   15    2      0.88      0.00
  -12   15    2      1.11      0.00
  -11   15    2     -0.26      0.00
  -10   15    2     -1.82      0.00
   -9   15    2     -1.64      0.00
   -8   15    2     -0.44      0.00
   -7   15    2      0.13      0.00
   -6   15    2      0.02      0.00
   -5   15    2      0.01      0.00
   -4   15    2      0.14      0.00
   -3   15    2     -0.22      0.00
   -2   15    2     -1.16      0.00
   -1   15    2     -1.80      0.00
    0   15    2     -1.56      0.00
    1   15    2     -1.10      0.00
    2   15    2     -0.96      0.00
    3   15    2     -0.61      0.00
    4   15    2      0.22      0.00
    5   15    2      0.94      0.00
    6   15    2      1.13      0.00
    7   15    2      0.89      0.00
    8   15    2      0.48      0.00
    9   15    2      0.19      0.00
   10   15    2      0.00      0.00
   11   15    2     -0.36      0.00
  -11   16    2     -2.52      0.00
  -10   16    2     -1.93      0.00
   -9   16    2     -1.87      0.00
   -8   16    2     -2.49      0.00
   -7   16    2     -2.57      0.00
   -6   16    2     -2.00      0.00
   -5   16    2     -1.62      0.00
   -4   16    2     -1.25      0.00
   -3   16    2     -0.34      0.00
   -2   16    2      0.43      0.00
   -1   16    2      0.34      0.00
    0   16    2      0.26      0.00
    1   16    2      0.84      0.00
    2   16    2      0.88      0.00
    3   16    2     -0.36      0.00
    4   16    2     -1.31      0.00
    5   16    2     -0.81      0.00
    6   16    2     -0.01      0.00
    7   16    2     -0.08      0.00
    8   16    2     -0.31      0.00
    9   16    2      0.24      0.00
   10   16    2      1.19      0.00
   11   16    2      1.60      0.00
  -10   17    2      0.06      0.00
   -9   17    2      0.20      0.00
   -8   17    2      0.12      0.00
   -7   17    2      0.30      0.00
   -6   17    2      1.42      0.00
   -5   17    2      2.23      0.00
   -4   17    2      1.55      0.00
   -3   17    2      0.55      0.00
   -2   17    2      0.48      0.00
   -1   17    2      0.71      0.00
    0   17    2      0.61      0.00
    1   17    2      1.14      0.00
    2   17    2      2.86      0.00
    3   17    2      3.89      0.00
    4   17    2      2.21      0.00
    5   17    2     -0.87      0.00
    6   17    2     -2.40      0.00
    7   17    2     -2.02      0.00
    8   17    2     -1.20      0.00
    9   17    2     -0.40      0.00
   -8   18    2      1.22      0.00
   -7   18    2      1.43      0.00
   -6   18    2      1.28      0.00
   -5   18    2      0.84      0.00
   -4   18    2      0.36      0.00
   -3   18    2      0.37      0.00
   -2   18    2      0.53      0.00
   -1   18    2     -0.17      0.00
    0   18    2     -1.31      0.00
    1   18    2     -1.33      0.00
    2   18    2     -0.07      0.00
    4   18    2     -0.02      0.00
    5   18    2     -1.55      0.00
    6   18    2     -2.18      0.00
    7   18    2     -1.84      0.00
   -4   19    2      2.08      0.00
   -2   19    2      0.71      0.00
   -1   19    2      0.56      0.00
    0   19    2      0.78      0.00
    1   19    2      1.65      0.00
    2   19    2      3.35      0.00
    3   19    2      4.60      0.00
  -20    1    3      1.85      0.00
  -19    1    3      2.06      0.00
  -18    1    3      1.04      0.00
  -17    1    3     -0.43      0.00
  -16    1    3     -0.17      0.00
  -15    1    3      1.66      0.00
  -14    1    3      1.46      0.00
  -13    1    3     -1.96      0.00
  -12    1    3     -3.88      0.00
  -11    1    3     -0.68      0.00
  -10    1    3      3.93      0.00
   -9    1    3      4.67      0.00
   -8    1    3      3.08      0.00
   -7    1    3      7.37      0.00
   -6    1    3     20.73      0.00
   -5    1    3     25.45      0.00
   -4    1    3     -6.74      0.00
   -3    1    3    -67.24      0.00
   -2    1    3    -96.84      0.00
    1    1    3     19.18      0.00
    2    1    3     -7.08      0.00
    3    1    3    -23.72      0.00
    4    1    3    -11.54      0.00
    5    1    3      4.05      0.00
    6    1    3      4.54      0.00
    7    1    3     -1.28      0.00
    8    1    3     -0.79      0.00
    9    1    3      5.28      0.00
   10    1    3      8.97      0.00
   11    1    3      6.61      0.00
   12    1    3      1.65      0.00
   13    1    3     -0.95      0.00
   14    1    3     -0.51      0.00
   15    1    3      0.23      0.00
   16    1    3     -0.43      0.00
   17    1    3     -1.53      0.00
   18    1    3     -1.79      0.00
   19    1    3     -1.43      0.00
  -20    2    3     -0.51      0.00
  -19    2    3      1.54      0.00
  -18    2    3      2.86      0.00
  -17    2    3      2.43      0.00
  -16    2    3      0.62      0.00
  -15    2    3     -0.66      0.00
  -14    2    3     -0.51      0.00
  -13    2    3     -2.08      0.00
  -12    2    3     -7.63      0.00
  -11    2    3    -11.78      0.00
  -10    2    3     -7.25      0.00
   -9    2    3      3.67      0.00
   -8    2    3      9.79      0.00
   -7    2    3      4.74      0.00
   -6    2    3     -2.68      0.00
   -5    2    3     -0.25      0.00
   -4    2    3      2.65      0.00
   -3    2    3    -16.00      0.00
   -2    2    3    -44.36      0.00
   -1    2    3    -35.41      0.00
    0    2    3     21.82      0.00
    1    2    3     70.90      0.00
    2    2    3     60.17      0.00
    3    2    3      8.20      0.00
    4    2    3    -31.53      0.00
    5    2    3    -36.84      0.00
    6    2    3    -23.34      0.00
    7    2    3    -10.98      0.00
    8    2    3     -5.17      0.00
    9    2    3     -1.38      0.00
   10    2    3      3.66      0.00
   11    2    3      7.27      0.00
   12    2    3      6.06      0.00
   13    2    3      2.16      0.00
   14    2    3      0.62      0.00
   15    2    3      2.35      0.00
   16    2    3      3.21      0.00
   17    2    3      0.48      0.00
   18    2    3     -3.01      0.00
   19    2    3     -3.51      0.00
  -20    3    3     -2.43      0.00
  -19    3    3     -2.11      0.00
  -18    3    3     -2.00      0.00
  -17    3    3     -1.49      0.00
  -16    3    3      0.40      0.00
  -15    3    3      1.56      0.00
  -14    3    3      0.25      0.00
  -13    3    3     -1.68      0.00
  -12    3    3     -2.20      0.00
  -11    3    3     -1.34      0.00
  -10    3    3     -0.14      0.00
   -9    3    3     -0.31      0.00
   -8    3    3     -2.40      0.00
   -7    3    3     -4.61      0.00
   -6    3    3     -5.42      0.00
   -5    3    3     -4.16      0.00
   -4    3    3      0.32      0.00
   -3    3    3      6.28      0.00
   -2    3    3      9.19      0.00
   -1    3    3      9.25      0.00
    0    3    3     10.46      0.00
    1    3    3     12.47      0.00
    2    3    3     13.24      0.00
    3    3    3     15.06      0.00
    4    3    3     18.91      0.00
    5    3    3     20.77      0.00
    6    3    3     18.39      0.00
    7    3    3     13.31      0.00
    8    3    3      6.85      0.00
    9    3    3      0.97      0.00
   10    3    3     -1.50      0.00
   11    3    3     -1.19      0.00
   12    3    3     -1.13      0.00
   13    3    3     -1.77      0.00
   14    3    3     -1.74      0.00
   15    3    3     -0.56      0.00
   16    3    3      1.26      0.00
   17    3    3      2.12      0.00
   18    3    3      0.55      0.00
   19    3    3     -1.98      0.00
  -20    4    3     -1.79      0.00
  -19    4    3     -0.47      0.00
  -18    4    3      0.52      0.00
  -17    4    3     -0.96      0.00
  -16    4    3     -2.64      0.00
  -15    4    3     -1.35      0.00
  -14    4    3      1.17      0.00
  -13    4    3      0.46      0.00
  -12    4    3     -4.03      0.00
  -11    4    3     -7.47      0.00
  -10    4    3     -5.28      0.00
   -9    4    3     -0.09      0.00
   -8    4    3      0.10      0.00
   -7    4    3     -5.99      0.00
   -6    4    3     -7.55      0.00
   -5    4    3      4.43      0.00
   -4    4    3     20.87      0.00
   -3    4    3     21.63      0.00
   -2    4    3      2.19      0.00
   -1    4    3    -15.07      0.00
    0    4    3     -7.90      0.00
    1    4    3     13.40      0.00
    2    4    3     19.43      0.00
    3    4    3      4.34      0.00
    4    4    3     -9.12      0.00
    5    4    3     -6.27      0.00
    6    4    3      3.07      0.00
    7    4    3      6.26      0.00
    8    4    3      4.12      0.00
    9    4    3      3.10      0.00
   10    4    3      4.96      0.00
   11    4    3      6.55      0.00
   12    4    3      4.62      0.00
   13    4    3      0.02      0.00
   14    4    3     -3.47      0.00
   15    4    3     -4.04      0.00
   16    4    3     -2.73      0.00
   17    4    3     -0.79      0.00
   18    4    3      0.73      0.00
   19    4    3      0.84      0.00
  -19    5    3     -1.17      0.00
  -18    5    3     -0.59      0.00
  -17    5    3     -0.30      0.00
  -16    5    3     -0.37      0.00
  -15    5    3     -0.93      0.00
  -14    5    3     -1.17      0.00
  -13    5    3      0.50      0.00
  -12    5    3      3.14      0.00
  -11    5    3      3.68      0.00
  -10    5    3      1.97      0.00
   -9    5    3      0.87      0.00
   -8    5    3     -0.05      0.00
   -7    5    3     -5.80      0.00
   -6    5    3    -16.68      0.00
   -5    5    3    -22.09      0.00
   -4    5    3    -11.49      0.00
   -3    5    3      8.81      0.00
   -2    5    3     18.96      0.00
   -1    5    3      9.45      0.00
    0    5    3     -6.55      0.00
    1    5    3    -10.81      0.00
    2    5    3     -3.58      0.00
    3    5    3      0.52      0.00
    4    5    3     -3.87      0.00
    5    5    3     -6.89      0.00
    6    5    3     -2.20      0.00
    7    5    3      2.82      0.00
    8    5    3      0.47      0.00
    9    5    3     -5.61      0.00
   10    5    3     -7.74      0.00
   11    5    3     -4.90      0.00
   12    5    3     -1.87      0.00
   13    5    3     -1.76      0.00
   14    5    3     -2.63      0.00
   15    5    3     -1.22      0.00
   16    5    3      1.82      0.00
   17    5    3      3.29      0.00
   18    5    3      2.62      0.00
   19    5    3      1.53      0.00
  -19    6    3      1.31      0.00
  -18    6    3     -0.48      0.00
  -17    6    3     -1.79      0.00
  -16    6    3      0.35      0.00
  -15    6    3      3.90      0.00
  -14    6    3      3.79      0.00
  -13    6    3      0.03      0.00
  -12    6    3     -2.82      0.00
  -11    6    3     -3.29      0.00
  -10    6    3     -3.57      0.00
   -9    6    3     -4.62      0.00
   -8    6    3     -5.74      0.00
   -7    6    3     -6.14      0.00
   -6    6    3     -4.87      0.00
   -5    6    3     -2.06      0.00
   -4    6    3     -0.19      0.00
   -3    6    3     -1.79      0.00
   -2    6    3     -6.13      0.00
   -1    6    3     -9.46      0.00
    0    6    3     -8.91      0.00
    1    6    3     -5.64      0.00
    2    6    3     -2.86      0.00
    3    6    3     -1.31      0.00
    4    6    3      0.48      0.00
    5    6    3      2.93      0.00
    6    6    3      4.97      0.00
    7    6    3      5.19      0.00
    8    6    3      2.59      0.00
    9    6    3     -1.40      0.00
   10    6    3     -3.18      0.00
   11    6    3     -1.59      0.00
   12    6    3      0.59      0.00
   13    6    3      0.95      0.00
   14    6    3     -0.03      0.00
   15    6    3     -0.72      0.00
   16    6    3     -0.29      0.00
   17    6    3      0.63      0.00
   18    6    3      0.83      0.00
  -19    7    3      0.51      0.00
  -18    7    3      0.97      0.00
  -17    7    3     -0.59      0.00
  -16    7    3     -2.10      0.00
  -15    7    3     -1.08      0.00
  -14    7    3      1.47      0.00
  -13    7    3      2.75      0.00
  -12    7    3      1.78      0.00
  -11    7    3     -0.93      0.00
  -10    7    3     -3.75      0.00
   -9    7    3     -3.49      0.00
   -8    7    3      0.05      0.00
   -7    7    3      0.79      0.00
   -6    7    3     -5.11      0.00
   -5    7    3    -10.74      0.00
   -4    7    3     -7.49      0.00
   -3    7    3      1.72      0.00
   -2    7    3      6.39      0.00
   -1    7    3      2.90      0.00
    0    7    3     -1.12      0.00
    1    7    3      2.48      0.00
    2    7    3     10.71      0.00
    3    7    3     13.17      0.00
    4    7    3      7.14      0.00
    5    7    3      1.04      0.00
    6    7    3      1.21      0.00
    7    7    3      4.03      0.00
    8    7    3      3.71      0.00
    9    7    3      0.52      0.00
   10    7    3     -1.15      0.00
   11    7    3      0.43      0.00
   12    7    3      1.85      0.00
   13    7    3     -0.34      0.00
   14    7    3     -4.37      0.00
   15    7    3     -6.42      0.00
   16    7    3     -6.09      0.00
   17    7    3     -4.76      0.00
   18    7    3     -2.81      0.00
  -18    8    3     -2.00      0.00
  -17    8    3     -1.85      0.00
  -16    8    3     -0.90      0.00
  -15    8    3     -0.17      0.00
  -14    8    3     -0.73      0.00
  -13    8    3     -1.55      0.00
  -12    8    3     -0.19      0.00
  -11    8    3      2.76      0.00
  -10    8    3      3.07      0.00
   -9    8    3     -0.24      0.00
   -8    8    3     -1.94      0.00
   -7    8    3      0.90      0.00
   -6    8    3      3.19      0.00
   -5    8    3      0.19      0.00
   -4    8    3     -4.68      0.00
   -3    8    3     -6.00      0.00
   -2    8    3     -4.01      0.00
   -1    8    3     -2.36      0.00
    0    8    3     -2.56      0.00
    1    8    3     -2.41      0.00
    2    8    3      0.87      0.00
    3    8    3      5.42      0.00
    4    8    3      5.66      0.00
    5    8    3      0.89      0.00
    6    8    3     -2.88      0.00
    7    8    3     -2.31      0.00
    8    8    3     -0.75      0.00
    9    8    3     -1.35      0.00
   10    8    3     -2.52      0.00
   11    8    3     -1.53      0.00
   12    8    3      1.02      0.00
   13    8    3      2.02      0.00
   14    8    3      0.47      0.00
   15    8    3     -0.80      0.00
   16    8    3     -0.06      0.00
   17    8    3      0.54      0.00
  -18    9    3     -1.43      0.00
  -17    9    3     -1.77      0.00
  -16    9    3     -0.41      0.00
  -15    9    3      1.53      0.00
  -14    9    3      2.18      0.00
  -13    9    3      0.88      0.00
  -12    9    3     -1.94      0.00
  -11    9    3     -4.72      0.00
  -10    9    3     -5.67      0.00
   -9    9    3     -4.70      0.00
   -8    9    3     -2.89      0.00
   -7    9    3     -0.90      0.00
   -6    9    3      0.50      0.00
   -5    9    3      0.66      0.00
   -4    9    3      0.59      0.00
   -3    9    3      1.08      0.00
   -2    9    3      0.44      0.00
   -1    9    3     -2.32      0.00
    0    9    3     -4.16      0.00
    1    9    3     -1.72      0.00
    2    9    3      3.48      0.00
    3    9    3      6.22      0.00
    4    9    3      3.36      0.00
    5    9    3     -2.64      0.00
    6    9    3     -6.35      0.00
    7    9    3     -5.59      0.00
    8    9    3     -2.95      0.00
    9    9    3     -1.40      0.00
   10    9    3     -1.23      0.00
   11    9    3     -1.28      0.00
   12    9    3     -0.65      0.00
   13    9    3      0.23      0.00
   14    9    3     -0.69      0.00
   15    9    3     -4.16      0.00
   16    9    3     -6.89      0.00
   17    9    3     -5.58      0.00
  -17   10    3     -0.08      0.00
  -15   10    3      0.39      0.00
  -14   10    3      0.48      0.00
  -13   10    3      0.35      0.00
  -12   10    3      1.03      0.00
  -11   10    3      1.87      0.00
  -10   10    3      0.81      0.00
   -9   10    3     -1.86      0.00
   -8   10    3     -2.92      0.00
   -7   10    3     -1.00      0.00
   -6   10    3      0.64      0.00
   -5   10    3     -1.50      0.00
   -4   10    3     -5.46      0.00
   -3   10    3     -5.97      0.00
   -2   10    3     -2.06      0.00
   -1   10    3      1.50      0.00
    0   10    3      0.99      0.00
    1   10    3     -1.21      0.00
    2   10    3     -0.37      0.00
    3   10    3      3.35      0.00
    4   10    3      4.63      0.00
    5   10    3      0.86      0.00
    6   10    3     -3.42      0.00
    7   10    3     -3.35      0.00
    8   10    3     -0.86      0.00
    9   10    3     -0.55      0.00
   10   10    3     -1.91      0.00
   11   10    3     -1.50      0.00
   12   10    3      0.43      0.00
   13   10    3      1.26      0.00
   14   10    3      1.51      0.00
   15   10    3      3.01      0.00
  -17   11    3     -3.24      0.00
  -16   11    3     -3.04      0.00
  -15   11    3     -0.99      0.00
  -14   11    3      0.91      0.00
  -13   11    3      0.96      0.00
  -12   11    3     -0.34      0.00
  -11   11    3     -1.05      0.00
  -10   11    3     -0.68      0.00
   -9   11    3     -0.82      0.00
   -8   11    3     -2.19      0.00
   -7   11    3     -2.94      0.00
   -6   11    3     -1.53      0.00
   -5   11    3      0.56      0.00
   -4   11    3      1.06      0.00
   -3   11    3      0.30      0.00
   -2   11    3      0.46      0.00
   -1   11    3      1.91      0.00
    0   11    3      2.40      0.00
    1   11    3      0.69      0.00
    2   11    3     -1.00      0.00
    3   11    3     -0.53      0.00
    4   11    3      0.61      0.00
    5   11    3     -0.09      0.00
    6   11    3     -2.29      0.00
    7   11    3     -3.51      0.00
    8   11    3     -2.28      0.00
    9   11    3      0.25      0.00
   10   11    3      1.46      0.00
   11   11    3      0.72      0.00
   12   11    3     -0.18      0.00
   13   11    3     -0.75      0.00
   14   11    3     -2.24      0.00
   15   11    3     -3.72      0.00
   16   11    3     -3.00      0.00
  -16   12    3      0.69      0.00
  -15   12    3      1.07      0.00
  -14   12    3     -0.19      0.00
  -13   12    3     -2.20      0.00
  -12   12    3     -2.11      0.00
  -11   12    3      0.18      0.00
  -10   12    3      1.68      0.00
   -9   12    3      1.16      0.00
   -8   12    3      0.60      0.00
   -7   12    3      1.07      0.00
   -6   12    3      0.68      0.00
   -5   12    3     -1.87      0.00
   -4   12    3     -4.44      0.00
   -3   12    3     -4.58      0.00
   -2   12    3     -2.88      0.00
   -1   12    3     -1.04      0.00
    0   12    3      0.16      0.00
    1   12    3      0.29      0.00
    2   12    3      0.10      0.00
    3   12    3      1.38      0.00
    4   12    3      3.05      0.00
    5   12    3      1.94      0.00
    6   12    3     -0.91      0.00
    7   12    3     -1.40      0.00
    8   12    3      0.53      0.00
    9   12    3      1.80      0.00
   10   12    3      1.50      0.00
   11   12    3      0.31      0.00
   12   12    3     -1.28      0.00
   13   12    3     -1.78      0.00
   14   12    3     -0.13      0.00
   15   12    3      1.85      0.00
  -15   13    3      1.28      0.00
  -14   13    3      3.18      0.00
  -13   13    3      4.59      0.00
  -12   13    3      3.56      0.00
  -11   13    3      1.58      0.00
  -10   13    3      0.62      0.00
   -9   13    3     -0.29      0.00
   -8   13    3     -2.23      0.00
   -7   13    3     -3.16      0.00
   -6   13    3     -1.30      0.00
   -5   13    3      1.19      0.00
   -4   13    3      1.55      0.00
   -3   13    3      0.72      0.00
   -2   13    3      1.09      0.00
   -1   13    3      2.30      0.00
    0   13    3      2.38      0.00
    1   13    3      0.85      0.00
    2   13    3     -1.19      0.00
    3   13    3     -2.06      0.00
    4   13    3     -0.59      0.00
    5   13    3      1.95      0.00
    6   13    3      2.60      0.00
    7   13    3      1.01      0.00
    8   13    3     -0.20      0.00
    9   13    3     -0.10      0.00
   10   13    3     -0.52      0.00
   11   13    3     -2.17      0.00
   12   13    3     -3.61      0.00
   13   13    3     -3.88      0.00
   14   13    3     -3.02      0.00
  -14   14    3     -0.05      0.00
  -13   14    3     -0.08      0.00
  -12   14    3      0.42      0.00
  -11   14    3      0.15      0.00
  -10   14    3     -1.10      0.00
   -9   14    3     -1.84      0.00
   -8   14    3     -1.44      0.00
   -7   14    3     -0.94      0.00
   -6   14    3     -1.17      0.00
   -5   14    3     -1.47      0.00
   -4   14    3     -1.20      0.00
   -3   14    3     -0.99      0.00
   -2   14    3     -1.24      0.00
   -1   14    3     -0.67      0.00
    0   14    3      1.05      0.00
    1   14    3      1.62      0.00
    2   14    3      0.01      0.00
    3   14    3     -1.20      0.00
    4   14    3     -0.41      0.00
    5   14    3      0.46      0.00
    6   14    3     -0.02      0.00
    7   14    3     -0.87      0.00
    8   14    3     -1.38      0.00
    9   14    3     -1.63      0.00
   10   14    3     -1.44      0.00
   11   14    3     -0.91      0.00
   12   14    3     -0.31      0.00
   13   14    3      0.56      0.00
  -13   15    3     -1.83      0.00
  -12   15    3     -3.95      0.00
  -11   15    3     -4.29      0.00
  -10   15    3     -2.40      0.00
   -9   15    3     -0.85      0.00
   -8   15    3     -0.90      0.00
   -7   15    3     -0.84      0.00
   -6   15    3      0.28      0.00
   -5   15    3      0.95      0.00
   -4   15    3      0.47      0.00
   -3   15    3      0.09      0.00
   -2   15    3      0.18      0.00
   -1   15    3     -0.09      0.00
    0   15    3     -0.50      0.00
    1   15    3     -0.51      0.00
    2   15    3     -1.12      0.00
    3   15    3     -2.52      0.00
    4   15    3     -2.67      0.00
    5   15    3     -0.89      0.00
    6   15    3      0.53      0.00
    7   15    3      0.28      0.00
    8   15    3     -0.54      0.00
    9   15    3     -1.07      0.00
   10   15    3     -1.12      0.00
   11   15    3     -0.29      0.00
  -11   16    3      0.98      0.00
  -10   16    3      0.33      0.00
   -9   16    3      0.30      0.00
   -8   16    3      0.42      0.00
   -7   16    3      0.41      0.00
   -6   16    3      0.86      0.00
   -5   16    3      1.45      0.00
   -4   16    3      1.30      0.00
   -3   16    3      0.66      0.00
   -2   16    3      0.20      0.00
   -1   16    3     -0.15      0.00
    0   16    3     -0.49      0.00
    1   16    3     -0.34      0.00
    2   16    3      0.47      0.00
    3   16    3      1.11      0.00
    4   16    3      0.90      0.00
    5   16    3      0.40      0.00
    6   16    3      0.42      0.00
    7   16    3      0.85      0.00
    8   16    3      1.29      0.00
    9   16    3      1.71      0.00
   10   16    3      1.92      0.00
   11   16    3      1.63      0.00
  -10   17    3     -2.69      0.00
   -9   17    3     -2.73      0.00
   -8   17    3     -2.50      0.00
   -7   17    3     -2.25      0.00
   -6   17    3     -2.18      0.00
   -5   17    3     -2.20      0.00
   -4   17    3     -1.97      0.00
   -3   17    3     -1.38      0.00
   -2   17    3     -0.94      0.00
   -1   17    3     -1.14      0.00
    0   17    3     -1.40      0.00
    1   17    3     -0.74      0.00
    2   17    3      0.52      0.00
    3   17    3      1.01      0.00
    4   17    3      0.22      0.00
    5   17    3     -0.85      0.00
    6   17    3     -1.34      0.00
    7   17    3     -1.59      0.00
    8   17    3     -1.99      0.00
    9   17    3     -1.96      0.00
   -8   18    3      0.94      0.00
   -7   18    3      0.92      0.00
   -6   18    3      1.33      0.00
   -5   18    3      2.16      0.00
   -4   18    3      2.62      0.00
   -3   18    3      2.48      0.00
   -2   18    3      2.07      0.00
   -1   18    3      1.63      0.00
    0   18    3      1.33      0.00
    1   18    3      1.80      0.00
    2   18    3      3.39      0.00
    3   18    3      4.62      0.00
    4   18    3      3.29      0.00
    5   18    3     -0.06      0.00
    6   18    3     -2.24      0.00
    7   18    3     -2.08      0.00
   -4   19    3      1.56      0.00
   -3   19    3      1.09      0.00
   -2   19    3      1.38      0.00
   -1   19    3      0.91      0.00
    0   19    3     -0.86      0.00
    1   19    3     -2.04      0.00
    2   19    3     -1.20      0.00
    3   19    3      0.50      0.00
    4   19    3      1.08      0.00
  -20    0    4      1.22      0.00
  -19    0    4      0.88      0.00
  -18    0    4     -0.02      0.00
  -17    0    4     -1.94      0.00
  -16    0    4     -2.82      0.00
  -15    0    4     -1.05      0.00
  -13    0    4     -1.59      0.00
  -12    0    4     -1.79      0.00
  -11    0    4      3.11      0.00
  -10    0    4      7.43      0.00
   -9    0    4      3.92      0.00
   -8    0    4     -4.60      0.00
   -7    0    4     -4.97      0.00
   -6    0    4     11.43      0.00
   -5    0    4     26.65      0.00
   -4    0    4      3.70      0.00
   -3    0    4    -59.00      0.00
   -2    0    4   -103.47      0.00
    1    0    4     -2.84      0.00
    2    0    4     -9.72      0.00
    3    0    4     -9.16      0.00
    4    0    4     11.50      0.00
    5    0    4     27.50      0.00
    6    0    4     22.69      0.00
    7    0    4      8.72      0.00
    8    0    4      2.57      0.00
    9    0    4      6.09      0.00
   10    0    4      9.87      0.00
   11    0    4      8.07      0.00
   12    0    4      3.88      0.00
   13    0    4      2.16      0.00
   14    0    4      2.39      0.00
   15    0    4      1.27      0.00
   16    0    4     -1.37      0.00
   17    0    4     -2.47      0.00
   18    0    4     -0.72      0.00
   19    0    4      1.57      0.00
  -20    1    4      2.27      0.00
  -19    1    4      2.65      0.00
  -18    1    4      2.50      0.00
  -17    1    4      1.97      0.00
  -16    1    4      0.68      0.00
  -15    1    4     -0.67      0.00
  -14    1    4     -0.83      0.00
  -13    1    4     -1.33      0.00
  -12    1    4     -4.32      0.00
  -11    1    4     -7.36      0.00
  -10    1    4     -5.30      0.00
   -9    1    4      2.75      0.00
   -8    1    4     11.33      0.00
   -7    1    4     15.30      0.00
   -6    1    4     18.01      0.00
   -5    1    4     25.17      0.00
   -4    1    4     27.51      0.00
   -3    1    4      8.79      0.00
   -2    1    4    -18.91      0.00
   -1    1    4    -17.29      0.00
    0    1    4     23.32      0.00
    1    1    4     62.32      0.00
    2    1    4     61.43      0.00
    3    1    4     29.55      0.00
    4    1    4     -0.08      0.00
    5    1    4    -11.30      0.00
    6    1    4     -9.88      0.00
    7    1    4     -5.69      0.00
    8    1    4     -2.64      0.00
    9    1    4      0.07      0.00
   10    1    4      2.99      0.00
   11    1    4      4.38      0.00
   12    1    4      2.97      0.00
   13    1    4      0.64      0.00
   14    1    4      0.35      0.00
   15    1    4      2.05      0.00
   16    1    4      2.42      0.00
   17    1    4     -0.33      0.00
   18    1    4     -3.38      0.00
   19    1    4     -3.58      0.00
  -20    2    4     -0.25      0.00
  -19    2    4      0.07      0.00
  -18    2    4     -1.48      0.00
  -17    2    4     -3.35      0.00
  -16    2    4     -2.29      0.00
  -15    2    4      0.89      0.00
  -14    2    4      2.27      0.00
  -13    2    4      1.05      0.00
  -12    2    4      0.74      0.00
  -11    2    4      3.71      0.00
  -10    2    4      7.06      0.00
   -9    2    4      6.04      0.00
   -8    2    4      1.25      0.00
   -7    2    4     -0.70      0.00
   -6    2    4      3.93      0.00
   -5    2    4      7.75      0.00
   -4    2    4     -2.35      0.00
   -3    2    4    -25.68      0.00
   -2    2    4    -38.69      0.00
   -1    2    4    -21.08      0.00
    0    2    4     11.97      0.00
    1    2    4     26.76      0.00
    2    2    4     17.83      0.00
    3    2    4      9.23      0.00
    4    2    4     12.72      0.00
    5    2    4     16.11      0.00
    6    2    4     10.63      0.00
    7    2    4      2.33      0.00
    8    2    4     -2.10      0.00
    9    2    4     -2.58      0.00
   10    2    4     -1.31      0.00
   11    2    4     -0.35      0.00
   12    2    4     -0.54      0.00
   13    2    4     -0.74      0.00
   14    2    4     -0.03      0.00
   15    2    4      0.95      0.00
   16    2    4      1.68      0.00
   17    2    4      1.81      0.00
   18    2    4      0.71      0.00
   19    2    4     -0.89      0.00
  -20    3    4      0.46      0.00
  -19    3    4      2.52      0.00
  -18    3    4      4.55      0.00
  -17    3    4      4.23      0.00
  -16    3    4      2.03      0.00
  -15    3    4      1.10      0.00
  -14    3    4      2.09      0.00
  -13    3    4      0.81      0.00
  -12    3    4     -5.05      0.00
  -11    3    4     -9.74      0.00
  -10    3    4     -5.49      0.00
   -9    3    4      6.04      0.00
   -8    3    4     13.64      0.00
   -7    3    4     10.17      0.00
   -6    3    4      3.11      0.00
   -5    3    4      3.51      0.00
   -4    3    4      2.59      0.00
   -3    3    4    -23.01      0.00
   -2    3    4    -69.97      0.00
   -1    3    4    -94.83      0.00
    0    3    4    -67.18      0.00
    1    3    4    -15.77      0.00
    2    3    4      8.42      0.00
    3    3    4     -3.02      0.00
    4    3    4    -18.34      0.00
    5    3    4    -16.74      0.00
    6    3    4     -6.51      0.00
    7    3    4     -0.77      0.00
    8    3    4      0.01      0.00
    9    3    4      1.49      0.00
   10    3    4      5.39      0.00
   11    3    4      8.31      0.00
   12    3    4      6.86      0.00
   13    3    4      2.48      0.00
   14    3    4     -0.21      0.00
   15    3    4      0.17      0.00
   16    3    4      0.71      0.00
   17    3    4     -0.47      0.00
   18    3    4     -1.86      0.00
   19    3    4     -1.89      0.00
  -20    4    4     -2.36      0.00
  -19    4    4     -1.67      0.00
  -18    4    4     -1.05      0.00
  -17    4    4     -0.63      0.00
  -16    4    4     -0.12      0.00
  -15    4    4     -0.79      0.00
  -14    4    4     -2.35      0.00
  -13    4    4     -2.54      0.00
  -12    4    4     -1.66      0.00
  -11    4    4     -1.44      0.00
  -10    4    4     -0.98      0.00
   -9    4    4      1.29      0.00
   -8    4    4      3.78      0.00
   -7    4    4      2.61      0.00
   -6    4    4     -3.84      0.00
   -5    4    4     -9.27      0.00
   -4    4    4     -3.51      0.00
   -3    4    4     11.64      0.00
   -2    4    4     19.88      0.00
   -1    4    4     12.05      0.00
    0    4    4     -1.44      0.00
    1    4    4     -7.30      0.00
    2    4    4     -5.94      0.00
    3    4    4     -5.26      0.00
    4    4    4     -6.99      0.00
    5    4    4     -5.70      0.00
    6    4    4      1.21      0.00
    7    4    4      7.91      0.00
    8    4    4      7.94      0.00
    9    4    4      3.62      0.00
   10    4    4      1.24      0.00
   11    4    4      1.64      0.00
   12    4    4      1.68      0.00
   13    4    4      0.43      0.00
   14    4    4     -0.44      0.00
   15    4    4      0.40      0.00
   16    4    4      2.20      0.00
   17    4    4      2.51      0.00
   18    4    4      0.54      0.00
   19    4    4     -1.52      0.00
  -19    5    4     -0.03      0.00
  -18    5    4      0.18      0.00
  -17    5    4     -1.48      0.00
  -16    5    4     -2.11      0.00
  -15    5    4     -0.40      0.00
  -14    5    4      0.69      0.00
  -13    5    4     -0.77      0.00
  -12    5    4     -3.18      0.00
  -11    5    4     -4.14      0.00
  -10    5    4     -2.29      0.00
   -9    5    4      0.61      0.00
   -8    5    4     -0.35      0.00
   -7    5    4     -5.63      0.00
   -6    5    4     -7.87      0.00
   -5    5    4     -1.90      0.00
   -4    5    4      6.89      0.00
   -3    5    4      8.17      0.00
   -2    5    4     -1.63      0.00
   -1    5    4    -13.83      0.00
    0    5    4    -15.79      0.00
    1    5    4     -7.36      0.00
    2    5    4     -0.94      0.00
    3    5    4     -2.06      0.00
    4    5    4     -2.56      0.00
    5    5    4      3.24      0.00
    6    5    4      9.97      0.00
    7    5    4     11.20      0.00
    8    5    4      7.20      0.00
    9    5    4      2.42      0.00
   10    5    4      0.56      0.00
   11    5    4      1.25      0.00
   12    5    4      1.53      0.00
   13    5    4      0.67      0.00
   14    5    4      0.01      0.00
   15    5    4     -0.30      0.00
   16    5    4     -0.42      0.00
   17    5    4      0.17      0.00
   18    5    4      0.74      0.00
  -19    6    4     -0.05      0.00
  -18    6    4      1.48      0.00
  -17    6    4      1.24      0.00
  -16    6    4     -0.07      0.00
  -15    6    4     -0.60      0.00
  -14    6    4     -0.58      0.00
  -13    6    4     -0.79      0.00
  -12    6    4     -1.48      0.00
  -11    6    4     -3.49      0.00
  -10    6    4     -5.87      0.00
   -9    6    4     -4.53      0.00
   -8    6    4      0.53      0.00
   -7    6    4      1.69      0.00
   -6    6    4     -4.87      0.00
   -5    6    4    -10.05      0.00
   -4    6    4     -3.19      0.00
   -3    6    4     11.78      0.00
   -2    6    4     19.37      0.00
   -1    6    4     11.32      0.00
    0    6    4     -2.68      0.00
    1    6    4     -7.11      0.00
    2    6    4     -1.03      0.00
    3    6    4      2.66      0.00
    4    6    4     -1.27      0.00
    5    6    4     -3.50      0.00
    6    6    4      2.43      0.00
    7    6    4      9.87      0.00
    8    6    4     10.59      0.00
    9    6    4      5.71      0.00
   10    6    4      1.90      0.00
   11    6    4      2.30      0.00
   12    6    4      3.43      0.00
   13    6    4      0.95      0.00
   14    6    4     -3.47      0.00
   15    6    4     -5.02      0.00
   16    6    4     -3.41      0.00
   17    6    4     -1.60      0.00
   18    6    4     -0.44      0.00
  -19    7    4      0.60      0.00
  -18    7    4     -0.55      0.00
  -17    7    4     -1.04      0.00
  -16    7    4      1.06      0.00
  -15    7    4      3.92      0.00
  -14    7    4      3.37      0.00
  -13    7    4     -0.06      0.00
  -12    7    4     -1.20      0.00
  -11    7    4      1.13      0.00
  -10    7    4      2.11      0.00
   -9    7    4     -0.48      0.00
   -8    7    4     -2.85      0.00
   -7    7    4     -2.62      0.00
   -6    7    4     -2.52      0.00
   -5    7    4     -4.63      0.00
   -4    7    4     -6.76      0.00
   -3    7    4     -6.66      0.00
   -2    7    4     -5.13      0.00
   -1    7    4     -4.11      0.00
    0    7    4     -4.60      0.00
    1    7    4     -5.69      0.00
    2    7    4     -5.11      0.00
    3    7    4     -2.73      0.00
    4    7    4     -1.53      0.00
    5    7    4     -2.32      0.00
    6    7    4     -1.87      0.00
    7    7    4      0.58      0.00
    8    7    4      1.26      0.00
    9    7    4     -1.34      0.00
   10    7    4     -3.75      0.00
   11    7    4     -3.02      0.00
   12    7    4     -0.43      0.00
   13    7    4      0.86      0.00
   14    7    4     -0.06      0.00
   15    7    4     -0.99      0.00
   16    7    4     -0.35      0.00
   17    7    4      0.17      0.00
   18    7    4     -0.72      0.00
  -18    8    4     -2.91      0.00
  -17    8    4     -3.28      0.00
  -16    8    4     -2.38      0.00
  -15    8    4      0.31      0.00
  -14    8    4      2.97      0.00
  -13    8    4      3.37      0.00
  -12    8    4      1.03      0.00
  -11    8    4     -2.80      0.00
  -10    8    4     -5.86      0.00
   -9    8    4     -5.57      0.00
   -8    8    4     -1.58      0.00
   -7    8    4      2.64      0.00
   -6    8    4      3.36      0.00
   -5    8    4      1.95      0.00
   -4    8    4      2.70      0.00
   -3    8    4      5.35      0.00
   -2    8    4      4.45      0.00
   -1    8    4     -2.03      0.00
    0    8    4     -7.93      0.00
    1    8    4     -6.39      0.00
    2    8    4      0.72      0.00
    3    8    4      5.19      0.00
    4    8    4      3.02      0.00
    5    8    4     -1.48      0.00
    6    8    4     -2.49      0.00
    7    8    4     -0.06      0.00
    8    8    4      1.53      0.00
    9    8    4      0.42      0.00
   10    8    4     -1.07      0.00
   11    8    4     -0.95      0.00
   12    8    4     -0.09      0.00
   13    8    4      0.10      0.00
   14    8    4     -0.73      0.00
   15    8    4     -2.65      0.00
   16    8    4     -4.78      0.00
   17    8    4     -5.01      0.00
  -18    9    4     -0.80      0.00
  -17    9    4     -0.02      0.00
  -16    9    4      0.00      0.00
  -15    9    4     -0.09      0.00
  -14    9    4     -0.03      0.00
  -13    9    4      0.15      0.00
  -12    9    4      1.37      0.00
  -11    9    4      3.21      0.00
  -10    9    4      2.69      0.00
   -9    9    4     -0.75      0.00
   -8    9    4     -2.76      0.00
   -7    9    4     -0.87      0.00
   -6    9    4      0.56      0.00
   -5    9    4     -2.84      0.00
   -4    9    4     -8.16      0.00
   -3    9    4     -9.56      0.00
   -2    9    4     -6.50      0.00
   -1    9    4     -3.83      0.00
    0    9    4     -4.75      0.00
    1    9    4     -6.43      0.00
    2    9    4     -4.20      0.00
    3    9    4      0.98      0.00
    4    9    4      3.14      0.00
    5    9    4      0.17      0.00
    6    9    4     -2.96      0.00
    7    9    4     -1.82      0.00
    8    9    4      1.24      0.00
    9    9    4      1.66      0.00
   10    9    4     -0.15      0.00
   11    9    4     -0.26      0.00
   12    9    4      1.70      0.00
   13    9    4      2.24      0.00
   14    9    4      0.63      0.00
   15    9    4     -0.02      0.00
   16    9    4      1.08      0.00
   17    9    4      1.46      0.00
  -17   10    4     -2.83      0.00
  -16   10    4     -0.98      0.00
  -15   10    4      1.79      0.00
  -14   10    4      2.79      0.00
  -13   10    4      1.16      0.00
  -12   10    4     -1.90      0.00
  -11   10    4     -4.13      0.00
  -10   10    4     -4.42      0.00
   -9   10    4     -4.02      0.00
   -8   10    4     -3.64      0.00
   -7   10    4     -1.65      0.00
   -6   10    4      2.27      0.00
   -5   10    4      5.35      0.00
   -4   10    4      5.73      0.00
   -3   10    4      4.49      0.00
   -2   10    4      2.93      0.00
   -1   10    4      1.02      0.00
    0   10    4     -1.30      0.00
    1   10    4     -2.60      0.00
    2   10    4     -0.93      0.00
    3   10    4      2.84      0.00
    4   10    4      4.80      0.00
    5   10    4      3.04      0.00
    6   10    4      0.28      0.00
    7   10    4     -0.44      0.00
    8   10    4      0.87      0.00
    9   10    4      2.34      0.00
   10   10    4      2.46      0.00
   11   10    4      1.54      0.00
   12   10    4      1.46      0.00
   13   10    4      2.11      0.00
   14   10    4      0.64      0.00
   15   10    4     -3.25      0.00
   16   10    4     -5.63      0.00
  -17   11    4     -2.09      0.00
  -16   11    4     -1.24      0.00
  -15   11    4      0.70      0.00
  -14   11    4      1.02      0.00
  -13   11    4     -0.51      0.00
  -12   11    4     -1.16      0.00
  -11   11    4     -0.21      0.00
  -10   11    4     -0.03      0.00
   -9   11    4     -1.63      0.00
   -8   11    4     -2.90      0.00
   -7   11    4     -2.06      0.00
   -6   11    4     -0.70      0.00
   -5   11    4     -1.41      0.00
   -4   11    4     -3.35      0.00
   -3   11    4     -3.26      0.00
   -2   11    4     -0.60      0.00
   -1   11    4      1.69      0.00
    0   11    4      1.41      0.00
    1   11    4     -0.36      0.00
    2   11    4     -0.65      0.00
    3   11    4      1.57      0.00
    4   11    4      2.80      0.00
    5   11    4     -0.43      0.00
    6   11    4     -4.95      0.00
    7   11    4     -4.91      0.00
    8   11    4     -0.91      0.00
    9   11    4      1.82      0.00
   10   11    4      1.92      0.00
   11   11    4      1.61      0.00
   12   11    4      1.49      0.00
   13   11    4      1.18      0.00
   14   11    4      1.51      0.00
   15   11    4      2.57      0.00
   16   11    4      2.66      0.00
  -16   12    4     -3.01      0.00
  -15   12    4     -2.16      0.00
  -14   12    4      0.20      0.00
  -13   12    4      2.01      0.00
  -12   12    4      2.08      0.00
  -11   12    4      1.43      0.00
  -10   12    4      1.09      0.00
   -9   12    4      0.30      0.00
   -8   12    4     -1.56      0.00
   -7   12    4     -2.82      0.00
   -6   12    4     -1.82      0.00
   -5   12    4      0.06      0.00
   -4   12    4      0.31      0.00
   -3   12    4     -0.59      0.00
   -2   12    4      0.06      0.00
   -1   12    4      2.52      0.00
    0   12    4      3.82      0.00
    1   12    4      2.32      0.00
    2   12    4     -0.04      0.00
    3   12    4     -0.78      0.00
    4   12    4      0.09      0.00
    5   12    4      0.72      0.00
    6   12    4     -0.29      0.00
    7   12    4     -2.22      0.00
    8   12    4     -2.67      0.00
    9   12    4     -0.87      0.00
   10   12    4      0.87      0.00
   11   12    4      0.57      0.00
   12   12    4     -1.10      0.00
   13   12    4     -3.00      0.00
   14   12    4     -4.34      0.00
   15   12    4     -3.86      0.00
  -15   13    4      0.73      0.00
  -14   13    4      0.74      0.00
  -13   13    4     -0.12      0.00
  -12   13    4      0.02      0.00
  -11   13    4      1.12      0.00
  -10   13    4      1.20      0.00
   -9   13    4     -0.07      0.00
   -8   13    4     -0.96      0.00
   -7   13    4     -0.81      0.00
   -6   13    4     -0.88      0.00
   -5   13    4     -1.72      0.00
   -4   13    4     -2.28      0.00
   -3   13    4     -2.21      0.00
   -2   13    4     -2.06      0.00
   -1   13    4     -0.97      0.00
    0   13    4      1.36      0.00
    1   13    4      2.25      0.00
    2   13    4      0.46      0.00
    3   13    4     -0.67      0.00
    4   13    4      0.58      0.00
    5   13    4      1.20      0.00
    6   13    4     -0.29      0.00
    7   13    4     -1.57      0.00
    8   13    4     -1.51      0.00
    9   13    4     -1.11      0.00
   10   13    4     -0.90      0.00
   11   13    4     -1.33      0.00
   12   13    4     -2.39      0.00
   13   13    4     -2.54      0.00
   14   13    4     -1.21      0.00
  -14   14    4      1.43      0.00
  -13   14    4      1.70      0.00
  -12   14    4      0.44      0.00
  -11   14    4     -0.33      0.00
  -10   14    4      0.61      0.00
   -9   14    4      1.11      0.00
   -8   14    4     -0.32      0.00
   -7   14    4     -1.46      0.00
   -6   14    4     -0.56      0.00
   -5   14    4      0.40      0.00
   -4   14    4     -0.35      0.00
   -3   14    4     -1.10      0.00
   -2   14    4     -0.26      0.00
   -1   14    4      0.93      0.00
    0   14    4      1.29      0.00
    1   14    4      1.10      0.00
    2   14    4      0.27      0.00
    3   14    4     -0.93      0.00
    4   14    4     -0.81      0.00
    5   14    4      0.82      0.00
    6   14    4      1.78      0.00
    7   14    4      1.25      0.00
    8   14    4      0.60      0.00
    9   14    4      0.36      0.00
   10   14    4     -0.05      0.00
   11   14    4     -0.65      0.00
   12   14    4     -1.25      0.00
   13   14    4     -1.72      0.00
  -13   15    4     -0.77      0.00
  -12   15    4      1.54      0.00
  -11   15    4      2.47      0.00
  -10   15    4      1.88      0.00
   -9   15    4      1.48      0.00
   -8   15    4      1.48      0.00
   -7   15    4      1.05      0.00
   -6   15    4      0.44      0.00
   -5   15    4      0.26      0.00
   -4   15    4      0.19      0.00
   -3   15    4     -0.28      0.00
   -2   15    4     -0.88      0.00
   -1   15    4     -1.00      0.00
    0   15    4     -0.59      0.00
    1   15    4     -0.43      0.00
    2   15    4     -1.05      0.00
    3   15    4     -1.76      0.00
    4   15    4     -1.66      0.00
    5   15    4     -1.00      0.00
    6   15    4     -0.51      0.00
    7   15    4     -0.26      0.00
    8   15    4     -0.06      0.00
    9   15    4      0.23      0.00
   10   15    4      0.82      0.00
   11   15    4      1.68      0.00
   12   15    4      2.16      0.00
  -11   16    4     -2.15      0.00
  -10   16    4     -2.35      0.00
   -9   16    4     -2.16      0.00
   -8   16    4     -2.04      0.00
   -7   16    4     -1.82      0.00
   -6   16    4     -1.42      0.00
   -5   16    4     -1.00      0.00
   -4   16    4     -0.71      0.00
   -3   16    4     -0.62      0.00
   -2   16    4     -0.88      0.00
   -1   16    4     -1.29      0.00
    0   16    4     -1.23      0.00
    1   16    4     -0.58      0.00
    2   16    4     -0.25      0.00
    3   16    4     -0.69      0.00
    4   16    4     -0.92      0.00
    5   16    4     -0.16      0.00
    6   16    4      0.69      0.00
    7   16    4      0.52      0.00
    8   16    4     -0.58      0.00
    9   16    4     -1.82      0.00
   10   16    4     -2.29      0.00
  -10   17    4     -0.78      0.00
   -9   17    4     -0.96      0.00
   -8   17    4     -1.42      0.00
   -7   17    4     -1.89      0.00
   -6   17    4     -1.55      0.00
   -5   17    4     -0.68      0.00
   -4   17    4     -0.06      0.00
   -3   17    4      0.19      0.00
   -2   17    4      0.38      0.00
   -1   17    4      0.53      0.00
    0   17    4      0.69      0.00
    1   17    4      1.23      0.00
    2   17    4      2.28      0.00
    3   17    4      3.01      0.00
    4   17    4      2.25      0.00
    5   17    4      0.33      0.00
    6   17    4     -1.05      0.00
    7   17    4     -1.13      0.00
    8   17    4     -0.67      0.00
    9   17    4     -0.34      0.00
   -8   18    4     -0.80      0.00
   -7   18    4     -0.18      0.00
   -6   18    4      0.71      0.00
   -5   18    4      1.06      0.00
   -4   18    4      0.68      0.00
   -3   18    4      0.62      0.00
   -2   18    4      1.11      0.00
   -1   18    4      0.70      0.00
    0   18    4     -1.14      0.00
    1   18    4     -2.47      0.00
    2   18    4     -1.57      0.00
    3   18    4      0.42      0.00
    4   18    4      1.07      0.00
    5   18    4     -0.11      0.00
    6   18    4     -1.55      0.00
    7   18    4     -2.12      0.00
   -3   19    4      0.75      0.00
   -2   19    4      0.62      0.00
   -1   19    4     -0.18      0.00
    0   19    4     -0.66      0.00
    1   19    4     -0.21      0.00
    2   19    4      1.17      0.00
    3   19    4      2.45      0.00
  -20    1    5     -0.64      0.00
  -19    1    5     -0.63      0.00
  -18    1    5     -1.26      0.00
  -17    1    5     -2.96      0.00
  -16    1    5     -2.89      0.00
  -15    1    5      0.46      0.00
  -14    1    5      3.11      0.00
  -13    1    5      2.12      0.00
  -12    1    5      1.61      0.00
  -11    1    5      5.21      0.00
  -10    1    5      7.36      0.00
   -9    1    5     -0.29      0.00
   -8    1    5    -15.67      0.00
   -7    1    5    -24.24      0.00
   -6    1    5    -13.35      0.00
   -5    1    5      7.64      0.00
   -4    1    5     10.83      0.00
   -3    1    5    -12.70      0.00
   -2    1    5    -32.17      0.00
   -1    1    5    -18.19      0.00
    0    1    5     11.21      0.00
    1    1    5     18.14      0.00
    2    1    5      2.52      0.00
    3    1    5     -4.79      0.00
    4    1    5      6.45      0.00
    5    1    5     16.55      0.00
    6    1    5     11.42      0.00
    7    1    5     -0.81      0.00
    8    1    5     -7.14      0.00
    9    1    5     -5.47      0.00
   10    1    5     -1.86      0.00
   11    1    5     -0.93      0.00
   12    1    5     -1.75      0.00
   13    1    5     -1.58      0.00
   14    1    5     -0.83      0.00
   15    1    5     -1.56      0.00
   16    1    5     -2.88      0.00
   17    1    5     -2.32      0.00
   18    1    5     -0.20      0.00
   19    1    5      1.09      0.00
  -20    2    5      0.64      0.00
  -19    2    5      0.20      0.00
  -18    2    5      0.30      0.00
  -17    2    5      0.40      0.00
  -16    2    5     -0.50      0.00
  -15    2    5     -0.71      0.00
  -14    2    5      1.46      0.00
  -13    2    5      2.89      0.00
  -12    2    5      0.07      0.00
  -11    2    5     -3.64      0.00
  -10    2    5     -1.46      0.00
   -9    2    5      7.27      0.00
   -8    2    5     14.34      0.00
   -7    2    5     11.74      0.00
   -6    2    5      4.32      0.00
   -5    2    5      2.51      0.00
   -4    2    5     -3.90      0.00
   -3    2    5    -39.97      0.00
   -2    2    5    -96.47      0.00
   -1    2    5   -119.70      0.00
    0    2    5    -78.62      0.00
    1    2    5    -11.12      0.00
    2    2    5     25.22      0.00
    3    2    5     20.21      0.00
    4    2    5      3.95      0.00
    5    2    5     -2.16      0.00
    6    2    5     -1.30      0.00
    7    2    5     -1.88      0.00
    8    2    5     -3.73      0.00
    9    2    5     -2.88      0.00
   10    2    5      0.82      0.00
   11    2    5      3.82      0.00
   12    2    5      3.44      0.00
   13    2    5      1.04      0.00
   14    2    5      0.30      0.00
   15    2    5      1.92      0.00
   16    2    5      2.36      0.00
   17    2    5     -0.27      0.00
   18    2    5     -2.92      0.00
   19    2    5     -2.74      0.00
  -20    3    5      1.39      0.00
  -19    3    5      2.39      0.00
  -18    3    5      0.94      0.00
  -17    3    5     -1.23      0.00
  -16    3    5     -1.34      0.00
  -15    3    5     -0.65      0.00
  -14    3    5     -1.28      0.00
  -13    3    5     -2.64      0.00
  -12    3    5     -3.42      0.00
  -11    3    5     -2.80      0.00
  -10    3    5     -0.48      0.00
   -9    3    5      2.52      0.00
   -8    3    5      5.33      0.00
   -7    3    5      7.75      0.00
   -6    3    5      7.91      0.00
   -5    3    5      4.26      0.00
   -4    3    5     -1.90      0.00
   -3    3    5     -8.76      0.00
   -2    3    5    -12.98      0.00
   -1    3    5     -7.90      0.00
    0    3    5      6.06      0.00
    1    3    5     15.98      0.00
    2    3    5     13.39      0.00
    3    3    5      5.16      0.00
    4    3    5      0.05      0.00
    5    3    5     -1.27      0.00
    6    3    5     -0.07      0.00
    7    3    5      2.51      0.00
    8    3    5      3.49      0.00
    9    3    5      2.52      0.00
   10    3    5      2.37      0.00
   11    3    5      2.96      0.00
   12    3    5      2.08      0.00
   13    3    5      0.24      0.00
   14    3    5     -0.52      0.00
   15    3    5      0.48      0.00
   16    3    5      2.20      0.00
   17    3    5      2.52      0.00
   18    3    5      0.62      0.00
   19    3    5     -1.25      0.00
  -20    4    5     -1.70      0.00
  -19    4    5     -0.05      0.00
  -18    4    5      1.28      0.00
  -17    4    5      0.04      0.00
  -16    4    5     -2.02      0.00
  -15    4    5     -1.66      0.00
  -14    4    5      0.79      0.00
  -13    4    5      1.76      0.00
  -12    4    5     -0.75      0.00
  -11    4    5     -3.34      0.00
  -10    4    5     -0.29      0.00
   -9    4    5      7.51      0.00
   -8    4    5     11.22      0.00
   -7    4    5      6.46      0.00
   -6    4    5      1.29      0.00
   -5    4    5      5.08      0.00
   -4    4    5     12.59      0.00
   -3    4    5      6.85      0.00
   -2    4    5    -17.41      0.00
   -1    4    5    -38.93      0.00
    0    4    5    -32.35      0.00
    1    4    5     -3.64      0.00
    2    4    5     16.79      0.00
    3    4    5     15.89      0.00
    4    4    5      8.80      0.00
    5    4    5      8.82      0.00
    6    4    5     11.38      0.00
    7    4    5      9.03      0.00
    8    4    5      3.07      0.00
    9    4    5     -1.05      0.00
   10    4    5     -0.65      0.00
   11    4    5      1.91      0.00
   12    4    5      2.46      0.00
   13    4    5      0.69      0.00
   14    4    5     -0.56      0.00
   15    4    5     -0.95      0.00
   16    4    5     -1.85      0.00
   17    4    5     -2.73      0.00
   18    4    5     -2.74      0.00
  -20    5    5     -0.93      0.00
  -18    5    5      1.84      0.00
  -17    5    5      2.57      0.00
  -16    5    5      1.78      0.00
  -15    5    5      0.15      0.00
  -14    5    5     -1.17      0.00
  -13    5    5     -1.02      0.00
  -12    5    5     -0.45      0.00
  -11    5    5     -1.53      0.00
  -10    5    5     -2.65      0.00
   -9    5    5      0.57      0.00
   -8    5    5      7.58      0.00
   -7    5    5     10.55      0.00
   -6    5    5      4.10      0.00
   -5    5    5     -4.65      0.00
   -4    5    5     -2.72      0.00
   -3    5    5      9.86      0.00
   -2    5    5     16.49      0.00
   -1    5    5      5.69      0.00
    0    5    5    -11.83      0.00
    1    5    5    -17.79      0.00
    2    5    5    -11.51      0.00
    3    5    5     -7.59      0.00
    4    5    5    -11.66      0.00
    5    5    5    -13.66      0.00
    6    5    5     -6.54      0.00
    7    5    5      2.82      0.00
    8    5    5      5.63      0.00
    9    5    5      2.84      0.00
   10    5    5      0.48      0.00
   11    5    5      0.87      0.00
   12    5    5      1.64      0.00
   13    5    5      0.15      0.00
   14    5    5     -2.54      0.00
   15    5    5     -3.31      0.00
   16    5    5     -1.89      0.00
   17    5    5     -0.79      0.00
   18    5    5     -0.71      0.00
  -19    6    5      2.55      0.00
  -18    6    5      2.51      0.00
  -17    6    5      0.81      0.00
  -16    6    5      0.64      0.00
  -15    6    5      2.16      0.00
  -14    6    5      1.70      0.00
  -13    6    5     -1.00      0.00
  -12    6    5     -1.88      0.00
  -11    6    5      0.61      0.00
  -10    6    5      3.87      0.00
   -9    6    5      4.89      0.00
   -8    6    5      2.07      0.00
   -7    6    5     -3.78      0.00
   -6    6    5     -9.33      0.00
   -5    6    5    -11.89      0.00
   -4    6    5    -11.72      0.00
   -3    6    5    -10.94      0.00
   -2    6    5    -11.22      0.00
   -1    6    5    -12.19      0.00
    0    6    5    -11.92      0.00
    1    6    5    -10.27      0.00
    2    6    5     -9.48      0.00
    3    6    5    -10.32      0.00
    4    6    5    -10.69      0.00
    5    6    5     -8.32      0.00
    6    6    5     -3.40      0.00
    7    6    5      0.90      0.00
    8    6    5      1.00      0.00
    9    6    5     -2.45      0.00
   10    6    5     -5.14      0.00
   11    6    5     -4.85      0.00
   12    6    5     -2.81      0.00
   13    6    5     -0.41      0.00
   14    6    5      1.55      0.00
   15    6    5      2.53      0.00
   16    6    5      2.88      0.00
   17    6    5      2.72      0.00
   18    6    5      1.49      0.00
  -19    7    5      0.09      0.00
  -18    7    5      1.90      0.00
  -17    7    5      1.88      0.00
  -16    7    5      1.20      0.00
  -15    7    5      1.63      0.00
  -14    7    5      2.00      0.00
  -13    7    5      0.92      0.00
  -12    7    5     -1.37      0.00
  -11    7    5     -4.80      0.00
  -10    7    5     -7.88      0.00
   -9    7    5     -6.16      0.00
   -8    7    5      1.04      0.00
   -7    7    5      6.53      0.00
   -6    7    5      4.74      0.00
   -5    7    5      0.29      0.00
   -4    7    5      0.74      0.00
   -3    7    5      5.10      0.00
   -2    7    5      4.89      0.00
   -1    7    5     -3.97      0.00
    0    7    5    -13.91      0.00
    1    7    5    -14.03      0.00
    2    7    5     -4.83      0.00
    3    7    5      2.63      0.00
    4    7    5      2.54      0.00
    5    7    5      0.75      0.00
    6    7    5      3.51      0.00
    7    7    5      8.27      0.00
    8    7    5      8.64      0.00
    9    7    5      3.69      0.00
   10    7    5     -1.22      0.00
   11    7    5     -2.04      0.00
   12    7    5     -0.85      0.00
   13    7    5     -1.14      0.00
   14    7    5     -2.37      0.00
   15    7    5     -2.65      0.00
   16    7    5     -2.40      0.00
   17    7    5     -2.25      0.00
   18    7    5     -1.51      0.00
  -18    8    5     -1.50      0.00
  -17    8    5     -1.45      0.00
  -16    8    5     -1.06      0.00
  -14    8    5      0.63      0.00
  -13    8    5     -0.49      0.00
  -12    8    5      0.13      0.00
  -11    8    5      3.59      0.00
  -10    8    5      4.87      0.00
   -9    8    5      1.56      0.00
   -8    8    5     -1.10      0.00
   -7    8    5      0.04      0.00
   -6    8    5      0.20      0.00
   -5    8    5     -3.97      0.00
   -4    8    5     -8.13      0.00
   -3    8    5     -7.35      0.00
   -2    8    5     -3.04      0.00
   -1    8    5     -0.40      0.00
    0    8    5     -2.21      0.00
    1    8    5     -5.62      0.00
    2    8    5     -5.59      0.00
    3    8    5     -2.13      0.00
    4    8    5     -0.31      0.00
    5    8    5     -1.81      0.00
    6    8    5     -2.23      0.00
    7    8    5      1.02      0.00
    8    8    5      4.31      0.00
    9    8    5      3.60      0.00
   10    8    5      0.51      0.00
   11    8    5     -0.40      0.00
   12    8    5      1.41      0.00
   13    8    5      1.95      0.00
   14    8    5     -0.33      0.00
   15    8    5     -1.93      0.00
   16    8    5     -0.81      0.00
   17    8    5      0.37      0.00
  -18    9    5     -1.64      0.00
  -17    9    5     -2.40      0.00
  -16    9    5     -1.11      0.00
  -15    9    5      1.28      0.00
  -14    9    5      2.70      0.00
  -13    9    5      1.98      0.00
  -12    9    5     -0.29      0.00
  -11    9    5     -2.23      0.00
  -10    9    5     -2.71      0.00
   -9    9    5     -2.22      0.00
   -8    9    5     -0.74      0.00
   -7    9    5      2.31      0.00
   -6    9    5      5.14      0.00
   -5    9    5      5.22      0.00
   -4    9    5      3.37      0.00
   -3    9    5      1.59      0.00
   -2    9    5     -1.29      0.00
   -1    9    5     -6.85      0.00
    0    9    5    -12.33      0.00
    1    9    5    -12.85      0.00
    2    9    5     -7.43      0.00
    3    9    5     -0.70      0.00
    4    9    5      1.87      0.00
    5    9    5     -0.02      0.00
    6    9    5     -2.09      0.00
    7    9    5     -1.81      0.00
    8    9    5     -0.75      0.00
    9    9    5     -0.60      0.00
   10    9    5     -1.21      0.00
   11    9    5     -1.73      0.00
   12    9    5     -1.10      0.00
   13    9    5      0.92      0.00
   14    9    5      2.15      0.00
   15    9    5      0.45      0.00
   16    9    5     -2.47      0.00
   17    9    5     -3.28      0.00
  -17   10    5     -1.27      0.00
  -16   10    5     -0.53      0.00
  -15   10    5      0.46      0.00
  -14   10    5      0.98      0.00
  -13   10    5      0.61      0.00
  -12   10    5      0.33      0.00
  -11   10    5      0.37      0.00
  -10   10    5     -0.76      0.00
   -9   10    5     -3.29      0.00
   -8   10    5     -4.39      0.00
   -7   10    5     -1.89      0.00
   -6   10    5      1.88      0.00
   -5   10    5      2.69      0.00
   -4   10    5      0.44      0.00
   -3   10    5     -0.89      0.00
   -2   10    5      0.25      0.00
   -1   10    5      0.58      0.00
    0   10    5     -2.49      0.00
    1   10    5     -6.26      0.00
    2   10    5     -6.11      0.00
    3   10    5     -2.01      0.00
    4   10    5      0.75      0.00
    5   10    5     -1.52      0.00
    6   10    5     -5.17      0.00
    7   10    5     -4.34      0.00
    8   10    5      0.08      0.00
    9   10    5      2.10      0.00
   10   10    5      0.18      0.00
   11   10    5     -1.75      0.00
   12   10    5     -1.68      0.00
   13   10    5     -1.23      0.00
   14   10    5     -1.13      0.00
   15   10    5     -0.64      0.00
   16   10    5     -0.09      0.00
  -17   11    5     -4.05      0.00
  -16   11    5     -3.32      0.00
  -15   11    5     -0.95      0.00
  -14   11    5      1.47      0.00
  -13   11    5      2.64      0.00
  -12   11    5      2.46      0.00
  -11   11    5      2.01      0.00
  -10   11    5      1.90      0.00
   -9   11    5      1.05      0.00
   -8   11    5     -1.02      0.00
   -7   11    5     -2.31      0.00
   -6   11    5     -1.10      0.00
   -5   11    5      0.99      0.00
   -4   11    5      1.18      0.00
   -3   11    5     -0.40      0.00
   -2   11    5     -1.07      0.00
   -1   11    5     -0.09      0.00
    0   11    5     -0.19      0.00
    1   11    5     -2.58      0.00
    2   11    5     -4.20      0.00
    3   11    5     -2.76      0.00
    4   11    5     -0.48      0.00
    5   11    5     -0.24      0.00
    6   11    5     -1.83      0.00
    7   11    5     -3.29      0.00
    8   11    5     -2.95      0.00
    9   11    5     -0.71      0.00
   10   11    5      1.60      0.00
   11   11    5      2.77      0.00
   12   11    5      3.47      0.00
   13   11    5      3.44      0.00
   14   11    5      1.42      0.00
   15   11    5     -1.24      0.00
  -16   12    5     -3.24      0.00
  -15   12    5     -0.95      0.00
  -14   12    5      0.05      0.00
  -13   12    5     -1.52      0.00
  -12   12    5     -2.51      0.00
  -11   12    5     -1.17      0.00
  -10   12    5      0.19      0.00
   -9   12    5     -0.34      0.00
   -8   12    5     -1.24      0.00
   -7   12    5     -0.62      0.00
   -6   12    5      0.63      0.00
   -5   12    5      0.75      0.00
   -4   12    5      0.12      0.00
   -3   12    5     -0.21      0.00
   -2   12    5     -0.42      0.00
   -1   12    5     -0.42      0.00
    0   12    5     -0.07      0.00
    1   12    5     -0.82      0.00
    2   12    5     -2.56      0.00
    3   12    5     -2.20      0.00
    4   12    5      0.23      0.00
    5   12    5      0.48      0.00
    6   12    5     -1.97      0.00
    7   12    5     -2.83      0.00
    8   12    5     -0.90      0.00
    9   12    5      0.93      0.00
   10   12    5      1.14      0.00
   11   12    5      0.29      0.00
   12   12    5     -0.85      0.00
   13   12    5     -1.25      0.00
   14   12    5     -0.56      0.00
   15   12    5      0.11      0.00
  -15   13    5      1.42      0.00
  -14   13    5      2.63      0.00
  -13   13    5      3.00      0.00
  -12   13    5      1.94      0.00
  -11   13    5      1.18      0.00
  -10   13    5      1.71      0.00
   -9   13    5      1.68      0.00
   -8   13    5     -0.18      0.00
   -7   13    5     -1.63      0.00
   -6   13    5     -0.66      0.00
   -5   13    5      0.65      0.00
   -4   13    5     -0.14      0.00
   -3   13    5     -1.49      0.00
   -2   13    5     -0.87      0.00
   -1   13    5      0.92      0.00
    0   13    5      1.68      0.00
    1   13    5      1.12      0.00
    2   13    5      0.14      0.00
    3   13    5     -0.54      0.00
    4   13    5     -0.42      0.00
    5   13    5      0.09      0.00
    6   13    5     -0.12      0.00
    7   13    5     -0.88      0.00
    8   13    5     -0.57      0.00
    9   13    5      1.25      0.00
   10   13    5      2.79      0.00
   11   13    5      2.16      0.00
   12   13    5     -0.62      0.00
   13   13    5     -3.69      0.00
   14   13    5     -4.82      0.00
  -14   14    5     -0.62      0.00
  -13   14    5      0.33      0.00
  -12   14    5      1.96      0.00
  -11   14    5      2.66      0.00
  -10   14    5      1.41      0.00
   -9   14    5     -0.39      0.00
   -8   14    5     -1.19      0.00
   -7   14    5     -1.07      0.00
   -6   14    5     -0.62      0.00
   -5   14    5      0.12      0.00
   -4   14    5      0.95      0.00
   -3   14    5      1.14      0.00
   -2   14    5      0.55      0.00
   -1   14    5      0.53      0.00
    0   14    5      1.79      0.00
    1   14    5      2.37      0.00
    2   14    5      0.73      0.00
    3   14    5     -1.14      0.00
    4   14    5     -1.03      0.00
    5   14    5     -0.13      0.00
    6   14    5     -0.18      0.00
    7   14    5     -0.83      0.00
    8   14    5     -1.22      0.00
    9   14    5     -1.00      0.00
   10   14    5      0.02      0.00
   11   14    5      1.08      0.00
   12   14    5      1.08      0.00
   13   14    5      0.28      0.00
  -12   15    5     -1.10      0.00
  -11   15    5     -1.97      0.00
  -10   15    5     -1.52      0.00
   -9   15    5     -1.19      0.00
   -8   15    5     -1.96      0.00
   -7   15    5     -2.66      0.00
   -6   15    5     -2.16      0.00
   -5   15    5     -1.25      0.00
   -4   15    5     -0.98      0.00
   -3   15    5     -0.97      0.00
   -2   15    5     -0.50      0.00
   -1   15    5      0.33      0.00
    0   15    5      1.27      0.00
    1   15    5      1.88      0.00
    2   15    5      1.14      0.00
    3   15    5     -0.66      0.00
    4   15    5     -1.59      0.00
    5   15    5     -1.00      0.00
    6   15    5     -0.29      0.00
    7   15    5     -0.31      0.00
    8   15    5     -0.86      0.00
    9   15    5     -1.85      0.00
   10   15    5     -2.60      0.00
   11   15    5     -2.18      0.00
   12   15    5     -1.06      0.00
  -11   16    5      0.54      0.00
  -10   16    5      1.29      0.00
   -9   16    5      2.00      0.00
   -8   16    5      1.97      0.00
   -7   16    5      1.17      0.00
   -6   16    5      0.71      0.00
   -5   16    5      0.84      0.00
   -4   16    5      0.61      0.00
   -3   16    5     -0.09      0.00
   -2   16    5     -0.50      0.00
   -1   16    5     -0.36      0.00
    0   16    5      0.08      0.00
    1   16    5      0.58      0.00
    2   16    5      0.80      0.00
    3   16    5      0.55      0.00
    4   16    5      0.22      0.00
    5   16    5      0.11      0.00
    6   16    5      0.23      0.00
    7   16    5      0.66      0.00
    8   16    5      1.21      0.00
    9   16    5      1.20      0.00
  -10   17    5     -0.36      0.00
   -9   17    5     -1.34      0.00
   -8   17    5     -1.81      0.00
   -7   17    5     -1.64      0.00
   -6   17    5     -1.04      0.00
   -5   17    5     -0.40      0.00
   -4   17    5     -0.07      0.00
   -3   17    5     -0.08      0.00
   -2   17    5     -0.21      0.00
   -1   17    5     -0.65      0.00
    0   17    5     -1.50      0.00
    1   17    5     -1.96      0.00
    2   17    5     -1.26      0.00
    3   17    5      0.06      0.00
    4   17    5      0.96      0.00
    5   17    5      1.15      0.00
    6   17    5      0.81      0.00
    7   17    5      0.17      0.00
    8   17    5     -0.28      0.00
   -8   18    5      0.12      0.00
   -7   18    5     -1.09      0.00
   -6   18    5     -2.58      0.00
   -5   18    5     -2.80      0.00
   -4   18    5     -1.28      0.00
   -3   18    5      0.51      0.00
   -2   18    5      0.96      0.00
   -1   18    5      0.29      0.00
    0   18    5     -0.23      0.00
    1   18    5     -0.08      0.00
    2   18    5      0.53      0.00
    3   18    5      0.93      0.00
    4   18    5      0.04      0.00
    5   18    5     -1.92      0.00
    6   18    5     -2.92      0.00
   -3   19    5     -0.29      0.00
   -2   19    5      0.56      0.00
   -1   19    5      1.41      0.00
    0   19    5      0.57      0.00
    1   19    5     -0.85      0.00
    2   19    5     -0.50      0.00
    3   19    5      1.68      0.00
  -20    0    6     -3.59      0.00
  -19    0    6     -2.15      0.00
  -18    0    6     -0.18      0.00
  -17    0    6     -0.58      0.00
  -16    0    6     -1.20      0.00
  -15    0    6      1.04      0.00
  -14    0    6      2.55      0.00
  -13    0    6     -0.44      0.00
  -12    0    6     -2.82      0.00
  -11    0    6      0.84      0.00
  -10    0    6      3.97      0.00
   -9    0    6     -5.79      0.00
   -8    0    6    -28.85      0.00
   -7    0    6    -47.17      0.00
   -6    0    6    -40.27      0.00
   -5    0    6    -11.21      0.00
   -4    0    6     13.16      0.00
   -3    0    6     17.68      0.00
   -2    0    6     18.52      0.00
   -1    0    6     30.46      0.00
    0    0    6     36.28      0.00
    1    0    6     15.14      0.00
    2    0    6    -17.51      0.00
    3    0    6    -27.98      0.00
    4    0    6    -10.82      0.00
    5    0    6      8.48      0.00
    6    0    6     10.63      0.00
    7    0    6      1.41      0.00
    8    0    6     -4.43      0.00
    9    0    6     -2.49      0.00
   10    0    6      1.32      0.00
   11    0    6      1.98      0.00
   12    0    6      0.98      0.00
   13    0    6      1.46      0.00
   14    0    6      2.15      0.00
   15    0    6      0.26      0.00
   16    0    6     -2.25      0.00
   17    0    6     -1.37      0.00
   18    0    6      1.94      0.00
   19    0    6      3.50      0.00
  -20    1    6     -0.52      0.00
  -19    1    6     -2.09      0.00
  -18    1    6     -2.10      0.00
  -17    1    6     -0.93      0.00
  -16    1    6     -0.58      0.00
  -15    1    6     -0.54      0.00
  -14    1    6      0.94      0.00
  -13    1    6      2.47      0.00
  -12    1    6      1.54      0.00
  -11    1    6     -0.94      0.00
  -10    1    6     -1.80      0.00
   -9    1    6      0.14      0.00
   -8    1    6      1.90      0.00
   -7    1    6     -0.09      0.00
   -6    1    6     -1.86      0.00
   -5    1    6      4.36      0.00
   -4    1    6     11.72      0.00
   -3    1    6      0.75      0.00
   -2    1    6    -27.86      0.00
   -1    1    6    -43.37      0.00
    0    1    6    -24.37      0.00
    1    1    6     11.47      0.00
    2    1    6     32.53      0.00
    3    1    6     30.87      0.00
    4    1    6     20.94      0.00
    5    1    6     14.35      0.00
    6    1    6     10.00      0.00
    7    1    6      4.20      0.00
    8    1    6     -0.99      0.00
    9    1    6     -2.06      0.00
   10    1    6     -0.13      0.00
   11    1    6      1.21      0.00
   12    1    6      0.52      0.00
   13    1    6     -0.91      0.00
   14    1    6     -1.27      0.00
   15    1    6     -0.41      0.00
   16    1    6     -0.08      0.00
   17    1    6     -1.05      0.00
   18    1    6     -1.64      0.00
   19    1    6     -0.79      0.00
  -20    2    6      0.43      0.00
  -19    2    6      0.59      0.00
  -18    2    6     -1.01      0.00
  -17    2    6     -3.38      0.00
  -16    2    6     -3.24      0.00
  -15    2    6     -0.53      0.00
  -14    2    6      0.97      0.00
  -13    2    6     -0.63      0.00
  -12    2    6     -2.58      0.00
  -11    2    6     -1.82      0.00
  -10    2    6     -0.49      0.00
   -9    2    6     -3.77      0.00
   -8    2    6    -11.09      0.00
   -7    2    6    -13.70      0.00
   -6    2    6     -4.37      0.00
   -5    2    6     11.99      0.00
   -4    2    6     20.62      0.00
   -3    2    6     14.54      0.00
   -2    2    6      7.83      0.00
   -1    2    6     18.75      0.00
    0    2    6     39.43      0.00
    1    2    6     43.40      0.00
    2    2    6     25.14      0.00
    3    2    6      6.24      0.00
    4    2    6      0.82      0.00
    5    2    6      1.51      0.00
    6    2    6     -0.09      0.00
    7    2    6     -2.48      0.00
    8    2    6     -2.82      0.00
    9    2    6     -1.21      0.00
   10    2    6      1.16      0.00
   11    2    6      2.28      0.00
   12    2    6      1.38      0.00
   13    2    6      0.24      0.00
   14    2    6      0.02      0.00
   15    2    6      0.10      0.00
   16    2    6      0.40      0.00
   17    2    6      1.04      0.00
   18    2    6      1.04      0.00
   19    2    6      0.27      0.00
  -19    3    6      0.85      0.00
  -18    3    6      0.39      0.00
  -17    3    6     -0.77      0.00
  -16    3    6     -1.96      0.00
  -15    3    6     -0.44      0.00
  -14    3    6      4.34      0.00
  -13    3    6      7.87      0.00
  -12    3    6      6.10      0.00
  -11    3    6      1.96      0.00
  -10    3    6      1.88      0.00
   -9    3    6      6.20      0.00
   -8    3    6      6.87      0.00
   -7    3    6     -1.84      0.00
   -6    3    6    -11.67      0.00
   -5    3    6     -9.00      0.00
   -4    3    6      0.50      0.00
   -3    3    6     -8.39      0.00
   -2    3    6    -41.97      0.00
   -1    3    6    -66.48      0.00
    0    3    6    -48.84      0.00
    1    3    6     -3.90      0.00
    2    3    6     25.70      0.00
    3    3    6     24.81      0.00
    4    3    6     13.00      0.00
    5    3    6      7.04      0.00
    6    3    6      3.92      0.00
    7    3    6     -2.37      0.00
    8    3    6     -9.19      0.00
    9    3    6    -11.30      0.00
   10    3    6     -7.61      0.00
   11    3    6     -1.67      0.00
   12    3    6      1.68      0.00
   13    3    6      1.47      0.00
   14    3    6      0.89      0.00
   15    3    6      1.37      0.00
   16    3    6      1.03      0.00
   17    3    6     -0.61      0.00
   18    3    6     -1.68      0.00
  -20    4    6      1.51      0.00
  -19    4    6      2.60      0.00
  -18    4    6      2.70      0.00
  -17    4    6      1.86      0.00
  -16    4    6      1.03      0.00
  -15    4    6     -0.17      0.00
  -14    4    6     -1.56      0.00
  -13    4    6     -2.11      0.00
  -12    4    6     -2.63      0.00
  -11    4    6     -4.15      0.00
  -10    4    6     -4.70      0.00
   -9    4    6     -0.83      0.00
   -8    4    6      7.88      0.00
   -7    4    6     15.66      0.00
   -6    4    6     14.01      0.00
   -5    4    6      2.71      0.00
   -4    4    6     -8.34      0.00
   -3    4    6    -13.76      0.00
   -2    4    6    -18.80      0.00
   -1    4    6    -25.07      0.00
    0    4    6    -24.56      0.00
    1    4    6    -13.67      0.00
    2    4    6     -1.21      0.00
    3    4    6      2.41      0.00
    4    4    6     -2.64      0.00
    5    4    6     -6.94      0.00
    6    4    6     -3.82      0.00
    7    4    6      2.80      0.00
    8    4    6      5.56      0.00
    9    4    6      4.24      0.00
   10    4    6      3.35      0.00
   11    4    6      3.85      0.00
   12    4    6      3.40      0.00
   13    4    6      1.10      0.00
   14    4    6     -1.18      0.00
   15    4    6     -1.17      0.00
   16    4    6      0.60      0.00
   17    4    6      1.20      0.00
   18    4    6     -0.07      0.00
  -20    5    6     -0.54      0.00
  -18    5    6      1.49      0.00
  -17    5    6     -0.48      0.00
  -16    5    6     -2.41      0.00
  -15    5    6     -2.09      0.00
  -14    5    6     -0.49      0.00
  -13    5    6      0.74      0.00
  -12    5    6      1.00      0.00
  -11    5    6      1.25      0.00
  -10    5    6      3.79      0.00
   -9    5    6      7.36      0.00
   -8    5    6      5.88      0.00
   -7    5    6     -2.27      0.00
   -6    5    6     -9.77      0.00
   -5    5    6     -9.75      0.00
   -4    5    6     -4.23      0.00
   -3    5    6     -1.37      0.00
   -2    5    6     -6.10      0.00
   -1    5    6    -12.46      0.00
    0    5    6     -9.53      0.00
    1    5    6      1.88      0.00
    2    5    6      8.32      0.00
    3    5    6      3.44      0.00
    4    5    6     -4.20      0.00
    5    5    6     -5.78      0.00
    6    5    6     -2.35      0.00
    7    5    6      0.39      0.00
    8    5    6     -0.41      0.00
    9    5    6     -2.63      0.00
   10    5    6     -2.70      0.00
   11    5    6     -0.98      0.00
   12    5    6     -0.15      0.00
   13    5    6      0.18      0.00
   14    5    6      1.41      0.00
   15    5    6      2.09      0.00
   16    5    6      1.07      0.00
   18    5    6     -1.10      0.00
  -19    6    6     -0.92      0.00
  -18    6    6      1.06      0.00
  -17    6    6      1.50      0.00
  -16    6    6      0.30      0.00
  -15    6    6     -1.01      0.00
  -14    6    6     -1.89      0.00
  -13    6    6     -1.84      0.00
  -12    6    6     -1.47      0.00
  -11    6    6     -3.08      0.00
  -10    6    6     -5.36      0.00
   -9    6    6     -2.34      0.00
   -8    6    6      6.29      0.00
   -7    6    6     11.20      0.00
   -6    6    6      5.85      0.00
   -5    6    6     -3.37      0.00
   -4    6    6     -5.17      0.00
   -3    6    6      1.57      0.00
   -2    6    6      5.49      0.00
   -1    6    6     -2.19      0.00
    0    6    6    -13.57      0.00
    1    6    6    -13.45      0.00
    2    6    6     -1.64      0.00
    3    6    6      6.87      0.00
    4    6    6      4.81      0.00
    5    6    6      0.95      0.00
    6    6    6      3.53      0.00
    7    6    6      8.79      0.00
    8    6    6      9.37      0.00
    9    6    6      4.77      0.00
   10    6    6      0.43      0.00
   11    6    6      0.18      0.00
   12    6    6      2.03      0.00
   13    6    6      2.14      0.00
   14    6    6      0.51      0.00
   15    6    6     -0.53      0.00
   16    6    6     -0.85      0.00
   17    6    6     -1.37      0.00
   18    6    6     -1.50      0.00
  -19    7    6      2.25      0.00
  -18    7    6      2.56      0.00
  -17    7    6      1.13      0.00
  -16    7    6      0.44      0.00
  -15    7    6      1.81      0.00
  -14    7    6      1.81      0.00
  -13    7    6     -1.16      0.00
  -12    7    6     -2.42      0.00
  -11    7    6      0.76      0.00
  -10    7    6      3.96      0.00
   -9    7    6      3.51      0.00
   -8    7    6      1.72      0.00
   -7    7    6      0.57      0.00
   -6    7    6     -2.04      0.00
   -5    7    6     -6.57      0.00
   -4    7    6     -9.14      0.00
   -3    7    6     -6.68      0.00
   -2    7    6     -0.97      0.00
   -1    7    6      3.41      0.00
    0    7    6      3.54      0.00
    1    7    6      0.64      0.00
    2    7    6     -1.84      0.00
    3    7    6     -3.00      0.00
    4    7    6     -4.69      0.00
    5    7    6     -6.31      0.00
    6    7    6     -4.35      0.00
    7    7    6      1.16      0.00
    8    7    6      5.05      0.00
    9    7    6      3.83      0.00
   10    7    6     -0.11      0.00
   11    7    6     -2.19      0.00
   12    7    6     -1.11      0.00
   13    7    6      0.36      0.00
   14    7    6     -0.22      0.00
   15    7    6     -1.42      0.00
   16    7    6     -1.01      0.00
   17    7    6     -0.11      0.00
  -18    8    6      0.03      0.00
  -17    8    6     -1.16      0.00
  -16    8    6     -1.47      0.00
  -15    8    6      0.00      0.00
  -14    8    6      1.33      0.00
  -13    8    6      1.12      0.00
  -12    8    6      0.19      0.00
  -11    8    6     -0.73      0.00
  -10    8    6     -1.44      0.00
   -9    8    6     -0.66      0.00
   -8    8    6      2.54      0.00
   -7    8    6      5.78      0.00
   -6    8    6      5.27      0.00
   -5    8    6      1.27      0.00
   -4    8    6     -1.72      0.00
   -3    8    6     -1.69      0.00
   -2    8    6     -2.68      0.00
   -1    8    6     -8.34      0.00
    0    8    6    -14.66      0.00
    1    8    6    -14.26      0.00
    2    8    6     -6.53      0.00
    3    8    6      1.14      0.00
    4    8    6      2.67      0.00
    5    8    6      0.07      0.00
    6    8    6     -0.80      0.00
    7    8    6      1.17      0.00
    8    8    6      1.94      0.00
    9    8    6     -0.39      0.00
   10    8    6     -3.01      0.00
   11    8    6     -3.57      0.00
   12    8    6     -2.66      0.00
   13    8    6     -1.08      0.00
   14    8    6      1.00      0.00
   15    8    6      2.36      0.00
   16    8    6      1.92      0.00
   17    8    6      0.47      0.00
  -18    9    6     -0.39      0.00
  -17    9    6      0.51      0.00
  -16    9    6      0.09      0.00
  -15    9    6     -0.35      0.00
  -14    9    6     -0.36      0.00
  -13    9    6     -0.71      0.00
  -12    9    6     -0.30      0.00
  -11    9    6      1.33      0.00
  -10    9    6      1.16      0.00
   -9    9    6     -1.75      0.00
   -8    9    6     -2.89      0.00
   -7    9    6      0.46      0.00
   -6    9    6      3.95      0.00
   -5    9    6      2.76      0.00
   -4    9    6     -1.35      0.00
   -3    9    6     -3.25      0.00
   -2    9    6     -1.96      0.00
   -1    9    6     -1.77      0.00
    0    9    6     -5.47      0.00
    1    9    6     -9.68      0.00
    2    9    6     -9.17      0.00
    3    9    6     -4.42      0.00
    4    9    6     -1.05      0.00
    5    9    6     -1.95      0.00
    6    9    6     -3.46      0.00
    7    9    6     -1.06      0.00
    8    9    6      3.46      0.00
    9    9    6      4.49      0.00
   10    9    6      1.23      0.00
   11    9    6     -1.40      0.00
   12    9    6     -0.91      0.00
   13    9    6      0.13      0.00
   14    9    6     -0.09      0.00
   15    9    6     -0.21      0.00
   16    9    6      0.51      0.00
  -17   10    6     -1.13      0.00
  -16   10    6     -0.54      0.00
  -15   10    6      0.76      0.00
  -14   10    6      1.81      0.00
  -13   10    6      1.97      0.00
  -12   10    6      1.42      0.00
  -11   10    6      1.56      0.00
  -10   10    6      2.69      0.00
   -9   10    6      2.85      0.00
   -8   10    6      1.47      0.00
   -7   10    6      0.91      0.00
   -6   10    6      1.95      0.00
   -5   10    6      2.17      0.00
   -4   10    6      0.16      0.00
   -3   10    6     -2.45      0.00
   -2   10    6     -3.79      0.00
   -1   10    6     -4.27      0.00
    0   10    6     -5.47      0.00
    1   10    6     -6.64      0.00
    2   10    6     -4.70      0.00
    3   10    6      0.61      0.00
    4   10    6      5.09      0.00
    5   10    6      5.79      0.00
    6   10    6      4.17      0.00
    7   10    6      2.58      0.00
    8   10    6      1.80      0.00
    9   10    6      1.71      0.00
   10   10    6      1.54      0.00
   11   10    6      1.06      0.00
   12   10    6      1.53      0.00
   13   10    6      3.08      0.00
   14   10    6      3.39      0.00
   15   10    6      1.48      0.00
   16   10    6     -0.66      0.00
  -17   11    6     -1.45      0.00
  -16   11    6     -1.52      0.00
  -15   11    6     -0.01      0.00
  -14   11    6      0.69      0.00
  -13   11    6     -0.72      0.00
  -12   11    6     -2.27      0.00
  -11   11    6     -2.16      0.00
  -10   11    6     -1.48      0.00
   -9   11    6     -1.75      0.00
   -8   11    6     -1.96      0.00
   -7   11    6      0.03      0.00
   -6   11    6      3.51      0.00
   -5   11    6      5.35      0.00
   -4   11    6      4.44      0.00
   -3   11    6      2.61      0.00
   -2   11    6      1.06      0.00
   -1   11    6     -0.83      0.00
    0   11    6     -3.56      0.00
    1   11    6     -6.35      0.00
    2   11    6     -6.82      0.00
    3   11    6     -3.06      0.00
    4   11    6      2.12      0.00
    5   11    6      3.29      0.00
    6   11    6      0.66      0.00
    7   11    6     -0.14      0.00
    8   11    6      2.47      0.00
    9   11    6      4.13      0.00
   10   11    6      2.36      0.00
   11   11    6     -0.50      0.00
   12   11    6     -1.64      0.00
   13   11    6     -0.68      0.00
   14   11    6      0.95      0.00
   15   11    6      1.62      0.00
  -16   12    6     -1.86      0.00
  -15   12    6     -1.19      0.00
  -14   12    6     -0.14      0.00
  -13   12    6      0.35      0.00
  -12   12    6      0.18      0.00
  -11   12    6      0.48      0.00
  -10   12    6      1.73      0.00
   -9   12    6      2.22      0.00
   -8   12    6      0.52      0.00
   -7   12    6     -1.53      0.00
   -6   12    6     -1.35      0.00
   -5   12    6      0.07      0.00
   -4   12    6     -0.09      0.00
   -3   12    6     -1.58      0.00
   -2   12    6     -1.57      0.00
   -1   12    6      0.16      0.00
    0   12    6      0.62      0.00
    1   12    6     -1.21      0.00
    2   12    6     -2.72      0.00
    3   12    6     -2.21      0.00
    4   12    6     -1.16      0.00
    5   12    6     -1.37      0.00
    6   12    6     -2.74      0.00
    7   12    6     -3.81      0.00
    8   12    6     -2.93      0.00
    9   12    6      0.07      0.00
   10   12    6      3.10      0.00
   11   12    6      4.02      0.00
   12   12    6      2.67      0.00
   13   12    6      0.00      0.00
   14   12    6     -2.50      0.00
  -15   13    6     -1.94      0.00
  -14   13    6     -0.93      0.00
  -13   13    6     -0.84      0.00
  -12   13    6     -0.22      0.00
  -11   13    6      1.20      0.00
  -10   13    6      1.62      0.00
   -9   13    6      0.63      0.00
   -8   13    6      0.01      0.00
   -7   13    6      0.67      0.00
   -6   13    6      1.56      0.00
   -5   13    6      1.85      0.00
   -4   13    6      1.80      0.00
   -3   13    6      1.02      0.00
   -2   13    6     -0.96      0.00
   -1   13    6     -2.24      0.00
    0   13    6     -1.27      0.00
    1   13    6     -0.63      0.00
    2   13    6     -2.41      0.00
    3   13    6     -3.66      0.00
    4   13    6     -1.92      0.00
    5   13    6      0.12      0.00
    6   13    6     -0.07      0.00
    7   13    6     -1.28      0.00
    8   13    6     -1.90      0.00
    9   13    6     -1.68      0.00
   10   13    6     -0.77      0.00
   11   13    6      0.02      0.00
   12   13    6     -0.06      0.00
   13   13    6     -0.41      0.00
  -14   14    6      2.32      0.00
  -13   14    6      2.21      0.00
  -12   14    6      0.77      0.00
  -11   14    6      0.08      0.00
  -10   14    6      0.94      0.00
   -9   14    6      1.03      0.00
   -8   14    6     -0.86      0.00
   -7   14    6     -2.20      0.00
   -6   14    6     -0.97      0.00
   -5   14    6      0.74      0.00
   -4   14    6      0.56      0.00
   -3   14    6     -0.38      0.00
   -2   14    6     -0.16      0.00
   -1   14    6      0.92      0.00
    0   14    6      1.85      0.00
    1   14    6      2.09      0.00
    2   14    6      1.16      0.00
    3   14    6     -0.27      0.00
    4   14    6     -0.64      0.00
    5   14    6      0.00      0.00
    6   14    6      0.28      0.00
    7   14    6      0.04      0.00
    8   14    6      0.01      0.00
    9   14    6      0.30      0.00
   10   14    6      0.57      0.00
   11   14    6      0.22      0.00
   12   14    6     -1.19      0.00
  -12   15    6     -0.02      0.00
  -11   15    6      1.14      0.00
  -10   15    6      1.69      0.00
   -9   15    6      2.03      0.00
   -8   15    6      1.90      0.00
   -7   15    6      1.12      0.00
   -6   15    6      0.70      0.00
   -5   15    6      0.80      0.00
   -4   15    6      0.40      0.00
   -3   15    6     -0.60      0.00
   -2   15    6     -1.20      0.00
   -1   15    6     -0.98      0.00
    0   15    6     -0.14      0.00
    1   15    6      0.64      0.00
    2   15    6      0.32      0.00
    3   15    6     -0.86      0.00
    4   15    6     -1.47      0.00
    5   15    6     -1.19      0.00
    6   15    6     -0.80      0.00
    7   15    6     -0.33      0.00
    8   15    6      0.29      0.00
    9   15    6      0.47      0.00
   10   15    6      0.41      0.00
   11   15    6      0.90      0.00
  -11   16    6      3.11      0.00
  -10   16    6      2.82      0.00
   -9   16    6      1.82      0.00
   -8   16    6      0.68      0.00
   -7   16    6     -0.16      0.00
   -6   16    6     -0.33      0.00
   -5   16    6      0.24      0.00
   -4   16    6      0.75      0.00
   -3   16    6      0.45      0.00
   -2   16    6     -0.29      0.00
   -1   16    6     -0.72      0.00
    0   16    6     -0.74      0.00
    1   16    6     -0.65      0.00
    2   16    6     -0.82      0.00
    3   16    6     -1.20      0.00
    4   16    6     -1.11      0.00
    5   16    6     -0.30      0.00
    6   16    6      0.48      0.00
    7   16    6      0.80      0.00
    8   16    6      0.92      0.00
    9   16    6      0.78      0.00
   10   16    6      0.33      0.00
  -10   17    6      1.05      0.00
   -9   17    6      1.57      0.00
   -8   17    6      1.10      0.00
   -7   17    6     -0.51      0.00
   -6   17    6     -2.07      0.00
   -5   17    6     -2.35      0.00
   -4   17    6     -1.62      0.00
   -3   17    6     -1.13      0.00
   -2   17    6     -1.43      0.00
   -1   17    6     -1.59      0.00
    0   17    6     -0.74      0.00
    1   17    6      0.56      0.00
    2   17    6      1.08      0.00
    3   17    6      0.50      0.00
    4   17    6     -0.66      0.00
    5   17    6     -1.73      0.00
    6   17    6     -1.99      0.00
    7   17    6     -1.18      0.00
    8   17    6     -0.31      0.00
   -8   18    6     -0.40      0.00
   -7   18    6      0.16      0.00
   -6   18    6      1.43      0.00
   -5   18    6      2.12      0.00
   -4   18    6      1.38      0.00
   -3   18    6      0.31      0.00
   -2   18    6      0.38      0.00
   -1   18    6      1.01      0.00
    0   18    6      0.61      0.00
    1   18    6     -0.56      0.00
    2   18    6     -0.58      0.00
    3   18    6      1.13      0.00
    4   18    6      2.85      0.00
    6   18    6      0.82      0.00
   -2   19    6      1.37      0.00
   -1   19    6     -0.14      0.00
    0   19    6     -1.98      0.00
    1   19    6     -2.63      0.00
  -20    1    7     -1.56      0.00
  -19    1    7      0.38      0.00
  -18    1    7      2.33      0.00
  -17    1    7      1.82      0.00
  -16    1    7      1.10      0.00
  -15    1    7      2.46      0.00
  -14    1    7      2.30      0.00
  -13    1    7     -2.64      0.00
  -12    1    7     -7.48      0.00
  -11    1    7     -5.69      0.00
  -10    1    7     -0.67      0.00
   -9    1    7     -3.45      0.00
   -8    1    7    -17.23      0.00
   -7    1    7    -28.64      0.00
   -6    1    7    -20.47      0.00
   -5    1    7      6.03      0.00
   -4    1    7     30.58      0.00
   -3    1    7     40.38      0.00
   -2    1    7     44.94      0.00
   -1    1    7     53.48      0.00
    0    1    7     52.14      0.00
    1    1    7     24.30      0.00
    2    1    7    -16.29      0.00
    3    1    7    -37.41      0.00
    4    1    7    -29.23      0.00
    5    1    7    -11.42      0.00
    6    1    7     -2.43      0.00
    7    1    7     -1.71      0.00
    8    1    7     -1.17      0.00
    9    1    7      1.74      0.00
   10    1    7      4.06      0.00
   11    1    7      3.17      0.00
   12    1    7      0.63      0.00
   13    1    7     -0.14      0.00
   14    1    7      0.44      0.00
   15    1    7     -0.51      0.00
   16    1    7     -2.10      0.00
   17    1    7     -1.37      0.00
   18    1    7      0.66      0.00
  -20    2    7     -1.64      0.00
  -19    2    7     -3.39      0.00
  -18    2    7     -3.42      0.00
  -17    2    7     -2.21      0.00
  -16    2    7     -1.27      0.00
  -15    2    7      0.97      0.00
  -14    2    7      5.77      0.00
  -13    2    7      9.32      0.00
  -12    2    7      7.75      0.00
  -11    2    7      2.90      0.00
  -10    2    7     -0.97      0.00
   -9    2    7     -3.32      0.00
   -8    2    7     -8.99      0.00
   -7    2    7    -21.30      0.00
   -6    2    7    -30.47      0.00
   -5    2    7    -20.07      0.00
   -4    2    7      5.30      0.00
   -3    2    7     15.81      0.00
   -2    2    7     -3.11      0.00
   -1    2    7    -25.51      0.00
    0    2    7    -20.68      0.00
    1    2    7      4.36      0.00
    2    2    7     19.86      0.00
    3    2    7     16.01      0.00
    4    2    7      7.91      0.00
    5    2    7      6.20      0.00
    6    2    7      4.77      0.00
    7    2    7     -2.55      0.00
    8    2    7    -10.71      0.00
    9    2    7    -12.64      0.00
   10    2    7     -8.68      0.00
   11    2    7     -3.65      0.00
   12    2    7     -0.88      0.00
   13    2    7     -0.36      0.00
   14    2    7     -0.12      0.00
   15    2    7      0.60      0.00
   16    2    7      0.49      0.00
   17    2    7     -0.51      0.00
   18    2    7     -0.71      0.00
  -20    3    7      0.96      0.00
  -19    3    7      1.53      0.00
  -18    3    7      0.72      0.00
  -17    3    7     -0.65      0.00
  -16    3    7     -0.63      0.00
  -15    3    7      0.26      0.00
  -14    3    7      0.36      0.00
  -13    3    7     -0.74      0.00
  -12    3    7     -2.44      0.00
  -11    3    7     -3.71      0.00
  -10    3    7     -4.38      0.00
   -9    3    7     -4.98      0.00
   -8    3    7     -4.11      0.00
   -7    3    7     -0.27      0.00
   -6    3    7      3.65      0.00
   -5    3    7      2.86      0.00
   -4    3    7     -5.12      0.00
   -3    3    7    -20.10      0.00
   -2    3    7    -35.01      0.00
   -1    3    7    -35.90      0.00
    0    3    7    -18.53      0.00
    1    3    7      2.29      0.00
    2    3    7     11.29      0.00
    3    3    7      9.20      0.00
    4    3    7      4.19      0.00
    5    3    7      0.94      0.00
    6    3    7      1.08      0.00
    7    3    7      3.18      0.00
    8    3    7      3.76      0.00
    9    3    7      2.71      0.00
   10    3    7      2.57      0.00
   11    3    7      2.94      0.00
   12    3    7      1.72      0.00
   13    3    7     -0.73      0.00
   14    3    7     -2.41      0.00
   15    3    7     -1.97      0.00
   16    3    7      0.11      0.00
   17    3    7      1.54      0.00
   18    3    7      1.11      0.00
  -20    4    7      0.95      0.00
  -19    4    7      1.22      0.00
  -18    4    7      0.64      0.00
  -17    4    7     -1.49      0.00
  -16    4    7     -3.54      0.00
  -15    4    7     -3.10      0.00
  -14    4    7      0.01      0.00
  -13    4    7      2.83      0.00
  -12    4    7      1.99      0.00
  -11    4    7     -1.14      0.00
  -10    4    7     -1.12      0.00
   -9    4    7      2.54      0.00
   -8    4    7      2.40      0.00
   -7    4    7     -5.14      0.00
   -6    4    7    -11.13      0.00
   -5    4    7     -4.36      0.00
   -4    4    7     11.64      0.00
   -3    4    7     18.95      0.00
   -2    4    7      7.76      0.00
   -1    4    7     -6.58      0.00
    0    4    7     -1.90      0.00
    1    4    7     18.18      0.00
    2    4    7     29.18      0.00
    3    4    7     21.45      0.00
    4    4    7      8.88      0.00
    5    4    7      3.82      0.00
    6    4    7      3.94      0.00
    7    4    7      2.84      0.00
    8    4    7     -0.80      0.00
    9    4    7     -3.87      0.00
   10    4    7     -3.05      0.00
   11    4    7      0.35      0.00
   12    4    7      1.86      0.00
   13    4    7      0.98      0.00
   14    4    7      0.85      0.00
   15    4    7      1.65      0.00
   16    4    7      1.30      0.00
   17    4    7      0.12      0.00
   18    4    7     -0.53      0.00
  -20    5    7     -0.08      0.00
  -18    5    7      0.94      0.00
  -17    5    7      1.43      0.00
  -16    5    7      1.24      0.00
  -15    5    7      0.68      0.00
  -14    5    7      0.65      0.00
  -13    5    7      2.10      0.00
  -12    5    7      3.32      0.00
  -11    5    7      1.13      0.00
  -10    5    7     -2.76      0.00
   -9    5    7     -1.60      0.00
   -8    5    7      6.93      0.00
   -7    5    7     14.99      0.00
   -6    5    7     13.06      0.00
   -5    5    7      3.14      0.00
   -4    5    7     -2.75      0.00
   -3    5    7      0.30      0.00
   -2    5    7      2.42      0.00
   -1    5    7     -4.83      0.00
    0    5    7    -12.79      0.00
    1    5    7     -7.81      0.00
    2    5    7      6.67      0.00
    3    5    7     13.87      0.00
    4    5    7      7.57      0.00
    5    5    7     -1.38      0.00
    6    5    7     -2.93      0.00
    7    5    7      0.02      0.00
    8    5    7      0.39      0.00
    9    5    7     -2.23      0.00
   10    5    7     -3.47      0.00
   11    5    7     -1.47      0.00
   12    5    7      1.07      0.00
   13    5    7      1.02      0.00
   14    5    7     -0.92      0.00
   15    5    7     -1.91      0.00
   16    5    7     -1.69      0.00
   18    5    7     -2.20      0.00
  -19    6    7      3.03      0.00
  -18    6    7      3.97      0.00
  -17    6    7      2.39      0.00
  -16    6    7      0.57      0.00
  -15    6    7      0.78      0.00
  -14    6    7      1.37      0.00
  -13    6    7      0.55      0.00
  -12    6    7     -0.31      0.00
  -11    6    7      0.53      0.00
  -10    6    7      2.55      0.00
   -9    6    7      3.68      0.00
   -8    6    7      2.10      0.00
   -7    6    7     -1.99      0.00
   -6    6    7     -6.53      0.00
   -5    6    7     -9.15      0.00
   -4    6    7     -8.39      0.00
   -3    6    7     -4.85      0.00
   -2    6    7     -1.43      0.00
   -1    6    7      0.19      0.00
    0    6    7      1.59      0.00
    1    6    7      3.46      0.00
    2    6    7      2.68      0.00
    3    6    7     -3.18      0.00
    4    6    7    -11.36      0.00
    5    6    7    -15.94      0.00
    6    6    7    -13.62      0.00
    7    6    7     -7.19      0.00
    8    6    7     -2.30      0.00
    9    6    7     -1.05      0.00
   10    6    7     -1.47      0.00
   11    6    7     -1.80      0.00
   12    6    7     -1.49      0.00
   13    6    7     -0.32      0.00
   14    6    7      0.78      0.00
   15    6    7      0.72      0.00
   16    6    7      0.08      0.00
   17    6    7     -0.34      0.00
  -19    7    7      1.68      0.00
  -18    7    7      3.13      0.00
  -16    7    7      1.62      0.00
  -15    7    7      1.40      0.00
  -14    7    7      1.11      0.00
  -13    7    7      1.03      0.00
  -12    7    7      1.81      0.00
  -11    7    7      1.56      0.00
  -10    7    7      0.02      0.00
   -9    7    7      1.12      0.00
   -8    7    7      5.49      0.00
   -7    7    7      6.80      0.00
   -6    7    7      0.68      0.00
   -5    7    7     -8.22      0.00
   -4    7    7    -11.71      0.00
   -3    7    7     -7.84      0.00
   -2    7    7     -3.63      0.00
   -1    7    7     -5.96      0.00
    0    7    7    -11.03      0.00
    1    7    7     -8.92      0.00
    2    7    7      0.92      0.00
    3    7    7      8.02      0.00
    4    7    7      5.89      0.00
    5    7    7      0.05      0.00
    6    7    7     -1.51      0.00
    7    7    7      1.02      0.00
    8    7    7      1.74      0.00
    9    7    7     -1.39      0.00
   10    7    7     -4.48      0.00
   11    7    7     -4.41      0.00
   12    7    7     -2.60      0.00
   13    7    7     -0.98      0.00
   14    7    7      0.83      0.00
   15    7    7      2.89      0.00
   16    7    7      3.64      0.00
   17    7    7      2.51      0.00
  -19    8    7     -1.11      0.00
  -18    8    7     -0.45      0.00
  -17    8    7     -0.91      0.00
  -16    8    7     -2.03      0.00
  -15    8    7     -1.41      0.00
  -14    8    7     -0.61      0.00
  -13    8    7     -2.17      0.00
  -12    8    7     -3.16      0.00
  -11    8    7     -0.96      0.00
  -10    8    7      0.67      0.00
   -9    8    7     -0.60      0.00
   -8    8    7     -0.39      0.00
   -7    8    7      3.28      0.00
   -6    8    7      5.12      0.00
   -5    8    7      1.49      0.00
   -4    8    7     -3.66      0.00
   -3    8    7     -4.49      0.00
   -2    8    7     -0.54      0.00
   -1    8    7      3.28      0.00
    0    8    7      2.78      0.00
    1    8    7     -0.18      0.00
    2    8    7     -0.83      0.00
    3    8    7      1.10      0.00
    4    8    7      1.41      0.00
    5    8    7     -1.07      0.00
    6    8    7     -2.10      0.00
    7    8    7      1.36      0.00
    8    8    7      5.88      0.00
    9    8    7      5.79      0.00
   10    8    7      1.10      0.00
   11    8    7     -2.49      0.00
   12    8    7     -1.80      0.00
   13    8    7      0.13      0.00
   14    8    7     -0.05      0.00
   15    8    7     -1.18      0.00
   16    8    7     -1.01      0.00
   17    8    7     -0.15      0.00
  -18    9    7      1.57      0.00
  -17    9    7     -0.31      0.00
  -16    9    7     -1.31      0.00
  -15    9    7     -0.32      0.00
  -14    9    7      1.39      0.00
  -13    9    7      2.16      0.00
  -12    9    7      2.46      0.00
  -11    9    7      3.85      0.00
  -10    9    7      5.60      0.00
   -9    9    7      5.45      0.00
   -8    9    7      3.75      0.00
   -7    9    7      2.57      0.00
   -6    9    7      1.24      0.00
   -5    9    7     -2.11      0.00
   -4    9    7     -5.65      0.00
   -3    9    7     -6.01      0.00
   -2    9    7     -3.97      0.00
   -1    9    7     -3.22      0.00
    0    9    7     -4.83      0.00
    1    9    7     -5.70      0.00
    2    9    7     -2.96      0.00
    3    9    7      1.66      0.00
    4    9    7      3.55      0.00
    5    9    7      1.75      0.00
    6    9    7     -0.20      0.00
    7    9    7     -0.18      0.00
    8    9    7      0.21      0.00
    9    9    7     -0.27      0.00
   10    9    7     -0.94      0.00
   11    9    7     -1.24      0.00
   12    9    7     -0.89      0.00
   13    9    7      0.43      0.00
   14    9    7      2.08      0.00
   15    9    7      2.91      0.00
   16    9    7      2.55      0.00
  -17   10    7      0.41      0.00
  -16   10    7     -0.43      0.00
  -15   10    7     -1.32      0.00
  -14   10    7     -1.76      0.00
  -13   10    7     -2.31      0.00
  -12   10    7     -2.40      0.00
  -11   10    7     -1.25      0.00
  -10   10    7     -0.32      0.00
   -9   10    7     -0.94      0.00
   -8   10    7     -1.07      0.00
   -7   10    7      1.86      0.00
   -6   10    7      6.09      0.00
   -5   10    7      7.10      0.00
   -4   10    7      4.06      0.00
   -3   10    7      0.81      0.00
   -2   10    7     -0.42      0.00
   -1   10    7     -1.96      0.00
    0   10    7     -5.61      0.00
    1   10    7     -8.77      0.00
    2   10    7     -7.64      0.00
    3   10    7     -2.14      0.00
    4   10    7      3.21      0.00
    5   10    7      3.76      0.00
    6   10    7      0.66      0.00
    7   10    7     -0.50      0.00
    8   10    7      1.77      0.00
    9   10    7      2.93      0.00
   10   10    7      0.22      0.00
   11   10    7     -3.49      0.00
   12   10    7     -4.67      0.00
   13   10    7     -3.05      0.00
   14   10    7     -0.56      0.00
   15   10    7      0.80      0.00
   16   10    7      0.51      0.00
  -17   11    7     -0.39      0.00
  -16   11    7     -0.18      0.00
  -15   11    7      0.30      0.00
  -14   11    7      1.02      0.00
  -13   11    7      1.77      0.00
  -12   11    7      2.01      0.00
  -11   11    7      2.32      0.00
  -10   11    7      3.40      0.00
   -9   11    7      3.84      0.00
   -8   11    7      2.10      0.00
   -7   11    7     -0.24      0.00
   -6   11    7     -0.53      0.00
   -5   11    7      0.73      0.00
   -4   11    7      0.70      0.00
   -3   11    7     -0.89      0.00
   -2   11    7     -1.20      0.00
   -1   11    7      0.25      0.00
    0   11    7     -0.01      0.00
    1   11    7     -3.00      0.00
    2   11    7     -4.64      0.00
    3   11    7     -2.61      0.00
    4   11    7      0.04      0.00
    5   11    7      0.32      0.00
    6   11    7     -1.16      0.00
    7   11    7     -2.51      0.00
    8   11    7     -2.46      0.00
    9   11    7     -1.03      0.00
   10   11    7      0.30      0.00
   11   11    7      0.63      0.00
   12   11    7      0.77      0.00
   13   11    7      1.04      0.00
   14   11    7      0.83      0.00
   15   11    7      0.47      0.00
  -16   12    7     -3.86      0.00
  -15   12    7     -2.94      0.00
  -14   12    7     -1.46      0.00
  -13   12    7     -1.32      0.00
  -12   12    7     -1.27      0.00
  -11   12    7     -0.09      0.00
  -10   12    7      0.98      0.00
   -9   12    7      0.80      0.00
   -8   12    7      0.47      0.00
   -7   12    7      1.20      0.00
   -6   12    7      2.24      0.00
   -5   12    7      2.43      0.00
   -4   12    7      1.93      0.00
   -3   12    7      0.74      0.00
   -2   12    7     -1.40      0.00
   -1   12    7     -2.97      0.00
    0   12    7     -2.83      0.00
    1   12    7     -3.09      0.00
    2   12    7     -4.71      0.00
    3   12    7     -4.19      0.00
    4   12    7     -0.11      0.00
    5   12    7      3.14      0.00
    6   12    7      2.60      0.00
    7   12    7      0.84      0.00
    8   12    7      0.48      0.00
    9   12    7      0.78      0.00
   10   12    7      0.36      0.00
   11   12    7     -0.55      0.00
   12   12    7     -0.67      0.00
   13   12    7      0.54      0.00
   14   12    7      1.76      0.00
  -15   13    7      2.13      0.00
  -14   13    7      2.63      0.00
  -13   13    7      1.74      0.00
  -12   13    7     -0.11      0.00
  -11   13    7     -0.39      0.00
  -10   13    7      1.69      0.00
   -9   13    7      3.10      0.00
   -8   13    7      1.65      0.00
   -7   13    7     -0.17      0.00
   -6   13    7      0.54      0.00
   -5   13    7      2.12      0.00
   -4   13    7      1.62      0.00
   -3   13    7     -0.23      0.00
   -2   13    7     -0.91      0.00
   -1   13    7     -0.25      0.00
    0   13    7      0.05      0.00
    1   13    7     -0.78      0.00
    2   13    7     -1.81      0.00
    3   13    7     -1.70      0.00
    4   13    7     -0.53      0.00
    5   13    7      0.18      0.00
    6   13    7     -0.45      0.00
    7   13    7     -1.48      0.00
    8   13    7     -1.42      0.00
    9   13    7      0.06      0.00
   10   13    7      1.84      0.00
   11   13    7      2.12      0.00
   12   13    7      0.17      0.00
   13   13    7     -2.47      0.00
  -14   14    7      0.17      0.00
  -13   14    7      0.18      0.00
  -12   14    7      0.52      0.00
  -11   14    7      1.05      0.00
  -10   14    7      1.14      0.00
   -9   14    7      1.05      0.00
   -8   14    7      1.23      0.00
   -7   14    7      1.69      0.00
   -6   14    7      2.28      0.00
   -5   14    7      2.54      0.00
   -4   14    7      2.05      0.00
   -3   14    7      0.88      0.00
   -2   14    7     -0.57      0.00
   -1   14    7     -1.40      0.00
    0   14    7     -0.77      0.00
    1   14    7      0.29      0.00
    2   14    7     -0.03      0.00
    3   14    7     -1.01      0.00
    4   14    7     -0.71      0.00
    5   14    7      0.42      0.00
    6   14    7      0.79      0.00
    7   14    7      0.46      0.00
    8   14    7      0.18      0.00
    9   14    7      0.26      0.00
   10   14    7      0.90      0.00
   11   14    7      1.78      0.00
   12   14    7      1.90      0.00
  -13   15    7      1.29      0.00
  -12   15    7      1.84      0.00
  -11   15    7      2.01      0.00
  -10   15    7      1.73      0.00
   -9   15    7      0.53      0.00
   -8   15    7     -1.20      0.00
   -7   15    7     -1.92      0.00
   -6   15    7     -0.72      0.00
   -5   15    7      1.21      0.00
   -4   15    7      2.08      0.00
   -3   15    7      1.70      0.00
   -2   15    7      1.14      0.00
   -1   15    7      1.11      0.00
    0   15    7      1.53      0.00
    1   15    7      1.59      0.00
    2   15    7      0.46      0.00
    3   15    7     -1.18      0.00
    4   15    7     -1.70      0.00
    5   15    7     -1.06      0.00
    6   15    7     -0.53      0.00
    7   15    7     -0.45      0.00
    8   15    7     -0.38      0.00
    9   15    7     -0.20      0.00
   10   15    7      0.16      0.00
   11   15    7      0.50      0.00
  -11   16    7     -1.89      0.00
  -10   16    7     -0.32      0.00
   -9   16    7      1.50      0.00
   -8   16    7      1.96      0.00
   -7   16    7      0.75      0.00
   -6   16    7     -0.22      0.00
   -5   16    7      0.01      0.00
   -4   16    7      0.05      0.00
   -3   16    7     -0.89      0.00
   -2   16    7     -1.75      0.00
   -1   16    7     -1.37      0.00
    0   16    7      0.25      0.00
    1   16    7      1.90      0.00
    2   16    7      1.85      0.00
    3   16    7      0.09      0.00
    4   16    7     -1.52      0.00
    5   16    7     -2.04      0.00
    6   16    7     -1.81      0.00
    7   16    7     -0.85      0.00
    8   16    7      0.17      0.00
    9   16    7     -0.29      0.00
  -10   17    7      1.98      0.00
   -9   17    7      1.40      0.00
   -8   17    7      0.78      0.00
   -7   17    7      0.65      0.00
   -6   17    7      1.24      0.00
   -5   17    7      2.11      0.00
   -4   17    7      1.91      0.00
   -3   17    7      0.33      0.00
   -2   17    7     -1.01      0.00
   -1   17    7     -1.02      0.00
    0   17    7     -0.55      0.00
    1   17    7     -0.36      0.00
    2   17    7     -0.06      0.00
    3   17    7      0.83      0.00
    4   17    7      2.28      0.00
    5   17    7      3.52      0.00
    6   17    7      3.27      0.00
    7   17    7      1.82      0.00
    8   17    7      1.08      0.00
   -7   18    7     -0.01      0.00
   -6   18    7     -1.76      0.00
   -5   18    7     -2.48      0.00
   -4   18    7     -1.02      0.00
   -3   18    7      0.93      0.00
   -2   18    7      0.97      0.00
   -1   18    7     -0.61      0.00
    0   18    7     -1.77      0.00
    1   18    7     -1.77      0.00
    2   18    7     -1.48      0.00
    3   18    7     -1.73      0.00
    4   18    7     -2.64      0.00
    5   18    7     -3.48      0.00
   -2   19    7     -1.31      0.00
   -1   19    7      0.04      0.00
    0   19    7      0.74      0.00
    1   19    7      0.02      0.00
  -20    0    8     -1.19      0.00
  -19    0    8      1.78      0.00
  -18    0    8      4.22      0.00
  -17    0    8      2.75      0.00
  -16    0    8      0.27      0.00
  -15    0    8      0.37      0.00
  -14    0    8     -0.71      0.00
  -13    0    8     -7.03      0.00
  -12    0    8    -13.02      0.00
  -11    0    8     -9.67      0.00
  -10    0    8      1.47      0.00
   -9    0    8      7.06      0.00
   -8    0    8     -1.99      0.00
   -7    0    8    -16.14      0.00
   -6    0    8    -17.28      0.00
   -5    0    8     -3.63      0.00
   -4    0    8      9.04      0.00
   -3    0    8     13.62      0.00
   -2    0    8     20.48      0.00
   -1    0    8     32.03      0.00
    0    0    8     28.41      0.00
    1    0    8     -4.89      0.00
    2    0    8    -48.12      0.00
    3    0    8    -65.91      0.00
    4    0    8    -49.44      0.00
    5    0    8    -21.72      0.00
    6    0    8     -4.38      0.00
    7    0    8      2.02      0.00
    8    0    8      5.62      0.00
    9    0    8      8.87      0.00
   10    0    8      9.44      0.00
   11    0    8      6.33      0.00
   12    0    8      2.56      0.00
   13    0    8      2.04      0.00
   14    0    8      3.60      0.00
   15    0    8      2.87      0.00
   16    0    8      0.27      0.00
   17    0    8     -0.21      0.00
   18    0    8      1.10      0.00
  -20    1    8     -1.55      0.00
  -19    1    8     -1.68      0.00
  -18    1    8     -0.47      0.00
  -17    1    8      0.78      0.00
  -16    1    8      0.42      0.00
  -15    1    8      0.10      0.00
  -14    1    8      1.53      0.00
  -13    1    8      2.78      0.00
  -12    1    8      1.87      0.00
  -11    1    8     -0.03      0.00
  -10    1    8     -1.18      0.00
   -9    1    8     -2.18      0.00
   -8    1    8     -6.07      0.00
   -7    1    8    -14.68      0.00
   -6    1    8    -21.50      0.00
   -5    1    8    -14.07      0.00
   -4    1    8      8.65      0.00
   -3    1    8     29.50      0.00
   -2    1    8     32.96      0.00
   -1    1    8     23.46      0.00
    0    1    8     14.97      0.00
    1    1    8     11.16      0.00
    2    1    8      6.06      0.00
    3    1    8     -1.03      0.00
    4    1    8     -3.08      0.00
    5    1    8      1.95      0.00
    6    1    8      6.06      0.00
    7    1    8      3.24      0.00
    8    1    8     -2.10      0.00
    9    1    8     -3.59      0.00
   10    1    8     -1.69      0.00
   11    1    8     -0.15      0.00
   12    1    8     -0.04      0.00
   13    1    8     -0.23      0.00
   14    1    8      0.04      0.00
   15    1    8      0.38      0.00
   16    1    8      0.21      0.00
   17    1    8     -0.01      0.00
   18    1    8      0.52      0.00
  -20    2    8     -3.09      0.00
  -19    2    8     -2.47      0.00
  -18    2    8     -1.32      0.00
  -17    2    8     -1.12      0.00
  -16    2    8     -0.96      0.00
  -15    2    8     -0.26      0.00
  -14    2    8     -1.05      0.00
  -13    2    8     -4.77      0.00
  -12    2    8     -8.57      0.00
  -11    2    8     -7.98      0.00
  -10    2    8     -3.82      0.00
   -9    2    8     -2.46      0.00
   -8    2    8     -6.38      0.00
   -7    2    8     -8.91      0.00
   -6    2    8     -2.65      0.00
   -5    2    8      9.39      0.00
   -4    2    8     14.95      0.00
   -3    2    8      7.19      0.00
   -2    2    8     -3.80      0.00
   -1    2    8     -2.39      0.00
    0    2    8      8.97      0.00
    1    2    8     12.00      0.00
    2    2    8      1.11      0.00
    3    2    8     -9.19      0.00
    4    2    8     -8.17      0.00
    5    2    8     -1.08      0.00
    6    2    8      3.96      0.00
    7    2    8      5.45      0.00
    8    2    8      5.19      0.00
    9    2    8      5.08      0.00
   10    2    8      5.45      0.00
   11    2    8      4.41      0.00
   12    2    8      1.54      0.00
   13    2    8     -0.72      0.00
   14    2    8     -1.49      0.00
   15    2    8     -2.04      0.00
   16    2    8     -2.17      0.00
   17    2    8     -1.07      0.00
   18    2    8      0.16      0.00
  -20    3    8      1.45      0.00
  -19    3    8      0.58      0.00
  -18    3    8     -0.29      0.00
  -17    3    8     -1.20      0.00
  -16    3    8     -1.84      0.00
  -15    3    8     -0.23      0.00
  -14    3    8      3.88      0.00
  -13    3    8      6.46      0.00
  -12    3    8      3.81      0.00
  -11    3    8     -1.80      0.00
  -10    3    8     -4.63      0.00
   -9    3    8     -4.13      0.00
   -8    3    8     -7.34      0.00
   -7    3    8    -18.09      0.00
   -6    3    8    -25.05      0.00
   -5    3    8    -11.07      0.00
   -4    3    8     20.71      0.00
   -3    3    8     42.62      0.00
   -2    3    8     35.69      0.00
   -1    3    8     15.40      0.00
    0    3    8      8.36      0.00
    1    3    8     14.33      0.00
    2    3    8     12.74      0.00
    3    3    8     -1.25      0.00
    4    3    8    -11.74      0.00
    5    3    8     -9.81      0.00
    6    3    8     -4.04      0.00
    7    3    8     -3.47      0.00
    8    3    8     -6.74      0.00
    9    3    8     -8.29      0.00
   10    3    8     -5.67      0.00
   11    3    8     -0.88      0.00
   12    3    8      2.29      0.00
   13    3    8      2.97      0.00
   14    3    8      3.36      0.00
   15    3    8      3.80      0.00
   16    3    8      2.86      0.00
   17    3    8      1.32      0.00
   18    3    8      0.85      0.00
  -20    4    8      1.02      0.00
  -19    4    8      1.49      0.00
  -18    4    8      1.13      0.00
  -17    4    8      0.18      0.00
  -16    4    8     -0.20      0.00
  -15    4    8      0.19      0.00
  -14    4    8      1.07      0.00
  -13    4    8      2.20      0.00
  -12    4    8      2.34      0.00
  -11    4    8     -0.12      0.00
  -10    4    8     -4.82      0.00
   -9    4    8     -8.11      0.00
   -8    4    8     -5.67      0.00
   -7    4    8      0.89      0.00
   -6    4    8      3.94      0.00
   -5    4    8      0.40      0.00
   -4    4    8     -4.49      0.00
   -3    4    8     -8.33      0.00
   -2    4    8    -15.13      0.00
   -1    4    8    -23.18      0.00
    0    4    8    -22.35      0.00
    1    4    8     -8.74      0.00
    2    4    8      7.79      0.00
    3    4    8     14.65      0.00
    4    4    8      9.87      0.00
    5    4    8      2.25      0.00
    6    4    8     -0.50      0.00
    7    4    8      0.06      0.00
    8    4    8     -1.23      0.00
    9    4    8     -4.12      0.00
   10    4    8     -4.60      0.00
   11    4    8     -1.78      0.00
   12    4    8      1.19      0.00
   13    4    8      1.56      0.00
   14    4    8      0.25      0.00
   15    4    8      0.15      0.00
   16    4    8      1.47      0.00
   17    4    8      1.79      0.00
   18    4    8      0.70      0.00
  -20    5    8      2.16      0.00
  -18    5    8      4.97      0.00
  -17    5    8      3.91      0.00
  -16    5    8      1.47      0.00
  -15    5    8     -0.18      0.00
  -14    5    8     -0.25      0.00
  -13    5    8      0.01      0.00
  -12    5    8     -1.49      0.00
  -11    5    8     -4.17      0.00
  -10    5    8     -4.53      0.00
   -9    5    8     -2.22      0.00
   -8    5    8     -1.64      0.00
   -7    5    8     -4.54      0.00
   -6    5    8     -6.32      0.00
   -5    5    8     -2.37      0.00
   -4    5    8      5.50      0.00
   -3    5    8      9.36      0.00
   -2    5    8      3.52      0.00
   -1    5    8     -5.93      0.00
    0    5    8     -6.54      0.00
    1    5    8      2.54      0.00
    2    5    8      8.44      0.00
    3    5    8      3.40      0.00
    4    5    8     -6.14      0.00
    5    5    8    -10.60      0.00
    6    5    8     -7.90      0.00
    7    5    8     -2.76      0.00
    8    5    8     -0.32      0.00
    9    5    8     -0.66      0.00
   10    5    8     -0.55      0.00
   11    5    8      0.29      0.00
   12    5    8     -0.16      0.00
   13    5    8     -0.99      0.00
   14    5    8     -0.14      0.00
   15    5    8      1.48      0.00
   16    5    8      1.99      0.00
  -19    6    8     -2.37      0.00
  -18    6    8     -1.25      0.00
  -17    6    8     -0.05      0.00
  -16    6    8      0.76      0.00
  -15    6    8      0.83      0.00
  -14    6    8      0.47      0.00
  -13    6    8      1.80      0.00
  -12    6    8      4.15      0.00
  -11    6    8      2.66      0.00
  -10    6    8     -2.78      0.00
   -9    6    8     -5.09      0.00
   -8    6    8     -1.68      0.00
   -7    6    8      0.30      0.00
   -6    6    8     -5.02      0.00
   -5    6    8    -12.95      0.00
   -4    6    8    -13.63      0.00
   -3    6    8     -4.81      0.00
   -2    6    8      3.45      0.00
   -1    6    8      1.17      0.00
    0    6    8     -6.14      0.00
    1    6    8     -4.56      0.00
    2    6    8      6.45      0.00
    3    6    8     12.85      0.00
    4    6    8      7.42      0.00
    5    6    8     -1.30      0.00
    6    6    8     -3.53      0.00
    7    6    8     -0.56      0.00
    8    6    8      0.86      0.00
    9    6    8     -0.97      0.00
   10    6    8     -2.27      0.00
   11    6    8     -0.85      0.00
   12    6    8      1.01      0.00
   13    6    8      1.33      0.00
   14    6    8      1.43      0.00
   15    6    8      2.61      0.00
   16    6    8      3.43      0.00
   17    6    8      2.48      0.00
  -19    7    8     -0.05      0.00
  -18    7    8      0.80      0.00
  -17    7    8      0.13      0.00
  -16    7    8     -0.99      0.00
  -15    7    8      0.17      0.00
  -14    7    8      1.74      0.00
  -13    7    8      0.43      0.00
  -12    7    8     -1.70      0.00
  -11    7    8     -1.45      0.00
  -10    7    8     -0.36      0.00
   -9    7    8     -0.20      0.00
   -8    7    8      1.01      0.00
   -7    7    8      3.78      0.00
   -6    7    8      4.32      0.00
   -5    7    8      0.68      0.00
   -4    7    8     -3.46      0.00
   -3    7    8     -3.46      0.00
   -2    7    8      0.72      0.00
   -1    7    8      5.14      0.00
    0    7    8      6.91      0.00
    1    7    8      7.09      0.00
    2    7    8      7.47      0.00
    3    7    8      6.57      0.00
    4    7    8      2.12      0.00
    5    7    8     -3.67      0.00
    6    7    8     -5.56      0.00
    7    7    8     -1.96      0.00
    8    7    8      3.14      0.00
    9    7    8      4.94      0.00
   10    7    8      2.74      0.00
   11    7    8     -0.03      0.00
   12    7    8     -0.14      0.00
   13    7    8      1.49      0.00
   14    7    8      1.52      0.00
   15    7    8     -0.65      0.00
   16    7    8     -2.52      0.00
   17    7    8     -2.68      0.00
  -19    8    8      1.99      0.00
  -18    8    8      2.19      0.00
  -17    8    8     -0.14      0.00
  -16    8    8     -1.84      0.00
  -14    8    8      1.01      0.00
  -13    8    8      1.62      0.00
  -12    8    8      2.01      0.00
  -11    8    8      2.79      0.00
  -10    8    8      3.02      0.00
   -9    8    8      2.59      0.00
   -8    8    8      2.22      0.00
   -7    8    8      1.13      0.00
   -6    8    8     -2.52      0.00
   -5    8    8     -7.78      0.00
   -4    8    8     -9.74      0.00
   -3    8    8     -5.19      0.00
   -2    8    8      1.81      0.00
   -1    8    8      4.36      0.00
    0    8    8      1.89      0.00
    1    8    8      0.12      0.00
    2    8    8      2.28      0.00
    3    8    8      4.65      0.00
    4    8    8      2.47      0.00
    5    8    8     -2.69      0.00
    6    8    8     -5.02      0.00
    7    8    8     -2.97      0.00
    8    8    8     -0.70      0.00
    9    8    8     -0.87      0.00
   10    8    8     -1.77      0.00
   11    8    8     -1.90      0.00
   12    8    8     -1.84      0.00
   13    8    8     -1.70      0.00
   14    8    8     -0.75      0.00
   15    8    8      1.00      0.00
   16    8    8      2.48      0.00
  -18    9    8     -0.86      0.00
  -17    9    8     -0.60      0.00
  -16    9    8     -1.72      0.00
  -15    9    8     -2.17      0.00
  -14    9    8     -1.69      0.00
  -13    9    8     -2.06      0.00
  -12    9    8     -2.09      0.00
  -11    9    8     -0.23      0.00
  -10    9    8      0.83      0.00
   -9    9    8     -0.79      0.00
   -8    9    8     -1.45      0.00
   -7    9    8      1.72      0.00
   -6    9    8      5.14      0.00
   -5    9    8      3.83      0.00
   -4    9    8     -1.19      0.00
   -3    9    8     -4.21      0.00
   -2    9    8     -2.91      0.00
   -1    9    8     -1.44      0.00
    0    9    8     -3.52      0.00
    1    9    8     -6.51      0.00
    2    9    8     -5.83      0.00
    3    9    8     -1.81      0.00
    4    9    8      0.92      0.00
    5    9    8     -0.52      0.00
    6    9    8     -3.45      0.00
    7    9    8     -3.08      0.00
    8    9    8      0.53      0.00
    9    9    8      2.39      0.00
   10    9    8      0.28      0.00
   11    9    8     -2.44      0.00
   12    9    8     -2.53      0.00
   13    9    8     -0.54      0.00
   14    9    8      1.37      0.00
   15    9    8      1.99      0.00
   16    9    8      1.56      0.00
  -16   10    8      0.47      0.00
  -15   10    8      0.02      0.00
  -14   10    8      0.44      0.00
  -13   10    8      0.89      0.00
  -12   10    8      0.76      0.00
  -11   10    8      1.21      0.00
  -10   10    8      2.62      0.00
   -9   10    8      2.89      0.00
   -8   10    8      1.02      0.00
   -7   10    8     -0.90      0.00
   -6   10    8     -1.24      0.00
   -5   10    8     -1.21      0.00
   -4   10    8     -2.10      0.00
   -3   10    8     -2.60      0.00
   -2   10    8     -0.69      0.00
   -1   10    8      2.36      0.00
    0   10    8      2.77      0.00
    1   10    8      0.16      0.00
    2   10    8     -1.23      0.00
    3   10    8      0.50      0.00
    4   10    8      2.20      0.00
    5   10    8      1.65      0.00
    6   10    8      0.51      0.00
    7   10    8      0.36      0.00
    8   10    8      0.68      0.00
    9   10    8      0.66      0.00
   10   10    8     -0.01      0.00
   11   10    8     -0.99      0.00
   12   10    8     -1.36      0.00
   13   10    8     -0.76      0.00
   14   10    8      0.33      0.00
   15   10    8      1.45      0.00
  -17   11    8      1.33      0.00
  -16   11    8      0.30      0.00
  -15   11    8     -0.31      0.00
  -14   11    8     -0.27      0.00
  -13   11    8     -0.42      0.00
  -12   11    8     -0.45      0.00
  -11   11    8      0.45      0.00
  -10   11    8      1.43      0.00
   -9   11    8      1.20      0.00
   -8   11    8      0.59      0.00
   -7   11    8      1.38      0.00
   -6   11    8      3.00      0.00
   -5   11    8      3.10      0.00
   -4   11    8      1.33      0.00
   -3   11    8     -0.50      0.00
   -2   11    8     -1.33      0.00
   -1   11    8     -1.46      0.00
    0   11    8     -1.56      0.00
    1   11    8     -2.25      0.00
    2   11    8     -2.67      0.00
    3   11    8     -0.30      0.00
    4   11    8      4.67      0.00
    5   11    8      7.67      0.00
    6   11    8      6.17      0.00
    7   11    8      3.45      0.00
    8   11    8      2.92      0.00
    9   11    8      3.30      0.00
   10   11    8      1.93      0.00
   11   11    8     -0.78      0.00
   12   11    8     -2.08      0.00
   13   11    8     -0.48      0.00
   14   11    8      2.13      0.00
   15   11    8      2.84      0.00
  -16   12    8      0.38      0.00
  -15   12    8      0.55      0.00
  -14   12    8      0.51      0.00
  -13   12    8     -0.27      0.00
  -12   12    8     -1.85      0.00
  -11   12    8     -2.50      0.00
  -10   12    8     -0.70      0.00
   -9   12    8      1.50      0.00
   -8   12    8      1.05      0.00
   -7   12    8     -0.95      0.00
   -6   12    8     -0.94      0.00
   -5   12    8      1.11      0.00
   -4   12    8      2.03      0.00
   -3   12    8      1.09      0.00
   -2   12    8      0.92      0.00
   -1   12    8      2.18      0.00
    0   12    8      1.98      0.00
    1   12    8     -0.74      0.00
    2   12    8     -2.73      0.00
    3   12    8     -1.53      0.00
    4   12    8      0.91      0.00
    5   12    8      1.61      0.00
    6   12    8      0.24      0.00
    7   12    8     -1.40      0.00
    8   12    8     -1.67      0.00
    9   12    8     -0.56      0.00
   10   12    8      0.43      0.00
   11   12    8      0.13      0.00
   12   12    8     -1.23      0.00
   13   12    8     -2.56      0.00
   14   12    8     -2.83      0.00
  -15   13    8     -2.62      0.00
  -14   13    8     -1.75      0.00
  -13   13    8     -1.30      0.00
  -12   13    8     -0.72      0.00
  -11   13    8      0.34      0.00
  -10   13    8      1.06      0.00
   -9   13    8      1.25      0.00
   -8   13    8      1.59      0.00
   -7   13    8      1.86      0.00
   -6   13    8      1.12      0.00
   -5   13    8     -0.39      0.00
   -4   13    8     -1.42      0.00
   -3   13    8     -2.01      0.00
   -2   13    8     -3.05      0.00
   -1   13    8     -3.59      0.00
    0   13    8     -2.31      0.00
    1   13    8     -0.98      0.00
    2   13    8     -1.62      0.00
    3   13    8     -2.42      0.00
    4   13    8     -1.21      0.00
    5   13    8      0.44      0.00
    6   13    8      0.28      0.00
    7   13    8     -1.03      0.00
    8   13    8     -1.67      0.00
    9   13    8     -1.17      0.00
   10   13    8     -0.24      0.00
   11   13    8      0.32      0.00
   12   13    8      0.52      0.00
   13   13    8      0.59      0.00
  -14   14    8      1.28      0.00
  -13   14    8      1.78      0.00
  -12   14    8      1.23      0.00
  -11   14    8      1.18      0.00
  -10   14    8      2.17      0.00
   -9   14    8      2.27      0.00
   -8   14    8      0.69      0.00
   -7   14    8     -0.10      0.00
   -6   14    8      1.56      0.00
   -5   14    8      3.55      0.00
   -4   14    8      3.42      0.00
   -3   14    8      1.60      0.00
   -2   14    8     -0.16      0.00
   -1   14    8     -0.81      0.00
    0   14    8     -0.37      0.00
    1   14    8     -0.09      0.00
    2   14    8     -0.89      0.00
    3   14    8     -1.40      0.00
    4   14    8     -0.19      0.00
    5   14    8      1.46      0.00
    6   14    8      1.57      0.00
    7   14    8      0.19      0.00
    8   14    8     -1.29      0.00
    9   14    8     -1.47      0.00
   10   14    8      0.00      0.00
   11   14    8      1.32      0.00
   12   14    8      0.68      0.00
  -13   15    8     -0.78      0.00
  -12   15    8     -1.73      0.00
  -11   15    8     -2.33      0.00
  -10   15    8     -1.82      0.00
   -9   15    8     -0.37      0.00
   -8   15    8      0.32      0.00
   -7   15    8     -0.11      0.00
   -6   15    8      0.04      0.00
   -5   15    8      0.88      0.00
   -4   15    8      0.61      0.00
   -3   15    8     -0.77      0.00
   -2   15    8     -1.66      0.00
   -1   15    8     -1.39      0.00
    0   15    8     -0.11      0.00
    1   15    8      1.37      0.00
    2   15    8      1.44      0.00
    3   15    8      0.13      0.00
    4   15    8     -0.55      0.00
    5   15    8     -0.21      0.00
    6   15    8     -0.05      0.00
    7   15    8     -0.07      0.00
    8   15    8     -0.15      0.00
    9   15    8     -1.15      0.00
   10   15    8     -2.38      0.00
   11   15    8     -2.11      0.00
  -11   16    8      3.15      0.00
  -10   16    8      3.35      0.00
   -9   16    8      2.56      0.00
   -8   16    8      1.62      0.00
   -7   16    8      1.11      0.00
   -6   16    8      1.38      0.00
   -5   16    8      2.13      0.00
   -4   16    8      2.04      0.00
   -3   16    8      0.70      0.00
   -2   16    8     -0.51      0.00
   -1   16    8     -0.64      0.00
    0   16    8     -0.32      0.00
    1   16    8     -0.29      0.00
    2   16    8     -0.63      0.00
    3   16    8     -0.83      0.00
    4   16    8      0.03      0.00
    5   16    8      1.74      0.00
    6   16    8      2.71      0.00
    7   16    8      2.44      0.00
    8   16    8      2.25      0.00
  -10   17    8      1.20      0.00
   -9   17    8      1.98      0.00
   -8   17    8      2.05      0.00
   -7   17    8      0.71      0.00
   -6   17    8     -1.05      0.00
   -5   17    8     -1.46      0.00
   -4   17    8     -0.67      0.00
   -3   17    8     -0.54      0.00
   -2   17    8     -1.75      0.00
   -1   17    8     -2.88      0.00
    0   17    8     -2.42      0.00
    1   17    8     -0.97      0.00
    2   17    8     -0.46      0.00
    3   17    8     -1.51      0.00
    4   17    8     -2.92      0.00
    5   17    8     -3.62      0.00
    6   17    8     -3.18      0.00
    7   17    8     -1.54      0.00
   -7   18    8      0.20      0.00
   -6   18    8      0.85      0.00
   -5   18    8      1.94      0.00
   -4   18    8      1.79      0.00
   -3   18    8     -0.07      0.00
   -2   18    8     -1.56      0.00
   -1   18    8     -0.85      0.00
    0   18    8      0.88      0.00
    1   18    8      1.39      0.00
    2   18    8      0.44      0.00
    3   18    8     -0.35      0.00
    5   18    8      1.26      0.00
   -2   19    8      1.25      0.00
   -1   19    8     -0.01      0.00
    0   19    8     -1.37      0.00
  -20    1    9     -1.40      0.00
  -19    1    9     -0.22      0.00
  -18    1    9      1.09      0.00
  -17    1    9      0.10      0.00
  -16    1    9     -1.15      0.00
  -15    1    9     -0.42      0.00
  -14    1    9     -0.73      0.00
  -13    1    9     -5.25      0.00
  -12    1    9     -9.94      0.00
  -11    1    9     -6.94      0.00
  -10    1    9      4.67      0.00
   -9    1    9     15.02      0.00
   -8    1    9     14.44      0.00
   -7    1    9      7.06      0.00
   -6    1    9      4.86      0.00
   -5    1    9      8.34      0.00
   -4    1    9      5.49      0.00
   -3    1    9     -6.50      0.00
   -2    1    9    -12.95      0.00
   -1    1    9     -3.73      0.00
    0    1    9      7.33      0.00
    1    1    9     -0.08      0.00
    2    1    9    -21.84      0.00
    3    1    9    -33.66      0.00
    4    1    9    -24.70      0.00
    5    1    9     -8.04      0.00
    6    1    9      2.14      0.00
    7    1    9      5.53      0.00
    8    1    9      7.14      0.00
    9    1    9      8.52      0.00
   10    1    9      8.30      0.00
   11    1    9      5.12      0.00
   12    1    9      0.59      0.00
   13    1    9     -1.50      0.00
   14    1    9     -1.05      0.00
   15    1    9     -1.51      0.00
   16    1    9     -2.99      0.00
   17    1    9     -2.68      0.00
   18    1    9     -1.03      0.00
  -20    2    9      0.77      0.00
  -19    2    9      1.15      0.00
  -18    2    9      1.94      0.00
  -17    2    9      1.80      0.00
  -16    2    9      0.05      0.00
  -15    2    9     -0.40      0.00
  -14    2    9      1.86      0.00
  -13    2    9      3.01      0.00
  -12    2    9      0.07      0.00
  -11    2    9     -3.90      0.00
  -10    2    9     -3.89      0.00
   -9    2    9     -0.14      0.00
   -8    2    9     -0.02      0.00
   -7    2    9     -9.39      0.00
   -6    2    9    -19.70      0.00
   -5    2    9    -12.43      0.00
   -4    2    9     16.14      0.00
   -3    2    9     44.91      0.00
   -2    2    9     52.08      0.00
   -1    2    9     39.45      0.00
    0    2    9     22.61      0.00
    1    2    9      6.68      0.00
    2    2    9    -13.19      0.00
    3    2    9    -32.36      0.00
    4    2    9    -36.31      0.00
    5    2    9    -22.47      0.00
    6    2    9     -6.36      0.00
    7    2    9     -0.80      0.00
    8    2    9     -2.62      0.00
    9    2    9     -3.42      0.00
   10    2    9     -1.37      0.00
   11    2    9      0.78      0.00
   12    2    9      1.65      0.00
   13    2    9      2.22      0.00
   14    2    9      3.24      0.00
   15    2    9      3.37      0.00
   16    2    9      1.59      0.00
   17    2    9     -0.08      0.00
   18    2    9      0.15      0.00
  -20    3    9     -2.49      0.00
  -19    3    9     -1.94      0.00
  -18    3    9     -1.08      0.00
  -17    3    9     -0.77      0.00
  -16    3    9     -0.42      0.00
  -15    3    9      0.70      0.00
  -14    3    9      2.03      0.00
  -13    3    9      2.26      0.00
  -12    3    9      1.52      0.00
  -11    3    9      1.05      0.00
  -10    3    9     -0.09      0.00
   -9    3    9     -4.09      0.00
   -8    3    9     -9.20      0.00
   -7    3    9    -11.11      0.00
   -6    3    9     -9.02      0.00
   -5    3    9     -5.45      0.00
   -4    3    9     -3.76      0.00
   -3    3    9     -8.00      0.00
   -2    3    9    -17.67      0.00
   -1    3    9    -23.45      0.00
    0    3    9    -17.83      0.00
    1    3    9     -6.05      0.00
    2    3    9      1.79      0.00
    3    3    9      3.10      0.00
    4    3    9      1.60      0.00
    5    3    9      0.76      0.00
    6    3    9      1.16      0.00
    7    3    9      0.67      0.00
    8    3    9     -2.06      0.00
    9    3    9     -4.54      0.00
   10    3    9     -4.11      0.00
   11    3    9     -1.87      0.00
   12    3    9     -0.18      0.00
   13    3    9      0.23      0.00
   14    3    9     -0.40      0.00
   15    3    9     -1.27      0.00
   16    3    9     -1.42      0.00
   17    3    9     -0.99      0.00
  -20    4    9      1.75      0.00
  -19    4    9      2.78      0.00
  -18    4    9      3.25      0.00
  -17    4    9      2.20      0.00
  -16    4    9     -0.13      0.00
  -15    4    9     -1.94      0.00
  -14    4    9     -1.93      0.00
  -13    4    9     -1.76      0.00
  -12    4    9     -4.40      0.00
  -11    4    9     -8.43      0.00
  -10    4    9     -8.27      0.00
   -9    4    9     -3.27      0.00
   -8    4    9     -0.80      0.00
   -7    4    9     -5.34      0.00
   -6    4    9     -9.49      0.00
   -5    4    9     -2.39      0.00
   -4    4    9     13.67      0.00
   -3    4    9     21.65      0.00
   -2    4    9     10.47      0.00
   -1    4    9     -7.37      0.00
    0    4    9    -10.86      0.00
    1    4    9      0.12      0.00
    2    4    9      7.18      0.00
    3    4    9      2.46      0.00
    4    4    9     -3.49      0.00
    5    4    9     -1.45      0.00
    6    4    9      5.45      0.00
    7    4    9      9.72      0.00
    8    4    9      8.12      0.00
    9    4    9      3.44      0.00
   10    4    9      0.70      0.00
   11    4    9      0.83      0.00
   12    4    9      0.86      0.00
   13    4    9      0.27      0.00
   14    4    9      1.11      0.00
   15    4    9      2.74      0.00
   16    4    9      2.90      0.00
   17    4    9      1.85      0.00
  -20    5    9     -1.48      0.00
  -18    5    9     -1.33      0.00
  -17    5    9     -0.80      0.00
  -16    5    9      0.06      0.00
  -15    5    9      0.59      0.00
  -14    5    9      0.90      0.00
  -13    5    9      2.70      0.00
  -12    5    9      5.14      0.00
  -11    5    9      3.70      0.00
  -10    5    9     -2.47      0.00
   -9    5    9     -7.06      0.00
   -8    5    9     -4.89      0.00
   -7    5    9      0.44      0.00
   -6    5    9      2.20      0.00
   -5    5    9      1.24      0.00
   -4    5    9      4.83      0.00
   -3    5    9     13.68      0.00
   -2    5    9     17.29      0.00
   -1    5    9      8.62      0.00
    0    5    9     -2.91      0.00
    1    5    9     -2.94      0.00
    2    5    9      7.32      0.00
    3    5    9     13.29      0.00
    4    5    9      8.04      0.00
    5    5    9     -0.19      0.00
    6    5    9     -2.20      0.00
    7    5    9      0.38      0.00
    8    5    9      0.73      0.00
    9    5    9     -2.47      0.00
   10    5    9     -4.65      0.00
   11    5    9     -3.08      0.00
   12    5    9     -0.40      0.00
   13    5    9      0.34      0.00
   14    5    9      0.37      0.00
   15    5    9      2.01      0.00
   16    5    9      3.94      0.00
   17    5    9      3.65      0.00
  -19    6    9      0.81      0.00
  -18    6    9      2.56      0.00
  -17    6    9      3.16      0.00
  -16    6    9      2.10      0.00
  -15    6    9      1.51      0.00
  -14    6    9      1.90      0.00
  -13    6    9      1.40      0.00
  -12    6    9     -0.82      0.00
  -11    6    9     -3.19      0.00
  -10    6    9     -4.24      0.00
   -9    6    9     -3.87      0.00
   -8    6    9     -2.12      0.00
   -7    6    9      0.87      0.00
   -6    6    9      3.67      0.00
   -5    6    9      4.91      0.00
   -4    6    9      5.25      0.00
   -3    6    9      4.95      0.00
   -2    6    9      1.96      0.00
   -1    6    9     -3.68      0.00
    0    6    9     -6.95      0.00
    1    6    9     -4.09      0.00
    2    6    9      1.24      0.00
    3    6    9      2.10      0.00
    4    6    9     -3.18      0.00
    5    6    9     -9.35      0.00
    6    6    9    -10.77      0.00
    7    6    9     -7.42      0.00
    8    6    9     -3.23      0.00
    9    6    9     -0.70      0.00
   10    6    9      0.19      0.00
   11    6    9      0.03      0.00
   12    6    9     -0.30      0.00
   13    6    9      0.10      0.00
   14    6    9      0.74      0.00
   15    6    9      0.51      0.00
   16    6    9     -0.43      0.00
   17    6    9     -1.13      0.00
  -19    7    9      1.77      0.00
  -18    7    9      3.57      0.00
  -17    7    9      4.05      0.00
  -16    7    9      4.35      0.00
  -15    7    9      4.80      0.00
  -14    7    9      4.39      0.00
  -13    7    9      4.22      0.00
  -12    7    9      5.00      0.00
  -11    7    9      3.79      0.00
  -10    7    9     -0.31      0.00
   -9    7    9     -3.10      0.00
   -8    7    9     -2.55      0.00
   -7    7    9     -2.62      0.00
   -6    7    9     -6.53      0.00
   -5    7    9    -11.18      0.00
   -4    7    9     -9.89      0.00
   -3    7    9     -0.64      0.00
   -2    7    9      8.91      0.00
   -1    7    9      9.29      0.00
    0    7    9      2.28      0.00
    1    7    9     -1.35      0.00
    2    7    9      2.19      0.00
    3    7    9      5.21      0.00
    4    7    9      1.27      0.00
    5    7    9     -5.56      0.00
    6    7    9     -7.58      0.00
    7    7    9     -4.35      0.00
    8    7    9     -1.43      0.00
    9    7    9     -1.24      0.00
   10    7    9     -1.33      0.00
   11    7    9     -0.53      0.00
   12    7    9     -0.37      0.00
   13    7    9     -0.93      0.00
   14    7    9     -0.40      0.00
   15    7    9      1.81      0.00
   16    7    9      4.07      0.00
   17    7    9      4.32      0.00
  -19    8    9     -2.97      0.00
  -18    8    9     -2.55      0.00
  -17    8    9     -2.42      0.00
  -16    8    9     -3.16      0.00
  -14    8    9     -0.37      0.00
  -13    8    9     -0.61      0.00
  -12    8    9     -1.48      0.00
  -11    8    9     -0.55      0.00
  -10    8    9     -0.12      0.00
   -9    8    9     -1.68      0.00
   -8    8    9     -1.63      0.00
   -7    8    9      1.73      0.00
   -6    8    9      3.90      0.00
   -5    8    9      0.78      0.00
   -4    8    9     -5.25      0.00
   -3    8    9     -8.11      0.00
   -2    8    9     -5.47      0.00
   -1    8    9     -1.36      0.00
    0    8    9     -0.11      0.00
    1    8    9     -0.16      0.00
    2    8    9      2.19      0.00
    3    8    9      5.75      0.00
    4    8    9      5.98      0.00
    5    8    9      1.87      0.00
    6    8    9     -2.33      0.00
    7    8    9     -2.25      0.00
    8    8    9      1.31      0.00
    9    8    9      3.57      0.00
   10    8    9      2.02      0.00
   11    8    9     -0.81      0.00
   12    8    9     -1.40      0.00
   13    8    9      0.37      0.00
   14    8    9      1.87      0.00
   15    8    9      1.36      0.00
   16    8    9     -0.06      0.00
  -18    9    9      2.41      0.00
  -17    9    9      0.10      0.00
  -16    9    9     -1.97      0.00
  -15    9    9     -1.26      0.00
  -14    9    9      0.94      0.00
  -13    9    9      1.64      0.00
  -12    9    9      0.69      0.00
  -11    9    9      0.40      0.00
  -10    9    9      1.18      0.00
   -9    9    9      1.21      0.00
   -8    9    9      0.26      0.00
   -7    9    9     -0.19      0.00
   -6    9    9     -0.28      0.00
   -5    9    9     -1.37      0.00
   -4    9    9     -2.44      0.00
   -3    9    9     -0.74      0.00
   -2    9    9      3.83      0.00
   -1    9    9      7.63      0.00
    0    9    9      7.32      0.00
    1    9    9      4.05      0.00
    2    9    9      1.88      0.00
    3    9    9      1.78      0.00
    4    9    9      0.66      0.00
    5    9    9     -2.33      0.00
    6    9    9     -3.77      0.00
    7    9    9     -1.89      0.00
    8    9    9      0.61      0.00
    9    9    9      1.15      0.00
   10    9    9      0.20      0.00
   11    9    9     -0.78      0.00
   12    9    9     -1.19      0.00
   13    9    9     -1.17      0.00
   14    9    9     -0.85      0.00
   15    9    9      0.20      0.00
   16    9    9      1.73      0.00
  -17   10    9      0.54      0.00
  -16   10    9     -0.41      0.00
  -15   10    9     -1.38      0.00
  -14   10    9     -1.22      0.00
  -13   10    9     -1.03      0.00
  -12   10    9     -0.55      0.00
  -11   10    9      1.28      0.00
  -10   10    9      2.66      0.00
   -9   10    9      1.25      0.00
   -8   10    9     -1.09      0.00
   -7   10    9     -0.83      0.00
   -6   10    9      1.21      0.00
   -5   10    9      0.95      0.00
   -4   10    9     -2.01      0.00
   -3   10    9     -3.39      0.00
   -2   10    9     -1.14      0.00
   -1   10    9      1.43      0.00
    0   10    9      1.16      0.00
    1   10    9     -0.79      0.00
    2   10    9     -1.47      0.00
    3   10    9      0.39      0.00
    4   10    9      3.19      0.00
    5   10    9      3.70      0.00
    6   10    9      1.14      0.00
    7   10    9     -1.05      0.00
    8   10    9     -0.33      0.00
    9   10    9      1.38      0.00
   10   10    9      1.27      0.00
   11   10    9     -0.61      0.00
   12   10    9     -2.19      0.00
   13   10    9     -1.71      0.00
   14   10    9      0.24      0.00
   15   10    9      1.16      0.00
  -17   11    9      0.95      0.00
  -16   11    9      1.26      0.00
  -15   11    9      0.97      0.00
  -14   11    9      0.76      0.00
  -13   11    9      0.73      0.00
  -12   11    9     -0.06      0.00
  -11   11    9     -0.80      0.00
  -10   11    9      0.32      0.00
   -9   11    9      2.14      0.00
   -8   11    9      1.86      0.00
   -7   11    9      0.06      0.00
   -6   11    9      0.04      0.00
   -5   11    9      2.25      0.00
   -4   11    9      3.44      0.00
   -3   11    9      2.70      0.00
   -2   11    9      3.07      0.00
   -1   11    9      5.08      0.00
    0   11    9      4.64      0.00
    1   11    9      0.61      0.00
    2   11    9     -2.43      0.00
    3   11    9     -1.60      0.00
    4   11    9      0.29      0.00
    5   11    9      0.26      0.00
    6   11    9     -1.06      0.00
    7   11    9     -1.86      0.00
    8   11    9     -1.59      0.00
    9   11    9     -1.01      0.00
   10   11    9     -1.11      0.00
   11   11    9     -1.98      0.00
   12   11    9     -2.84      0.00
   13   11    9     -3.04      0.00
   14   11    9     -2.08      0.00
  -16   12    9     -1.19      0.00
  -15   12    9     -1.50      0.00
  -14   12    9     -0.91      0.00
  -13   12    9     -0.22      0.00
  -12   12    9      0.42      0.00
  -11   12    9      0.88      0.00
  -10   12    9      0.52      0.00
   -9   12    9     -0.40      0.00
   -8   12    9     -0.70      0.00
   -7   12    9     -0.44      0.00
   -6   12    9     -0.92      0.00
   -5   12    9     -2.05      0.00
   -4   12    9     -2.25      0.00
   -3   12    9     -1.39      0.00
   -2   12    9     -0.56      0.00
   -1   12    9      0.48      0.00
    0   12    9      1.97      0.00
    1   12    9      2.07      0.00
    2   12    9     -0.08      0.00
    3   12    9     -1.61      0.00
    4   12    9     -0.34      0.00
    5   12    9      1.52      0.00
    6   12    9      1.12      0.00
    7   12    9     -0.67      0.00
    8   12    9     -1.19      0.00
    9   12    9     -0.09      0.00
   10   12    9      0.50      0.00
   11   12    9     -0.38      0.00
   12   12    9     -1.01      0.00
   13   12    9     -0.01      0.00
   14   12    9      1.27      0.00
  -15   13    9      1.21      0.00
  -14   13    9      2.04      0.00
  -13   13    9      1.91      0.00
  -12   13    9      0.31      0.00
  -11   13    9     -0.76      0.00
  -10   13    9      0.29      0.00
   -9   13    9      1.43      0.00
   -8   13    9      0.43      0.00
   -7   13    9     -0.98      0.00
   -6   13    9     -0.18      0.00
   -5   13    9      1.89      0.00
   -4   13    9      2.53      0.00
   -3   13    9      1.25      0.00
   -2   13    9     -0.07      0.00
   -1   13    9      0.13      0.00
    0   13    9      1.06      0.00
    1   13    9      0.64      0.00
    2   13    9     -1.05      0.00
    3   13    9     -1.35      0.00
    4   13    9      0.69      0.00
    5   13    9      2.64      0.00
    6   13    9      2.33      0.00
    7   13    9      0.22      0.00
    8   13    9     -1.94      0.00
    9   13    9     -2.57      0.00
   10   13    9     -1.50      0.00
   11   13    9     -0.44      0.00
   12   13    9     -0.88      0.00
   13   13    9     -1.87      0.00
  -14   14    9      1.50      0.00
  -13   14    9      1.14      0.00
  -12   14    9      0.02      0.00
  -11   14    9     -0.87      0.00
  -10   14    9     -0.74      0.00
   -9   14    9      0.21      0.00
   -8   14    9      0.73      0.00
   -7   14    9      0.30      0.00
   -6   14    9     -0.20      0.00
   -5   14    9     -0.40      0.00
   -4   14    9     -0.69      0.00
   -3   14    9     -1.07      0.00
   -2   14    9     -1.33      0.00
   -1   14    9     -1.28      0.00
    0   14    9     -0.27      0.00
    1   14    9      1.32      0.00
    2   14    9      1.87      0.00
    3   14    9      1.42      0.00
    4   14    9      1.59      0.00
    5   14    9      2.18      0.00
    6   14    9      1.82      0.00
    7   14    9      0.89      0.00
    8   14    9      0.45      0.00
    9   14    9      0.28      0.00
   10   14    9      0.05      0.00
   11   14    9      0.17      0.00
   12   14    9      0.55      0.00
  -13   15    9      1.95      0.00
  -12   15    9      2.32      0.00
  -11   15    9      2.47      0.00
  -10   15    9      2.43      0.00
   -9   15    9      1.72      0.00
   -8   15    9      0.64      0.00
   -7   15    9      0.50      0.00
   -6   15    9      1.68      0.00
   -5   15    9      2.78      0.00
   -4   15    9      2.49      0.00
   -3   15    9      1.30      0.00
   -2   15    9      0.32      0.00
   -1   15    9     -0.07      0.00
    0   15    9     -0.01      0.00
    1   15    9      0.05      0.00
    2   15    9     -0.23      0.00
    3   15    9     -0.15      0.00
    4   15    9      1.12      0.00
    5   15    9      2.75      0.00
    6   15    9      3.01      0.00
    7   15    9      1.66      0.00
    8   15    9      0.23      0.00
    9   15    9      0.26      0.00
   10   15    9      1.52      0.00
  -11   16    9     -2.21      0.00
  -10   16    9     -2.55      0.00
   -9   16    9     -1.50      0.00
   -8   16    9     -0.56      0.00
   -7   16    9     -0.92      0.00
   -6   16    9     -1.03      0.00
   -5   16    9      0.22      0.00
   -4   16    9      1.19      0.00
   -3   16    9      0.65      0.00
   -2   16    9     -0.49      0.00
   -1   16    9     -0.89      0.00
    0   16    9     -0.06      0.00
    1   16    9      1.07      0.00
    2   16    9      0.71      0.00
    3   16    9     -1.02      0.00
    4   16    9     -2.07      0.00
    5   16    9     -2.07      0.00
    6   16    9     -1.92      0.00
    7   16    9     -1.28      0.00
    8   16    9     -0.33      0.00
    9   16    9     -0.59      0.00
   -9   17    9      1.21      0.00
   -8   17    9      0.87      0.00
   -7   17    9      0.40      0.00
   -6   17    9      0.63      0.00
   -5   17    9      1.73      0.00
   -4   17    9      1.81      0.00
   -3   17    9     -0.28      0.00
   -2   17    9     -2.28      0.00
   -1   17    9     -1.78      0.00
    0   17    9      0.37      0.00
    1   17    9      1.84      0.00
    2   17    9      1.53      0.00
    3   17    9      0.44      0.00
    4   17    9      0.77      0.00
    5   17    9      2.84      0.00
    6   17    9      3.94      0.00
    7   17    9      2.78      0.00
   -7   18    9      0.70      0.00
   -6   18    9      0.18      0.00
   -5   18    9     -0.22      0.00
   -4   18    9      0.35      0.00
   -3   18    9      0.89      0.00
   -2   18    9      0.02      0.00
   -1   18    9     -1.72      0.00
    0   18    9     -2.53      0.00
    1   18    9     -1.69      0.00
    2   18    9     -0.27      0.00
    5   18    9     -0.97      0.00
  -20    0   10     -0.83      0.00
  -19    0   10     -1.07      0.00
  -18    0   10     -1.88      0.00
  -17    0   10     -4.10      0.00
  -16    0   10     -4.15      0.00
  -15    0   10     -0.29      0.00
  -14    0   10      2.48      0.00
  -13    0   10     -0.50      0.00
  -12    0   10     -6.00      0.00
  -11    0   10     -5.71      0.00
  -10    0   10      4.09      0.00
   -9    0   10     15.68      0.00
   -8    0   10     17.16      0.00
   -7    0   10      8.78      0.00
   -6    0   10      1.57      0.00
   -5    0   10     -3.22      0.00
   -4    0   10    -16.97      0.00
   -3    0   10    -39.81      0.00
   -2    0   10    -51.51      0.00
   -1    0   10    -37.93      0.00
    0    0   10    -14.17      0.00
    1    0   10     -6.26      0.00
    2    0   10    -15.83      0.00
    3    0   10    -21.36      0.00
    4    0   10    -12.42      0.00
    5    0   10     -1.13      0.00
    6    0   10      1.80      0.00
    7    0   10      0.60      0.00
    8    0   10      1.64      0.00
    9    0   10      4.27      0.00
   10    0   10      5.50      0.00
   11    0   10      3.75      0.00
   12    0   10      0.11      0.00
   13    0   10     -1.91      0.00
   14    0   10     -1.45      0.00
   15    0   10     -1.53      0.00
   16    0   10     -2.69      0.00
   17    0   10     -2.40      0.00
   18    0   10     -0.82      0.00
  -20    1   10      1.75      0.00
  -19    1   10      2.83      0.00
  -18    1   10      3.30      0.00
  -17    1   10      1.70      0.00
  -16    1   10     -1.65      0.00
  -15    1   10     -3.41      0.00
  -14    1   10     -2.06      0.00
  -13    1   10     -0.46      0.00
  -12    1   10     -0.87      0.00
  -11    1   10     -1.34      0.00
  -10    1   10      1.38      0.00
   -9    1   10      7.24      0.00
   -8    1   10     10.82      0.00
   -7    1   10      5.98      0.00
   -6    1   10     -4.97      0.00
   -5    1   10    -10.81      0.00
   -4    1   10     -3.99      0.00
   -3    1   10     10.49      0.00
   -2    1   10     21.84      0.00
   -1    1   10     24.41      0.00
    0    1   10     18.80      0.00
    1    1   10      6.26      0.00
    2    1   10    -11.34      0.00
    3    1   10    -26.22      0.00
    4    1   10    -27.81      0.00
    5    1   10    -15.57      0.00
    6    1   10     -1.56      0.00
    7    1   10      4.25      0.00
    8    1   10      3.73      0.00
    9    1   10      2.86      0.00
   10    1   10      2.98      0.00
   11    1   10      2.56      0.00
   12    1   10      1.58      0.00
   13    1   10      1.34      0.00
   14    1   10      2.07      0.00
   15    1   10      2.27      0.00
   16    1   10      1.09      0.00
   17    1   10     -0.08      0.00
   18    1   10      0.02      0.00
  -20    2   10     -3.44      0.00
  -19    2   10     -3.70      0.00
  -18    2   10     -2.70      0.00
  -17    2   10     -2.42      0.00
  -16    2   10     -2.72      0.00
  -15    2   10     -2.19      0.00
  -14    2   10     -1.63      0.00
  -13    2   10     -2.88      0.00
  -12    2   10     -4.48      0.00
  -11    2   10     -2.28      0.00
  -10    2   10      3.87      0.00
   -9    2   10      7.70      0.00
   -8    2   10      4.48      0.00
   -7    2   10     -1.99      0.00
   -6    2   10     -4.71      0.00
   -5    2   10     -3.27      0.00
   -4    2   10     -4.04      0.00
   -3    2   10    -10.41      0.00
   -2    2   10    -15.68      0.00
   -1    2   10    -10.53      0.00
    0    2   10      2.42      0.00
    1    2   10      9.89      0.00
    2    2   10      6.33      0.00
    3    2   10      0.43      0.00
    4    2   10      0.44      0.00
    5    2   10      4.08      0.00
    6    2   10      5.55      0.00
    7    2   10      3.37      0.00
    8    2   10      0.08      0.00
    9    2   10     -1.11      0.00
   10    2   10     -0.04      0.00
   11    2   10      0.29      0.00
   12    2   10     -1.11      0.00
   13    2   10     -1.97      0.00
   14    2   10     -1.80      0.00
   15    2   10     -2.36      0.00
   16    2   10     -3.30      0.00
   17    2   10     -2.86      0.00
   18    2   10     -1.33      0.00
  -20    3   10      0.58      0.00
  -19    3   10      1.08      0.00
  -18    3   10      1.53      0.00
  -17    3   10      0.86      0.00
  -16    3   10     -1.23      0.00
  -15    3   10     -2.39      0.00
  -14    3   10     -1.12      0.00
  -13    3   10     -0.29      0.00
  -12    3   10     -3.18      0.00
  -11    3   10     -6.94      0.00
  -10    3   10     -4.38      0.00
   -9    3   10      5.45      0.00
   -8    3   10     12.19      0.00
   -7    3   10      6.08      0.00
   -6    3   10     -6.40      0.00
   -5    3   10     -8.23      0.00
   -4    3   10      4.83      0.00
   -3    3   10     16.73      0.00
   -2    3   10     13.28      0.00
   -1    3   10      1.93      0.00
    0    3   10     -1.74      0.00
    1    3   10      0.47      0.00
    2    3   10     -5.76      0.00
    3    3   10    -20.45      0.00
    4    3   10    -26.92      0.00
    5    3   10    -17.18      0.00
    6    3   10     -2.06      0.00
    7    3   10      5.62      0.00
    8    3   10      4.80      0.00
    9    3   10      1.74      0.00
   10    3   10      0.84      0.00
   11    3   10      1.55      0.00
   12    3   10      1.62      0.00
   13    3   10      1.37      0.00
   14    3   10      2.05      0.00
   15    3   10      2.07      0.00
   16    3   10      0.02      0.00
   17    3   10     -1.66      0.00
  -20    4   10     -0.93      0.00
  -19    4   10     -0.66      0.00
  -18    4   10     -1.02      0.00
  -17    4   10     -2.23      0.00
  -16    4   10     -3.04      0.00
  -15    4   10     -2.47      0.00
  -14    4   10     -0.83      0.00
  -13    4   10      1.21      0.00
  -12    4   10      3.03      0.00
  -11    4   10      3.11      0.00
  -10    4   10     -0.20      0.00
   -9    4   10     -5.48      0.00
   -8    4   10     -8.52      0.00
   -7    4   10     -7.87      0.00
   -6    4   10     -5.93      0.00
   -5    4   10     -2.64      0.00
   -4    4   10      4.78      0.00
   -3    4   10     13.09      0.00
   -2    4   10     13.31      0.00
   -1    4   10      3.73      0.00
    0    4   10     -5.76      0.00
    1    4   10     -6.49      0.00
    2    4   10     -1.74      0.00
    3    4   10     -0.44      0.00
    4    4   10     -4.63      0.00
    5    4   10     -8.08      0.00
    6    4   10     -6.32      0.00
    7    4   10     -2.54      0.00
    8    4   10     -1.93      0.00
    9    4   10     -4.35      0.00
   10    4   10     -5.50      0.00
   11    4   10     -3.04      0.00
   12    4   10      1.11      0.00
   13    4   10      3.84      0.00
   14    4   10      4.53      0.00
   15    4   10      4.47      0.00
   16    4   10      3.92      0.00
   17    4   10      2.41      0.00
  -20    5   10      2.71      0.00
  -18    5   10      5.70      0.00
  -17    5   10      5.41      0.00
  -16    5   10      2.78      0.00
  -15    5   10     -0.11      0.00
  -14    5   10     -1.10      0.00
  -13    5   10     -1.22      0.00
  -12    5   10     -2.90      0.00
  -11    5   10     -5.05      0.00
  -10    5   10     -4.18      0.00
   -9    5   10     -0.40      0.00
   -8    5   10      2.50      0.00
   -7    5   10      2.75      0.00
   -6    5   10      2.67      0.00
   -5    5   10      5.36      0.00
   -4    5   10     10.18      0.00
   -3    5   10     10.41      0.00
   -2    5   10     -0.03      0.00
   -1    5   10    -15.34      0.00
    0    5   10    -21.19      0.00
    1    5   10    -12.92      0.00
    2    5   10     -1.12      0.00
    3    5   10      3.36      0.00
    4    5   10      0.90      0.00
    5    5   10     -1.82      0.00
    6    5   10     -1.19      0.00
    7    5   10      0.77      0.00
    8    5   10      0.57      0.00
    9    5   10     -1.62      0.00
   10    5   10     -2.84      0.00
   11    5   10     -2.14      0.00
   12    5   10     -1.08      0.00
   13    5   10     -0.09      0.00
   14    5   10      1.46      0.00
   15    5   10      2.84      0.00
   17    5   10      1.46      0.00
  -19    6   10     -1.04      0.00
  -18    6   10      0.52      0.00
  -17    6   10      2.05      0.00
  -16    6   10      3.26      0.00
  -15    6   10      2.70      0.00
  -14    6   10      0.26      0.00
  -13    6   10     -0.54      0.00
  -12    6   10      1.01      0.00
  -11    6   10     -0.46      0.00
  -10    6   10     -6.75      0.00
   -9    6   10    -11.45      0.00
   -8    6   10    -10.19      0.00
   -7    6   10     -7.25      0.00
   -6    6   10     -7.69      0.00
   -5    6   10     -9.20      0.00
   -4    6   10     -4.96      0.00
   -3    6   10      5.81      0.00
   -2    6   10     12.92      0.00
   -1    6   10      6.65      0.00
    0    6   10     -6.99      0.00
    1    6   10    -12.40      0.00
    2    6   10     -5.73      0.00
    3    6   10      1.37      0.00
    4    6   10      0.18      0.00
    5    6   10     -4.25      0.00
    6    6   10     -3.46      0.00
    7    6   10      1.61      0.00
    8    6   10      3.78      0.00
    9    6   10      1.05      0.00
   10    6   10     -1.84      0.00
   11    6   10     -2.00      0.00
   12    6   10     -1.59      0.00
   13    6   10     -1.97      0.00
   14    6   10     -0.91      0.00
   15    6   10      2.85      0.00
   16    6   10      6.61      0.00
   17    6   10      7.01      0.00
  -19    7   10     -4.05      0.00
  -18    7   10     -2.73      0.00
  -17    7   10     -0.55      0.00
  -16    7   10      0.24      0.00
  -15    7   10      0.98      0.00
  -14    7   10      2.32      0.00
  -13    7   10      2.68      0.00
  -12    7   10      2.10      0.00
  -11    7   10      1.63      0.00
  -10    7   10      0.25      0.00
   -9    7   10     -2.14      0.00
   -8    7   10     -2.45      0.00
   -7    7   10      0.61      0.00
   -6    7   10      3.29      0.00
   -5    7   10      1.98      0.00
   -4    7   10     -1.75      0.00
   -3    7   10     -3.91      0.00
   -2    7   10     -3.71      0.00
   -1    7   10     -3.78      0.00
    0    7   10     -4.70      0.00
    1    7   10     -2.90      0.00
    2    7   10      3.20      0.00
    3    7   10      8.79      0.00
    4    7   10      8.36      0.00
    5    7   10      2.94      0.00
    6    7   10     -1.77      0.00
    7    7   10     -2.19      0.00
    8    7   10      0.75      0.00
    9    7   10      3.86      0.00
   10    7   10      4.55      0.00
   11    7   10      2.79      0.00
   12    7   10      0.92      0.00
   13    7   10      0.86      0.00
   14    7   10      1.79      0.00
   15    7   10      1.70      0.00
   16    7   10      0.37      0.00
  -19    8   10      1.03      0.00
  -18    8   10      1.58      0.00
  -17    8   10     -0.09      0.00
  -16    8   10     -1.44      0.00
  -14    8   10      1.09      0.00
  -13    8   10      1.08      0.00
  -12    8   10     -0.06      0.00
  -11    8   10     -1.49      0.00
  -10    8   10     -2.73      0.00
   -9    8   10     -2.76      0.00
   -8    8   10     -0.99      0.00
   -7    8   10      1.27      0.00
   -6    8   10      1.57      0.00
   -5    8   10     -0.50      0.00
   -4    8   10     -1.53      0.00
   -3    8   10      1.76      0.00
   -2    8   10      7.04      0.00
   -1    8   10      8.61      0.00
    0    8   10      5.17      0.00
    1    8   10      1.54      0.00
    2    8   10      1.74      0.00
    3    8   10      3.52      0.00
    4    8   10      2.06      0.00
    5    8   10     -2.39      0.00
    6    8   10     -4.62      0.00
    7    8   10     -2.62      0.00
    8    8   10      0.22      0.00
    9    8   10      1.19      0.00
   10    8   10      1.01      0.00
   11    8   10      0.69      0.00
   12    8   10      0.28      0.00
   13    8   10     -0.26      0.00
   14    8   10     -0.97      0.00
   15    8   10     -1.19      0.00
   16    8   10     -0.20      0.00
  -18    9   10     -1.56      0.00
  -17    9   10     -1.13      0.00
  -16    9   10     -2.07      0.00
  -15    9   10     -1.76      0.00
  -14    9   10      0.15      0.00
  -13    9   10      1.00      0.00
  -12    9   10      1.17      0.00
  -11    9   10      2.55      0.00
  -10    9   10      3.04      0.00
   -9    9   10      0.35      0.00
   -8    9   10     -2.51      0.00
   -7    9   10     -1.70      0.00
   -6    9   10      0.88      0.00
   -5    9   10      0.27      0.00
   -4    9   10     -3.58      0.00
   -3    9   10     -5.12      0.00
   -2    9   10     -1.76      0.00
   -1    9   10      1.69      0.00
    0    9   10      0.63      0.00
    1    9   10     -2.67      0.00
    2    9   10     -3.52      0.00
    3    9   10     -1.38      0.00
    4    9   10      0.50      0.00
    5    9   10     -0.59      0.00
    6    9   10     -3.57      0.00
    7    9   10     -4.73      0.00
    8    9   10     -2.58      0.00
    9    9   10      0.40      0.00
   10    9   10      1.49      0.00
   11    9   10      0.49      0.00
   12    9   10     -0.99      0.00
   13    9   10     -0.95      0.00
   14    9   10      0.55      0.00
   15    9   10      1.22      0.00
  -17   10   10     -0.12      0.00
  -16   10   10     -1.38      0.00
  -15   10   10     -2.07      0.00
  -14   10   10     -1.62      0.00
  -13   10   10     -1.30      0.00
  -12   10   10     -2.29      0.00
  -11   10   10     -3.21      0.00
  -10   10   10     -2.40      0.00
   -9   10   10     -0.94      0.00
   -8   10   10     -0.77      0.00
   -7   10   10     -1.19      0.00
   -6   10   10     -0.30      0.00
   -5   10   10      1.34      0.00
   -4   10   10      1.28      0.00
   -3   10   10     -0.23      0.00
   -2   10   10     -0.03      0.00
   -1   10   10      2.03      0.00
    0   10   10      1.98      0.00
    1   10   10     -1.21      0.00
    2   10   10     -3.33      0.00
    3   10   10     -2.21      0.00
    4   10   10     -0.99      0.00
    5   10   10     -1.96      0.00
    6   10   10     -3.04      0.00
    7   10   10     -2.01      0.00
    8   10   10      0.03      0.00
    9   10   10      0.88      0.00
   10   10   10      0.19      0.00
   11   10   10     -0.79      0.00
   12   10   10     -1.32      0.00
   13   10   10     -1.58      0.00
   14   10   10     -1.26      0.00
   15   10   10      0.16      0.00
  -17   11   10      2.84      0.00
  -16   11   10      2.79      0.00
  -15   11   10      2.12      0.00
  -14   11   10      1.87      0.00
  -13   11   10      1.62      0.00
  -12   11   10      1.35      0.00
  -11   11   10      1.46      0.00
  -10   11   10      1.07      0.00
   -9   11   10     -0.56      0.00
   -8   11   10     -1.96      0.00
   -7   11   10     -1.53      0.00
   -6   11   10     -0.39      0.00
   -5   11   10     -0.48      0.00
   -4   11   10     -1.39      0.00
   -3   11   10     -1.10      0.00
   -2   11   10      0.95      0.00
   -1   11   10      3.36      0.00
    0   11   10      4.44      0.00
    1   11   10      3.33      0.00
    2   11   10      0.87      0.00
    3   11   10     -0.52      0.00
    4   11   10      0.55      0.00
    5   11   10      2.22      0.00
    6   11   10      2.04      0.00
    7   11   10      0.70      0.00
    8   11   10      0.62      0.00
    9   11   10      2.04      0.00
   10   11   10      2.79      0.00
   11   11   10      1.52      0.00
   12   11   10     -0.24      0.00
   13   11   10     -0.23      0.00
   14   11   10      1.19      0.00
  -16   12   10      1.29      0.00
  -15   12   10      1.35      0.00
  -14   12   10      1.34      0.00
  -13   12   10      1.24      0.00
  -12   12   10     -0.19      0.00
  -11   12   10     -2.17      0.00
  -10   12   10     -2.29      0.00
   -9   12   10     -1.08      0.00
   -8   12   10     -1.20      0.00
   -7   12   10     -2.29      0.00
   -6   12   10     -1.34      0.00
   -5   12   10      1.78      0.00
   -4   12   10      3.62      0.00
   -3   12   10      2.80      0.00
   -2   12   10      2.13      0.00
   -1   12   10      3.51      0.00
    0   12   10      4.42      0.00
    1   12   10      2.24      0.00
    2   12   10     -1.02      0.00
    3   12   10     -1.70      0.00
    4   12   10      0.33      0.00
    5   12   10      2.29      0.00
    6   12   10      2.46      0.00
    7   12   10      1.40      0.00
    8   12   10      0.26      0.00
    9   12   10     -0.36      0.00
   10   12   10     -0.50      0.00
   11   12   10     -0.71      0.00
   12   12   10     -1.54      0.00
   13   12   10     -2.44      0.00
  -15   13   10     -0.80      0.00
  -14   13   10     -0.69      0.00
  -13   13   10     -0.75      0.00
  -12   13   10     -0.79      0.00
  -11   13   10     -0.82      0.00
  -10   13   10     -1.04      0.00
   -9   13   10     -1.07      0.00
   -8   13   10     -0.80      0.00
   -7   13   10     -1.07      0.00
   -6   13   10     -2.31      0.00
   -5   13   10     -3.34      0.00
   -4   13   10     -2.81      0.00
   -3   13   10     -1.15      0.00
   -2   13   10      0.29      0.00
   -1   13   10      1.28      0.00
    0   13   10      2.22      0.00
    1   13   10      2.50      0.00
    2   13   10      1.40      0.00
    3   13   10     -0.08      0.00
    4   13   10     -0.48      0.00
    5   13   10     -0.30      0.00
    6   13   10     -0.92      0.00
    7   13   10     -1.85      0.00
    8   13   10     -1.42      0.00
    9   13   10      0.12      0.00
   10   13   10      0.68      0.00
   11   13   10     -0.32      0.00
   12   13   10     -1.21      0.00
  -14   14   10      0.28      0.00
  -13   14   10      0.93      0.00
  -12   14   10      0.60      0.00
  -11   14   10      0.49      0.00
  -10   14   10      1.35      0.00
   -9   14   10      1.67      0.00
   -8   14   10      0.63      0.00
   -7   14   10     -0.07      0.00
   -6   14   10      0.61      0.00
   -5   14   10      1.32      0.00
   -4   14   10      0.96      0.00
   -3   14   10     -0.14      0.00
   -2   14   10     -1.31      0.00
   -1   14   10     -1.62      0.00
    0   14   10     -0.66      0.00
    1   14   10      0.13      0.00
    2   14   10     -0.37      0.00
    3   14   10     -0.65      0.00
    4   14   10      0.62      0.00
    5   14   10      2.14      0.00
    6   14   10      2.04      0.00
    7   14   10      0.11      0.00
    8   14   10     -2.19      0.00
    9   14   10     -2.50      0.00
   10   14   10     -0.22      0.00
   11   14   10      2.00      0.00
  -13   15   10      1.34      0.00
  -12   15   10      0.20      0.00
  -11   15   10     -1.98      0.00
  -10   15   10     -3.21      0.00
   -9   15   10     -2.53      0.00
   -8   15   10     -1.82      0.00
   -7   15   10     -2.05      0.00
   -6   15   10     -1.47      0.00
   -5   15   10      0.38      0.00
   -4   15   10      1.39      0.00
   -3   15   10      0.69      0.00
   -2   15   10     -0.64      0.00
   -1   15   10     -1.38      0.00
    0   15   10     -0.60      0.00
    1   15   10      1.16      0.00
    2   15   10      1.72      0.00
    3   15   10      0.89      0.00
    4   15   10      0.70      0.00
    5   15   10      1.08      0.00
    6   15   10      0.49      0.00
    7   15   10     -0.51      0.00
    8   15   10     -1.01      0.00
    9   15   10     -1.74      0.00
   10   15   10     -2.33      0.00
  -11   16   10      0.20      0.00
  -10   16   10      0.39      0.00
   -9   16   10      0.33      0.00
   -8   16   10     -0.11      0.00
   -7   16   10     -0.59      0.00
   -6   16   10     -0.23      0.00
   -5   16   10      0.73      0.00
   -4   16   10      0.71      0.00
   -3   16   10     -0.48      0.00
   -2   16   10     -1.12      0.00
   -1   16   10     -0.43      0.00
    0   16   10      0.72      0.00
    1   16   10      1.45      0.00
    2   16   10      1.45      0.00
    3   16   10      1.15      0.00
    4   16   10      1.93      0.00
    5   16   10      3.85      0.00
    6   16   10      4.62      0.00
    7   16   10      3.06      0.00
    8   16   10      1.12      0.00
   -9   17   10     -0.36      0.00
   -8   17   10      0.71      0.00
   -7   17   10      0.85      0.00
   -6   17   10      0.17      0.00
   -5   17   10      0.09      0.00
   -4   17   10      0.57      0.00
   -3   17   10      0.38      0.00
   -2   17   10     -0.82      0.00
   -1   17   10     -2.20      0.00
    0   17   10     -2.74      0.00
    1   17   10     -2.12      0.00
    2   17   10     -1.05      0.00
    3   17   10     -0.16      0.00
    4   17   10      0.67      0.00
    5   17   10      1.18      0.00
    6   17   10      0.98      0.00
    7   17   10      0.83      0.00
   -7   18   10     -1.46      0.00
   -6   18   10     -1.78      0.00
   -5   18   10     -0.43      0.00
   -4   18   10      1.13      0.00
   -3   18   10      0.50      0.00
   -2   18   10     -1.47      0.00
   -1   18   10     -1.85      0.00
    0   18   10     -0.20      0.00
    1   18   10      1.07      0.00
    4   18   10     -2.92      0.00
  -20    1   11     -1.50      0.00
  -19    1   11     -2.61      0.00
  -18    1   11     -3.44      0.00
  -17    1   11     -4.36      0.00
  -16    1   11     -3.07      0.00
  -15    1   11      1.23      0.00
  -14    1   11      4.64      0.00
  -13    1   11      3.57      0.00
  -12    1   11     -0.28      0.00
  -11    1   11     -1.36      0.00
  -10    1   11      3.42      0.00
   -9    1   11      9.27      0.00
   -8    1   11      8.37      0.00
   -7    1   11      1.97      0.00
   -6    1   11     -0.81      0.00
   -5    1   11      1.09      0.00
   -4    1   11     -2.82      0.00
   -3    1   11    -16.48      0.00
   -2    1   11    -26.31      0.00
   -1    1   11    -17.79      0.00
    0    1   11      2.82      0.00
    1    1   11     15.40      0.00
    2    1   11     13.34      0.00
    3    1   11      9.02      0.00
    4    1   11     10.66      0.00
    5    1   11     11.71      0.00
    6    1   11      6.48      0.00
    7    1   11     -0.37      0.00
    8    1   11     -3.07      0.00
    9    1   11     -1.51      0.00
   10    1   11      1.15      0.00
   11    1   11      1.43      0.00
   12    1   11     -1.23      0.00
   13    1   11     -3.53      0.00
   14    1   11     -3.64      0.00
   15    1   11     -3.37      0.00
   16    1   11     -3.33      0.00
   17    1   11     -2.28      0.00
  -20    2   11      1.27      0.00
  -19    2   11      1.95      0.00
  -18    2   11      2.32      0.00
  -17    2   11      0.68      0.00
  -16    2   11     -2.78      0.00
  -15    2   11     -4.22      0.00
  -14    2   11     -1.77      0.00
  -13    2   11      0.81      0.00
  -12    2   11     -0.44      0.00
  -11    2   11     -3.07      0.00
  -10    2   11      0.39      0.00
   -9    2   11     12.67      0.00
   -8    2   11     24.23      0.00
   -7    2   11     21.66      0.00
   -6    2   11      5.36      0.00
   -5    2   11     -9.44      0.00
   -4    2   11    -11.81      0.00
   -3    2   11     -6.06      0.00
   -2    2   11     -0.65      0.00
   -1    2   11      4.10      0.00
    0    2   11     10.26      0.00
    1    2   11     11.10      0.00
    2    2   11     -2.08      0.00
    3    2   11    -22.43      0.00
    4    2   11    -30.80      0.00
    5    2   11    -20.12      0.00
    6    2   11     -3.59      0.00
    7    2   11      4.66      0.00
    8    2   11      4.54      0.00
    9    2   11      3.04      0.00
   10    2   11      3.15      0.00
   11    2   11      3.07      0.00
   12    2   11      1.42      0.00
   13    2   11     -0.11      0.00
   14    2   11      0.06      0.00
   15    2   11      0.11      0.00
   16    2   11     -1.52      0.00
   17    2   11     -2.60      0.00
  -20    3   11     -1.08      0.00
  -19    3   11     -1.38      0.00
  -18    3   11     -0.84      0.00
  -17    3   11     -0.91      0.00
  -16    3   11     -1.64      0.00
  -15    3   11     -1.31      0.00
  -14    3   11      0.34      0.00
  -13    3   11      1.52      0.00
  -12    3   11      1.98      0.00
  -11    3   11      3.22      0.00
  -10    3   11      4.40      0.00
   -9    3   11      2.71      0.00
   -8    3   11     -1.86      0.00
   -7    3   11     -6.36      0.00
   -6    3   11     -8.52      0.00
   -5    3   11     -7.12      0.00
   -4    3   11     -1.84      0.00
   -3    3   11      4.40      0.00
   -2    3   11      7.39      0.00
   -1    3   11      7.10      0.00
    0    3   11      6.40      0.00
    1    3   11      4.96      0.00
    2    3   11     -0.13      0.00
    3    3   11     -8.17      0.00
    4    3   11    -13.95      0.00
    5    3   11    -13.58      0.00
    6    3   11     -9.06      0.00
    7    3   11     -5.64      0.00
    8    3   11     -5.34      0.00
    9    3   11     -5.60      0.00
   10    3   11     -4.23      0.00
   11    3   11     -2.03      0.00
   12    3   11     -0.02      0.00
   13    3   11      1.84      0.00
   14    3   11      2.96      0.00
   15    3   11      2.24      0.00
   16    3   11      0.15      0.00
   17    3   11     -1.44      0.00
  -20    4   11      0.92      0.00
  -19    4   11      1.62      0.00
  -18    4   11      2.15      0.00
  -17    4   11      1.65      0.00
  -16    4   11     -0.32      0.00
  -15    4   11     -1.77      0.00
  -14    4   11     -0.70      0.00
  -13    4   11      0.84      0.00
  -12    4   11     -0.75      0.00
  -11    4   11     -3.64      0.00
  -10    4   11     -1.75      0.00
   -9    4   11      5.38      0.00
   -8    4   11      9.45      0.00
   -7    4   11      3.66      0.00
   -6    4   11     -7.48      0.00
   -5    4   11    -12.64      0.00
   -4    4   11     -8.21      0.00
   -3    4   11     -4.05      0.00
   -2    4   11     -9.81      0.00
   -1    4   11    -18.77      0.00
    0    4   11    -16.01      0.00
    1    4   11     -1.48      0.00
    2    4   11      9.20      0.00
    3    4   11      7.68      0.00
    4    4   11      2.18      0.00
    5    4   11      2.17      0.00
    6    4   11      6.30      0.00
    7    4   11      7.93      0.00
    8    4   11      4.70      0.00
    9    4   11      0.06      0.00
   10    4   11     -1.88      0.00
   11    4   11     -1.21      0.00
   12    4   11     -0.43      0.00
   13    4   11     -0.02      0.00
   14    4   11      0.78      0.00
   15    4   11      0.80      0.00
   16    4   11     -0.91      0.00
   17    4   11     -2.52      0.00
  -20    5   11     -1.27      0.00
  -18    5   11      0.06      0.00
  -17    5   11     -0.82      0.00
  -16    5   11     -1.65      0.00
  -15    5   11     -2.42      0.00
  -14    5   11     -3.43      0.00
  -13    5   11     -2.73      0.00
  -12    5   11      0.30      0.00
  -11    5   11      1.87      0.00
  -10    5   11     -0.43      0.00
   -9    5   11     -2.62      0.00
   -8    5   11     -0.90      0.00
   -7    5   11      1.75      0.00
   -6    5   11      0.93      0.00
   -5    5   11     -0.79      0.00
   -4    5   11      3.28      0.00
   -3    5   11     12.65      0.00
   -2    5   11     16.99      0.00
   -1    5   11      9.10      0.00
    0    5   11     -3.42      0.00
    1    5   11     -7.11      0.00
    2    5   11     -0.67      0.00
    3    5   11      5.01      0.00
    4    5   11      3.56      0.00
    5    5   11      0.59      0.00
    6    5   11      3.01      0.00
    7    5   11      8.42      0.00
    8    5   11      9.12      0.00
    9    5   11      3.28      0.00
   10    5   11     -2.99      0.00
   11    5   11     -4.51      0.00
   12    5   11     -2.83      0.00
   13    5   11     -1.35      0.00
   14    5   11      0.12      0.00
   15    5   11      2.70      0.00
   16    5   11      4.69      0.00
   17    5   11      4.09      0.00
  -19    6   11     -2.75      0.00
  -18    6   11     -1.58      0.00
  -17    6   11      0.30      0.00
  -16    6   11      0.30      0.00
  -15    6   11     -0.75      0.00
  -14    6   11     -0.57      0.00
  -13    6   11      0.49      0.00
  -12    6   11      1.04      0.00
  -11    6   11      1.36      0.00
  -10    6   11      1.72      0.00
   -9    6   11      1.45      0.00
   -8    6   11      1.22      0.00
   -7    6   11      2.39      0.00
   -6    6   11      4.19      0.00
   -5    6   11      5.31      0.00
   -4    6   11      6.28      0.00
   -3    6   11      6.68      0.00
   -2    6   11      3.16      0.00
   -1    6   11     -5.11      0.00
    0    6   11    -12.14      0.00
    1    6   11    -10.93      0.00
    2    6   11     -2.61      0.00
    3    6   11      4.36      0.00
    4    6   11      4.19      0.00
    5    6   11     -0.50      0.00
    6    6   11     -3.82      0.00
    7    6   11     -3.78      0.00
    8    6   11     -2.21      0.00
    9    6   11     -0.88      0.00
   10    6   11     -0.24      0.00
   11    6   11     -0.36      0.00
   12    6   11     -0.91      0.00
   13    6   11     -0.95      0.00
   14    6   11      0.21      0.00
   15    6   11      1.74      0.00
   16    6   11      2.01      0.00
  -19    7   11      1.46      0.00
  -18    7   11      3.03      0.00
  -17    7   11      3.84      0.00
  -16    7   11      4.58      0.00
  -15    7   11      4.72      0.00
  -14    7   11      3.09      0.00
  -13    7   11      1.43      0.00
  -12    7   11      1.16      0.00
  -11    7   11     -0.10      0.00
  -10    7   11     -3.27      0.00
   -9    7   11     -4.55      0.00
   -8    7   11     -1.46      0.00
   -7    7   11      2.79      0.00
   -6    7   11      3.58      0.00
   -5    7   11      1.01      0.00
   -4    7   11      0.43      0.00
   -3    7   11      5.28      0.00
   -2    7   11     10.17      0.00
   -1    7   11      6.87      0.00
    0    7   11     -2.89      0.00
    1    7   11     -8.42      0.00
    2    7   11     -4.67      0.00
    3    7   11      1.47      0.00
    4    7   11      1.77      0.00
    5    7   11     -2.29      0.00
    6    7   11     -3.71      0.00
    7    7   11     -1.18      0.00
    8    7   11      0.57      0.00
    9    7   11     -0.29      0.00
   10    7   11     -1.07      0.00
   11    7   11     -0.42      0.00
   12    7   11      0.28      0.00
   13    7   11      0.20      0.00
   14    7   11     -0.03      0.00
   15    7   11      0.67      0.00
   16    7   11      2.34      0.00
  -18    8   11     -0.90      0.00
  -17    8   11      1.09      0.00
  -16    8   11      1.23      0.00
  -14    8   11      1.87      0.00
  -13    8   11      2.42      0.00
  -12    8   11      2.93      0.00
  -11    8   11      3.91      0.00
  -10    8   11      3.06      0.00
   -9    8   11     -0.68      0.00
   -8    8   11     -3.60      0.00
   -7    8   11     -2.58      0.00
   -6    8   11     -0.19      0.00
   -5    8   11     -1.01      0.00
   -4    8   11     -4.66      0.00
   -3    8   11     -5.97      0.00
   -2    8   11     -2.91      0.00
   -1    8   11     -0.24      0.00
    0    8   11     -1.82      0.00
    1    8   11     -4.09      0.00
    2    8   11     -1.87      0.00
    3    8   11      3.42      0.00
    4    8   11      6.27      0.00
    5    8   11      4.43      0.00
    6    8   11      0.58      0.00
    7    8   11     -1.58      0.00
    8    8   11     -0.80      0.00
    9    8   11      1.53      0.00
   10    8   11      3.03      0.00
   11    8   11      2.07      0.00
   12    8   11     -0.49      0.00
   13    8   11     -1.57      0.00
   14    8   11     -0.05      0.00
   15    8   11      1.44      0.00
   16    8   11      1.14      0.00
  -18    9   11     -0.06      0.00
  -17    9   11     -1.48      0.00
  -16    9   11     -3.14      0.00
  -15    9   11     -3.11      0.00
  -14    9   11     -1.72      0.00
  -13    9   11     -1.09      0.00
  -12    9   11     -2.00      0.00
  -11    9   11     -3.06      0.00
  -10    9   11     -2.72      0.00
   -9    9   11     -0.97      0.00
   -8    9   11      1.24      0.00
   -7    9   11      3.22      0.00
   -6    9   11      4.43      0.00
   -5    9   11      3.88      0.00
   -4    9   11      1.30      0.00
   -3    9   11     -1.48      0.00
   -2    9   11     -2.14      0.00
   -1    9   11     -1.08      0.00
    0    9   11     -0.86      0.00
    1    9   11     -1.60      0.00
    2    9   11     -0.48      0.00
    3    9   11      2.76      0.00
    4    9   11      4.18      0.00
    5    9   11      1.89      0.00
    6    9   11     -0.76      0.00
    7    9   11     -0.63      0.00
    8    9   11      1.04      0.00
    9    9   11      1.65      0.00
   10    9   11      0.80      0.00
   11    9   11     -0.20      0.00
   12    9   11     -0.27      0.00
   13    9   11      0.24      0.00
   14    9   11      0.28      0.00
   15    9   11      0.05      0.00
  -17   10   11      0.57      0.00
  -16   10   11     -0.49      0.00
  -15   10   11     -0.66      0.00
  -14   10   11      0.54      0.00
  -13   10   11      0.61      0.00
  -12   10   11     -0.50      0.00
  -11   10   11     -0.56      0.00
  -10   10   11     -0.29      0.00
   -9   10   11     -1.84      0.00
   -8   10   11     -3.67      0.00
   -7   10   11     -2.56      0.00
   -6   10   11      0.48      0.00
   -5   10   11      1.19      0.00
   -4   10   11     -1.02      0.00
   -3   10   11     -1.85      0.00
   -2   10   11      0.99      0.00
   -1   10   11      4.17      0.00
    0   10   11      4.12      0.00
    1   10   11      1.47      0.00
    2   10   11     -0.99      0.00
    3   10   11     -1.57      0.00
    4   10   11     -0.63      0.00
    5   10   11      0.03      0.00
    6   10   11     -0.61      0.00
    7   10   11     -1.34      0.00
    8   10   11     -0.75      0.00
    9   10   11      0.75      0.00
   10   10   11      1.61      0.00
   11   10   11      0.60      0.00
   12   10   11     -1.54      0.00
   13   10   11     -2.27      0.00
   14   10   11     -0.92      0.00
  -17   11   11     -0.06      0.00
  -16   11   11     -0.07      0.00
  -15   11   11     -0.89      0.00
  -14   11   11     -0.82      0.00
  -13   11   11      0.40      0.00
  -12   11   11      0.71      0.00
  -11   11   11     -0.08      0.00
  -10   11   11      0.19      0.00
   -9   11   11      1.51      0.00
   -8   11   11      1.40      0.00
   -7   11   11     -0.07      0.00
   -6   11   11      0.23      0.00
   -5   11   11      2.55      0.00
   -4   11   11      3.05      0.00
   -3   11   11      0.75      0.00
   -2   11   11     -0.25      0.00
   -1   11   11      1.84      0.00
    0   11   11      3.07      0.00
    1   11   11      0.84      0.00
    2   11   11     -1.87      0.00
    3   11   11     -1.91      0.00
    4   11   11     -0.47      0.00
    5   11   11     -0.09      0.00
    6   11   11     -0.74      0.00
    7   11   11     -0.82      0.00
    8   11   11     -0.08      0.00
    9   11   11      0.44      0.00
   10   11   11      0.55      0.00
   11   11   11      0.68      0.00
   12   11   11      0.23      0.00
   13   11   11     -1.11      0.00
   14   11   11     -1.69      0.00
  -16   12   11      1.39      0.00
  -15   12   11      1.18      0.00
  -14   12   11      0.65      0.00
  -13   12   11      0.31      0.00
  -12   12   11      0.52      0.00
  -11   12   11      0.73      0.00
  -10   12   11      0.04      0.00
   -9   12   11     -0.96      0.00
   -8   12   11     -0.84      0.00
   -7   12   11      0.05      0.00
   -6   12   11      0.22      0.00
   -5   12   11     -0.21      0.00
   -4   12   11     -0.03      0.00
   -3   12   11      0.97      0.00
   -2   12   11      2.31      0.00
   -1   12   11      3.54      0.00
    0   12   11      3.74      0.00
    1   12   11      2.23      0.00
    2   12   11     -0.21      0.00
    3   12   11     -1.94      0.00
    4   12   11     -2.11      0.00
    5   12   11     -1.53      0.00
    6   12   11     -1.64      0.00
    7   12   11     -2.25      0.00
    8   12   11     -1.49      0.00
    9   12   11      0.82      0.00
   10   12   11      2.11      0.00
   11   12   11      1.02      0.00
   12   12   11     -0.53      0.00
   13   12   11     -0.69      0.00
  -15   13   11      0.51      0.00
  -14   13   11      1.33      0.00
  -13   13   11      2.27      0.00
  -12   13   11      1.84      0.00
  -11   13   11      0.40      0.00
  -10   13   11     -0.43      0.00
   -9   13   11     -0.89      0.00
   -8   13   11     -1.91      0.00
   -7   13   11     -2.53      0.00
   -6   13   11     -1.51      0.00
   -5   13   11      0.37      0.00
   -4   13   11      1.42      0.00
   -3   13   11      0.93      0.00
   -2   13   11      0.01      0.00
   -1   13   11      0.65      0.00
    0   13   11      2.48      0.00
    1   13   11      2.41      0.00
    2   13   11     -0.42      0.00
    3   13   11     -2.84      0.00
    4   13   11     -2.52      0.00
    5   13   11     -0.84      0.00
    6   13   11     -0.04      0.00
    7   13   11     -0.91      0.00
    8   13   11     -2.74      0.00
    9   13   11     -3.62      0.00
   10   13   11     -2.41      0.00
   11   13   11     -0.63      0.00
   12   13   11     -0.18      0.00
  -14   14   11      0.08      0.00
  -13   14   11      0.33      0.00
  -12   14   11      0.23      0.00
  -11   14   11     -0.63      0.00
  -10   14   11     -1.43      0.00
   -9   14   11     -1.37      0.00
   -8   14   11     -1.26      0.00
   -7   14   11     -1.76      0.00
   -6   14   11     -1.83      0.00
   -5   14   11     -0.72      0.00
   -4   14   11      0.57      0.00
   -3   14   11      0.88      0.00
   -2   14   11      0.16      0.00
   -1   14   11     -0.50      0.00
    0   14   11      0.24      0.00
    1   14   11      1.88      0.00
    2   14   11      2.28      0.00
    3   14   11      1.24      0.00
    4   14   11      0.76      0.00
    5   14   11      1.11      0.00
    6   14   11      0.83      0.00
    7   14   11      0.14      0.00
    8   14   11      0.20      0.00
    9   14   11      0.49      0.00
   10   14   11      0.07      0.00
   11   14   11     -0.43      0.00
  -13   15   11      1.46      0.00
  -12   15   11      0.51      0.00
  -11   15   11      0.25      0.00
  -10   15   11      1.07      0.00
   -9   15   11      1.39      0.00
   -8   15   11      0.38      0.00
   -7   15   11     -0.51      0.00
   -6   15   11     -0.04      0.00
   -5   15   11      0.70      0.00
   -4   15   11      0.50      0.00
   -3   15   11     -0.14      0.00
   -2   15   11     -0.42      0.00
   -1   15   11     -0.26      0.00
    0   15   11      0.24      0.00
    1   15   11      0.92      0.00
    2   15   11      1.45      0.00
    3   15   11      1.94      0.00
    4   15   11      2.83      0.00
    5   15   11      3.78      0.00
    6   15   11      3.56      0.00
    7   15   11      1.63      0.00
    8   15   11     -0.54      0.00
    9   15   11     -0.78      0.00
   10   15   11      0.76      0.00
  -11   16   11     -1.78      0.00
  -10   16   11     -3.64      0.00
   -9   16   11     -3.43      0.00
   -8   16   11     -2.24      0.00
   -7   16   11     -1.84      0.00
   -6   16   11     -1.34      0.00
   -5   16   11      0.33      0.00
   -4   16   11      1.86      0.00
   -3   16   11      2.01      0.00
   -2   16   11      1.06      0.00
   -1   16   11     -0.22      0.00
    0   16   11     -0.91      0.00
    1   16   11     -0.71      0.00
    2   16   11     -0.56      0.00
    3   16   11     -0.48      0.00
    4   16   11      0.49      0.00
    5   16   11      1.40      0.00
    6   16   11      0.88      0.00
    7   16   11      0.05      0.00
    8   16   11      0.11      0.00
   -9   17   11     -0.23      0.00
   -8   17   11     -0.43      0.00
   -7   17   11     -1.17      0.00
   -6   17   11     -1.46      0.00
   -5   17   11     -0.11      0.00
   -4   17   11      1.25      0.00
   -3   17   11      0.54      0.00
   -2   17   11     -0.99      0.00
   -1   17   11     -0.96      0.00
    0   17   11      0.75      0.00
    1   17   11      2.35      0.00
    2   17   11      2.03      0.00
    3   17   11      0.01      0.00
    4   17   11     -1.01      0.00
    5   17   11      0.44      0.00
    6   17   11      2.00      0.00
   -6   18   11      0.84      0.00
   -5   18   11      0.85      0.00
   -4   18   11      0.98      0.00
   -3   18   11      0.50      0.00
   -2   18   11     -0.64      0.00
   -1   18   11     -1.62      0.00
    0   18   11     -1.71      0.00
    1   18   11     -0.69      0.00
    2   18   11      0.85      0.00
    3   18   11      1.96      0.00
  -20    0   12     -1.13      0.00
  -19    0   12     -1.65      0.00
  -18    0   12     -2.78      0.00
  -17    0   12     -3.65      0.00
  -16    0   12     -0.64      0.00
  -15    0   12      5.93      0.00
  -14    0   12     10.09      0.00
  -13    0   12      7.74      0.00
  -12    0   12      0.64      0.00
  -11    0   12     -6.14      0.00
  -10    0   12     -8.39      0.00
   -9    0   12     -7.87      0.00
   -8    0   12    -10.41      0.00
   -7    0   12    -14.40      0.00
   -6    0   12    -10.10      0.00
   -5    0   12      2.83      0.00
   -4    0   12      8.78      0.00
   -3    0   12     -3.03      0.00
   -2    0   12    -20.55      0.00
   -1    0   12    -23.30      0.00
    0    0   12     -9.88      0.00
    1    0   12      2.65      0.00
    2    0   12      5.76      0.00
    3    0   12      7.93      0.00
    4    0   12     13.22      0.00
    5    0   12     12.67      0.00
    6    0   12      2.64      0.00
    7    0   12     -7.51      0.00
    8    0   12     -9.94      0.00
    9    0   12     -6.14      0.00
   10    0   12     -1.01      0.00
   11    0   12      1.38      0.00
   12    0   12     -0.21      0.00
   13    0   12     -2.81      0.00
   14    0   12     -3.57      0.00
   15    0   12     -3.09      0.00
   16    0   12     -2.24      0.00
  -20    1   12      0.10      0.00
  -19    1   12      0.67      0.00
  -18    1   12      0.94      0.00
  -17    1   12     -0.48      0.00
  -16    1   12     -2.77      0.00
  -15    1   12     -2.86      0.00
  -14    1   12      0.13      0.00
  -13    1   12      3.18      0.00
  -12    1   12      2.94      0.00
  -11    1   12     -0.06      0.00
  -10    1   12     -0.92      0.00
   -9    1   12      4.32      0.00
   -8    1   12     11.68      0.00
   -7    1   12     12.04      0.00
   -6    1   12      2.76      0.00
   -5    1   12     -9.01      0.00
   -4    1   12    -16.04      0.00
   -3    1   12    -17.62      0.00
   -2    1   12    -15.00      0.00
   -1    1   12     -7.41      0.00
    0    1   12      3.67      0.00
    1    1   12     10.53      0.00
    2    1   12      6.15      0.00
    3    1   12     -5.28      0.00
    4    1   12    -11.78      0.00
    5    1   12     -8.37      0.00
    6    1   12     -1.54      0.00
    7    1   12      1.80      0.00
    8    1   12      1.84      0.00
    9    1   12      1.84      0.00
   10    1   12      2.83      0.00
   11    1   12      3.53      0.00
   12    1   12      2.67      0.00
   13    1   12      0.98      0.00
   14    1   12     -0.01      0.00
   15    1   12     -0.45      0.00
   16    1   12     -1.15      0.00
   17    1   12     -1.39      0.00
  -20    2   12      0.05      0.00
  -19    2   12     -0.97      0.00
  -18    2   12     -1.09      0.00
  -17    2   12     -1.50      0.00
  -16    2   12     -1.96      0.00
  -15    2   12     -1.18      0.00
  -14    2   12     -0.03      0.00
  -13    2   12     -0.61      0.00
  -12    2   12     -2.41      0.00
  -11    2   12     -2.51      0.00
  -10    2   12     -0.20      0.00
   -9    2   12      1.09      0.00
   -8    2   12     -1.51      0.00
   -7    2   12     -5.45      0.00
   -6    2   12     -5.69      0.00
   -5    2   12     -1.61      0.00
   -4    2   12      2.30      0.00
   -3    2   12      2.91      0.00
   -2    2   12      3.14      0.00
   -1    2   12      7.89      0.00
    0    2   12     15.48      0.00
    1    2   12     17.72      0.00
    2    2   12     11.18      0.00
    3    2   12      2.60      0.00
    4    2   12     -0.70      0.00
    5    2   12      0.44      0.00
    6    2   12      1.00      0.00
    7    2   12     -0.84      0.00
    8    2   12     -3.01      0.00
    9    2   12     -3.06      0.00
   10    2   12     -1.37      0.00
   11    2   12     -0.63      0.00
   12    2   12     -1.47      0.00
   13    2   12     -1.51      0.00
   14    2   12      0.02      0.00
   15    2   12      1.06      0.00
   16    2   12      0.63      0.00
   17    2   12     -0.07      0.00
  -20    3   12     -1.30      0.00
  -19    3   12     -1.60      0.00
  -18    3   12     -1.03      0.00
  -17    3   12     -0.77      0.00
  -16    3   12     -1.78      0.00
  -15    3   12     -1.95      0.00
  -14    3   12      0.83      0.00
  -13    3   12      3.92      0.00
  -12    3   12      2.57      0.00
  -11    3   12     -2.05      0.00
  -10    3   12     -1.94      0.00
   -9    3   12      6.92      0.00
   -8    3   12     15.81      0.00
   -7    3   12     12.19      0.00
   -6    3   12     -3.34      0.00
   -5    3   12    -16.98      0.00
   -4    3   12    -19.58      0.00
   -3    3   12    -16.43      0.00
   -2    3   12    -15.21      0.00
   -1    3   12    -11.83      0.00
    0    3   12      1.60      0.00
    1    3   12     18.37      0.00
    2    3   12     21.55      0.00
    3    3   12      8.25      0.00
    4    3   12     -5.30      0.00
    5    3   12     -6.49      0.00
    6    3   12     -0.43      0.00
    7    3   12      2.22      0.00
    8    3   12     -0.19      0.00
    9    3   12     -2.27      0.00
   10    3   12     -1.12      0.00
   11    3   12      0.41      0.00
   12    3   12     -0.65      0.00
   13    3   12     -2.52      0.00
   14    3   12     -2.61      0.00
   15    3   12     -2.36      0.00
   16    3   12     -3.42      0.00
   17    3   12     -3.76      0.00
  -20    4   12     -1.17      0.00
  -19    4   12     -1.00      0.00
  -18    4   12     -0.88      0.00
  -17    4   12     -1.81      0.00
  -16    4   12     -3.20      0.00
  -15    4   12     -3.67      0.00
  -14    4   12     -3.09      0.00
  -13    4   12     -1.95      0.00
  -12    4   12     -0.30      0.00
  -11    4   12      1.08      0.00
  -10    4   12      1.15      0.00
   -9    4   12      1.03      0.00
   -8    4   12      1.92      0.00
   -7    4   12      1.50      0.00
   -6    4   12     -2.99      0.00
   -5    4   12     -8.37      0.00
   -4    4   12     -8.05      0.00
   -3    4   12     -1.49      0.00
   -2    4   12      4.08      0.00
   -1    4   12      3.48      0.00
    0    4   12      0.19      0.00
    1    4   12     -0.52      0.00
    2    4   12     -0.51      0.00
    3    4   12     -4.66      0.00
    4    4   12    -11.16      0.00
    5    4   12    -12.88      0.00
    6    4   12     -7.36      0.00
    7    4   12     -0.02      0.00
    8    4   12      2.93      0.00
    9    4   12      1.09      0.00
   10    4   12     -1.37      0.00
   11    4   12     -1.52      0.00
   12    4   12     -0.06      0.00
   13    4   12      1.41      0.00
   14    4   12      2.52      0.00
   15    4   12      2.83      0.00
   16    4   12      1.64      0.00
   17    4   12     -0.13      0.00
  -20    5   12      1.41      0.00
  -18    5   12      1.15      0.00
  -17    5   12      1.04      0.00
  -16    5   12     -0.29      0.00
  -15    5   12     -1.28      0.00
  -14    5   12      0.33      0.00
  -13    5   12      2.86      0.00
  -12    5   12      3.23      0.00
  -11    5   12      2.68      0.00
  -10    5   12      4.37      0.00
   -9    5   12      7.34      0.00
   -8    5   12      7.77      0.00
   -7    5   12      4.30      0.00
   -6    5   12     -0.52      0.00
   -5    5   12     -2.00      0.00
   -4    5   12      2.30      0.00
   -3    5   12      7.82      0.00
   -2    5   12      6.69      0.00
   -1    5   12     -1.00      0.00
    0    5   12     -5.72      0.00
    1    5   12     -1.56      0.00
    2    5   12      5.63      0.00
    3    5   12      7.16      0.00
    4    5   12      2.53      0.00
    5    5   12     -2.37      0.00
    6    5   12     -3.90      0.00
    7    5   12     -3.39      0.00
    8    5   12     -3.10      0.00
    9    5   12     -2.98      0.00
   10    5   12     -1.98      0.00
   11    5   12     -0.24      0.00
   12    5   12      1.15      0.00
   13    5   12      1.94      0.00
   14    5   12      2.70      0.00
   15    5   12      3.02      0.00
   16    5   12      1.86      0.00
  -19    6   12      1.91      0.00
  -18    6   12      2.13      0.00
  -17    6   12      1.04      0.00
  -16    6   12      0.20      0.00
  -15    6   12     -0.78      0.00
  -14    6   12     -3.00      0.00
  -13    6   12     -4.18      0.00
  -12    6   12     -2.56      0.00
  -11    6   12     -1.46      0.00
  -10    6   12     -3.22      0.00
   -9    6   12     -4.18      0.00
   -8    6   12     -1.29      0.00
   -7    6   12      1.77      0.00
   -6    6   12     -0.16      0.00
   -5    6   12     -5.52      0.00
   -4    6   12     -6.90      0.00
   -3    6   12     -0.98      0.00
   -2    6   12      4.68      0.00
   -1    6   12      0.62      0.00
    0    6   12     -9.93      0.00
    1    6   12    -14.02      0.00
    2    6   12     -6.94      0.00
    3    6   12      1.95      0.00
    4    6   12      3.43      0.00
    5    6   12      0.22      0.00
    6    6   12      0.31      0.00
    7    6   12      4.08      0.00
    8    6   12      4.88      0.00
    9    6   12      0.38      0.00
   10    6   12     -4.18      0.00
   11    6   12     -4.50      0.00
   12    6   12     -2.35      0.00
   13    6   12     -0.99      0.00
   14    6   12     -0.43      0.00
   15    6   12      1.00      0.00
   16    6   12      3.03      0.00
  -19    7   12     -3.55      0.00
  -18    7   12     -1.92      0.00
  -17    7   12      1.74      0.00
  -16    7   12      3.38      0.00
  -15    7   12      2.39      0.00
  -14    7   12      1.24      0.00
  -13    7   12      1.33      0.00
  -12    7   12      2.66      0.00
  -11    7   12      4.25      0.00
  -10    7   12      3.63      0.00
   -9    7   12     -0.14      0.00
   -8    7   12     -3.81      0.00
   -7    7   12     -4.17      0.00
   -6    7   12     -2.58      0.00
   -5    7   12     -2.05      0.00
   -4    7   12     -2.05      0.00
   -3    7   12      0.07      0.00
   -2    7   12      3.26      0.00
   -1    7   12      2.52      0.00
    0    7   12     -3.16      0.00
    1    7   12     -7.12      0.00
    2    7   12     -3.70      0.00
    3    7   12      3.49      0.00
    4    7   12      7.12      0.00
    5    7   12      5.68      0.00
    6    7   12      3.00      0.00
    7    7   12      1.71      0.00
    8    7   12      1.60      0.00
    9    7   12      2.11      0.00
   10    7   12      2.73      0.00
   11    7   12      2.14      0.00
   12    7   12     -0.31      0.00
   13    7   12     -2.44      0.00
   14    7   12     -1.56      0.00
   15    7   12      1.33      0.00
   16    7   12      2.90      0.00
  -18    8   12     -1.14      0.00
  -17    8   12     -1.35      0.00
  -16    8   12     -1.27      0.00
  -14    8   12     -1.10      0.00
  -13    8   12     -1.38      0.00
  -12    8   12     -1.11      0.00
  -11    8   12     -0.98      0.00
  -10    8   12     -1.24      0.00
   -9    8   12     -0.34      0.00
   -8    8   12      2.47      0.00
   -7    8   12      5.36      0.00
   -6    8   12      5.54      0.00
   -5    8   12      2.29      0.00
   -4    8   12     -1.72      0.00
   -3    8   12     -3.16      0.00
   -2    8   12     -2.19      0.00
   -1    8   12     -1.94      0.00
    0    8   12     -3.45      0.00
    1    8   12     -3.56      0.00
    2    8   12      0.64      0.00
    3    8   12      6.40      0.00
    4    8   12      7.91      0.00
    5    8   12      4.39      0.00
    6    8   12      0.79      0.00
    7    8   12      0.08      0.00
    8    8   12      0.57      0.00
    9    8   12      0.62      0.00
   10    8   12      0.51      0.00
   11    8   12      0.58      0.00
   12    8   12      1.09      0.00
   13    8   12      1.75      0.00
   14    8   12      1.24      0.00
   15    8   12     -0.27      0.00
  -18    9   12      0.88      0.00
  -17    9   12      1.56      0.00
  -16    9   12      0.61      0.00
  -15    9   12      0.51      0.00
  -14    9   12      1.85      0.00
  -13    9   12      2.06      0.00
  -12    9   12      1.16      0.00
  -11    9   12      1.42      0.00
  -10    9   12      1.94      0.00
   -9    9   12      0.46      0.00
   -8    9   12     -1.17      0.00
   -7    9   12      0.56      0.00
   -6    9   12      4.24      0.00
   -5    9   12      4.67      0.00
   -4    9   12      1.16      0.00
   -3    9   12     -0.65      0.00
   -2    9   12      2.22      0.00
   -1    9   12      5.14      0.00
    0    9   12      3.38      0.00
    1    9   12     -0.98      0.00
    2    9   12     -3.07      0.00
    3    9   12     -1.78      0.00
    4    9   12      0.21      0.00
    5    9   12      0.38      0.00
    6    9   12     -1.06      0.00
    7    9   12     -2.28      0.00
    8    9   12     -2.27      0.00
    9    9   12     -1.09      0.00
   10    9   12      0.37      0.00
   11    9   12      0.25      0.00
   12    9   12     -1.78      0.00
   13    9   12     -2.72      0.00
   14    9   12     -1.15      0.00
   15    9   12      0.13      0.00
  -17   10   12     -0.89      0.00
  -16   10   12     -2.17      0.00
  -15   10   12     -3.57      0.00
  -14   10   12     -3.40      0.00
  -13   10   12     -1.96      0.00
  -12   10   12     -1.25      0.00
  -11   10   12     -1.61      0.00
  -10   10   12     -1.31      0.00
   -9   10   12      0.05      0.00
   -8   10   12      0.52      0.00
   -7   10   12     -0.35      0.00
   -6   10   12     -0.45      0.00
   -5   10   12      0.39      0.00
   -4   10   12     -0.77      0.00
   -3   10   12     -4.13      0.00
   -2   10   12     -5.66      0.00
   -1   10   12     -3.90      0.00
    0   10   12     -2.48      0.00
    1   10   12     -3.40      0.00
    2   10   12     -3.84      0.00
    3   10   12     -1.73      0.00
    4   10   12      0.45      0.00
    5   10   12     -0.16      0.00
    6   10   12     -2.30      0.00
    7   10   12     -3.00      0.00
    8   10   12     -1.94      0.00
    9   10   12     -1.04      0.00
   10   10   12     -0.86      0.00
   11   10   12     -0.56      0.00
   12   10   12     -0.21      0.00
   13   10   12     -0.42      0.00
   14   10   12     -0.68      0.00
  -17   11   12      0.99      0.00
  -16   11   12      1.33      0.00
  -15   11   12      1.58      0.00
  -14   11   12      1.75      0.00
  -13   11   12      0.88      0.00
  -12   11   12     -0.43      0.00
  -11   11   12     -0.72      0.00
  -10   11   12     -0.52      0.00
   -9   11   12     -0.73      0.00
   -8   11   12     -0.35      0.00
   -7   11   12      1.38      0.00
   -6   11   12      2.96      0.00
   -5   11   12      2.51      0.00
   -4   11   12      0.22      0.00
   -3   11   12     -1.68      0.00
   -2   11   12     -1.33      0.00
   -1   11   12      0.36      0.00
    0   11   12      1.05      0.00
    1   11   12      0.22      0.00
    2   11   12     -0.62      0.00
    3   11   12     -0.44      0.00
    4   11   12      0.35      0.00
    5   11   12      0.84      0.00
    6   11   12      0.57      0.00
    7   11   12      0.14      0.00
    8   11   12      0.70      0.00
    9   11   12      2.24      0.00
   10   11   12      3.09      0.00
   11   11   12      1.92      0.00
   12   11   12     -0.19      0.00
   13   11   12     -0.93      0.00
  -16   12   12      1.13      0.00
  -15   12   12      0.96      0.00
  -14   12   12      1.53      0.00
  -13   12   12      2.96      0.00
  -12   12   12      2.89      0.00
  -11   12   12      0.72      0.00
  -10   12   12     -1.20      0.00
   -9   12   12     -1.78      0.00
   -8   12   12     -2.24      0.00
   -7   12   12     -2.61      0.00
   -6   12   12     -1.29      0.00
   -5   12   12      1.26      0.00
   -4   12   12      2.09      0.00
   -3   12   12      0.17      0.00
   -2   12   12     -1.46      0.00
   -1   12   12     -0.03      0.00
    0   12   12      2.55      0.00
    1   12   12      2.45      0.00
    2   12   12     -0.36      0.00
    3   12   12     -2.46      0.00
    4   12   12     -2.10      0.00
    5   12   12     -0.73      0.00
    6   12   12      0.10      0.00
    7   12   12      0.30      0.00
    8   12   12      0.05      0.00
    9   12   12     -0.29      0.00
   10   12   12      0.27      0.00
   11   12   12      1.63      0.00
   12   12   12      1.98      0.00
  -15   13   12     -0.47      0.00
  -14   13   12     -1.38      0.00
  -13   13   12     -1.32      0.00
  -12   13   12     -0.26      0.00
  -11   13   12      0.36      0.00
  -10   13   12     -0.30      0.00
   -9   13   12     -0.99      0.00
   -8   13   12     -0.67      0.00
   -7   13   12     -0.10      0.00
   -6   13   12      0.02      0.00
   -5   13   12      0.31      0.00
   -4   13   12      0.89      0.00
   -3   13   12      0.96      0.00
   -2   13   12      0.60      0.00
   -1   13   12      0.62      0.00
    0   13   12      0.89      0.00
    1   13   12      0.61      0.00
    2   13   12     -0.41      0.00
    3   13   12     -1.38      0.00
    4   13   12     -1.21      0.00
    5   13   12     -0.11      0.00
    6   13   12      0.31      0.00
    7   13   12     -0.13      0.00
    8   13   12      0.27      0.00
    9   13   12      1.56      0.00
   10   13   12      1.65      0.00
   11   13   12      0.31      0.00
   12   13   12     -0.61      0.00
  -14   14   12     -0.75      0.00
  -13   14   12     -0.44      0.00
  -12   14   12     -0.48      0.00
  -11   14   12     -0.08      0.00
  -10   14   12      1.18      0.00
   -9   14   12      1.61      0.00
   -8   14   12      0.37      0.00
   -7   14   12     -0.76      0.00
   -6   14   12     -0.69      0.00
   -5   14   12     -0.35      0.00
   -4   14   12     -0.38      0.00
   -3   14   12     -0.53      0.00
   -2   14   12     -0.62      0.00
   -1   14   12     -0.17      0.00
    0   14   12      0.81      0.00
    1   14   12      0.87      0.00
    2   14   12     -0.58      0.00
    3   14   12     -1.91      0.00
    4   14   12     -1.86      0.00
    5   14   12     -0.90      0.00
    6   14   12     -0.17      0.00
    7   14   12     -0.65      0.00
    8   14   12     -1.98      0.00
    9   14   12     -2.14      0.00
   10   14   12     -0.45      0.00
  -12   15   12      0.25      0.00
  -11   15   12     -0.60      0.00
  -10   15   12     -1.84      0.00
   -9   15   12     -1.74      0.00
   -8   15   12     -1.08      0.00
   -7   15   12     -1.08      0.00
   -6   15   12     -0.75      0.00
   -5   15   12      0.67      0.00
   -4   15   12      1.83      0.00
   -3   15   12      1.44      0.00
   -2   15   12     -0.42      0.00
   -1   15   12     -2.33      0.00
    0   15   12     -2.30      0.00
    1   15   12     -0.58      0.00
    2   15   12      0.21      0.00
    3   15   12     -0.49      0.00
    4   15   12     -0.67      0.00
    5   15   12     -0.19      0.00
    6   15   12     -0.49      0.00
    7   15   12     -1.11      0.00
    8   15   12     -1.11      0.00
    9   15   12     -1.01      0.00
  -11   16   12     -1.48      0.00
  -10   16   12     -1.62      0.00
   -9   16   12     -1.66      0.00
   -8   16   12     -2.31      0.00
   -7   16   12     -3.05      0.00
   -6   16   12     -2.32      0.00
   -5   16   12     -0.32      0.00
   -4   16   12      0.72      0.00
   -3   16   12     -0.12      0.00
   -2   16   12     -1.30      0.00
   -1   16   12     -1.42      0.00
    0   16   12     -0.33      0.00
    1   16   12      1.31      0.00
    2   16   12      2.09      0.00
    3   16   12      1.29      0.00
    4   16   12      0.33      0.00
    5   16   12      0.56      0.00
    6   16   12      0.88      0.00
    7   16   12     -0.04      0.00
    8   16   12     -1.22      0.00
   -9   17   12     -0.86      0.00
   -8   17   12      0.07      0.00
   -7   17   12      0.20      0.00
   -6   17   12      0.04      0.00
   -5   17   12      0.75      0.00
   -4   17   12      1.62      0.00
   -3   17   12      1.59      0.00
   -2   17   12      0.89      0.00
   -1   17   12     -0.03      0.00
    0   17   12     -0.88      0.00
    1   17   12     -1.10      0.00
    2   17   12     -0.48      0.00
    3   17   12      0.92      0.00
    4   17   12      3.05      0.00
    5   17   12      4.67      0.00
    6   17   12      4.14      0.00
   -6   18   12     -1.99      0.00
   -5   18   12     -1.80      0.00
   -4   18   12     -0.12      0.00
   -3   18   12      0.60      0.00
   -2   18   12     -0.32      0.00
   -1   18   12     -1.15      0.00
    0   18   12     -0.84      0.00
    1   18   12      0.02      0.00
    2   18   12      0.20      0.00
  -20    1   13      0.42      0.00
  -19    1   13      0.79      0.00
  -18    1   13      0.25      0.00
  -17    1   13     -1.09      0.00
  -16    1   13     -0.35      0.00
  -15    1   13      3.03      0.00
  -14    1   13      5.21      0.00
  -13    1   13      3.30      0.00
  -12    1   13     -1.23      0.00
  -11    1   13     -4.93      0.00
  -10    1   13     -5.96      0.00
   -9    1   13     -6.36      0.00
   -8    1   13     -9.14      0.00
   -7    1   13    -11.13      0.00
   -6    1   13     -4.29      0.00
   -5    1   13     11.40      0.00
   -4    1   13     23.35      0.00
   -3    1   13     20.68      0.00
   -2    1   13      8.46      0.00
   -1    1   13      0.76      0.00
    0    1   13      1.78      0.00
    1    1   13      2.99      0.00
    2    1   13      0.15      0.00
    3    1   13      0.03      0.00
    4    1   13      5.81      0.00
    5    1   13      9.79      0.00
    6    1   13      6.40      0.00
    7    1   13      0.12      0.00
    8    1   13     -2.97      0.00
    9    1   13     -1.97      0.00
   10    1   13      0.63      0.00
   11    1   13      1.73      0.00
   12    1   13      0.32      0.00
   13    1   13     -1.36      0.00
   14    1   13     -1.47      0.00
   15    1   13     -0.76      0.00
   16    1   13     -0.14      0.00
   17    1   13      0.29      0.00
  -20    2   13     -1.66      0.00
  -19    2   13     -1.53      0.00
  -18    2   13     -0.55      0.00
  -17    2   13     -0.55      0.00
  -16    2   13     -1.79      0.00
  -15    2   13     -1.56      0.00
  -14    2   13      1.89      0.00
  -13    2   13      5.91      0.00
  -12    2   13      5.39      0.00
  -11    2   13     -0.78      0.00
  -10    2   13     -5.69      0.00
   -9    2   13     -1.57      0.00
   -8    2   13      8.11      0.00
   -7    2   13     11.24      0.00
   -6    2   13      3.87      0.00
   -5    2   13     -5.20      0.00
   -4    2   13     -8.77      0.00
   -3    2   13     -9.91      0.00
   -2    2   13    -11.90      0.00
   -1    2   13     -8.66      0.00
    0    2   13      5.61      0.00
    1    2   13     22.19      0.00
    2    2   13     25.10      0.00
    3    2   13     12.60      0.00
    4    2   13     -0.66      0.00
    5    2   13     -3.97      0.00
    6    2   13     -1.26      0.00
    7    2   13     -0.25      0.00
    8    2   13     -1.77      0.00
    9    2   13     -2.09      0.00
   10    2   13      0.33      0.00
   11    2   13      2.63      0.00
   12    2   13      1.70      0.00
   13    2   13     -1.12      0.00
   14    2   13     -2.54      0.00
   15    2   13     -2.54      0.00
   16    2   13     -2.63      0.00
   17    2   13     -2.17      0.00
  -20    3   13      0.00      0.00
  -19    3   13     -0.43      0.00
  -18    3   13      0.54      0.00
  -17    3   13      1.20      0.00
  -16    3   13      0.50      0.00
  -15    3   13     -0.34      0.00
  -14    3   13     -0.68      0.00
  -13    3   13     -1.17      0.00
  -12    3   13     -1.59      0.00
  -11    3   13     -0.99      0.00
  -10    3   13      0.59      0.00
   -9    3   13      2.70      0.00
   -8    3   13      4.95      0.00
   -7    3   13      5.88      0.00
   -6    3   13      3.70      0.00
   -5    3   13     -0.74      0.00
   -4    3   13     -4.00      0.00
   -3    3   13     -3.90      0.00
   -2    3   13     -1.34      0.00
   -1    3   13      2.26      0.00
    0    3   13      6.06      0.00
    1    3   13      7.37      0.00
    2    3   13      2.47      0.00
    3    3   13     -7.39      0.00
    4    3   13    -14.83      0.00
    5    3   13    -14.26      0.00
    6    3   13     -7.93      0.00
    7    3   13     -2.02      0.00
    8    3   13      0.39      0.00
    9    3   13      0.66      0.00
   10    3   13      0.74      0.00
   11    3   13      0.56      0.00
   12    3   13     -0.24      0.00
   13    3   13     -0.39      0.00
   14    3   13      0.97      0.00
   15    3   13      2.19      0.00
   16    3   13      1.54      0.00
  -20    4   13     -0.56      0.00
  -19    4   13     -1.46      0.00
  -18    4   13     -1.14      0.00
  -17    4   13     -0.04      0.00
  -16    4   13      0.19      0.00
  -15    4   13      0.64      0.00
  -14    4   13      3.33      0.00
  -13    4   13      5.91      0.00
  -12    4   13      3.89      0.00
  -11    4   13     -1.66      0.00
  -10    4   13     -4.37      0.00
   -9    4   13     -1.64      0.00
   -8    4   13      1.37      0.00
   -7    4   13     -1.41      0.00
   -6    4   13     -8.90      0.00
   -5    4   13    -13.31      0.00
   -4    4   13     -9.45      0.00
   -3    4   13     -2.01      0.00
   -2    4   13      0.50      0.00
   -1    4   13     -1.06      0.00
    0    4   13      2.51      0.00
    1    4   13     12.51      0.00
    2    4   13     17.64      0.00
    3    4   13     10.57      0.00
    4    4   13     -1.08      0.00
    5    4   13     -6.34      0.00
    6    4   13     -4.85      0.00
    7    4   13     -3.06      0.00
    8    4   13     -3.33      0.00
    9    4   13     -2.84      0.00
   10    4   13     -0.27      0.00
   11    4   13      1.80      0.00
   12    4   13      1.43      0.00
   13    4   13      0.38      0.00
   14    4   13      0.65      0.00
   15    4   13      1.01      0.00
   16    4   13     -0.16      0.00
  -20    5   13      0.34      0.00
  -18    5   13      1.58      0.00
  -17    5   13     -0.01      0.00
  -16    5   13     -1.51      0.00
  -15    5   13     -1.81      0.00
  -14    5   13     -1.73      0.00
  -13    5   13     -1.03      0.00
  -12    5   13      0.91      0.00
  -11    5   13      2.05      0.00
  -10    5   13      1.06      0.00
   -9    5   13      1.07      0.00
   -8    5   13      4.01      0.00
   -7    5   13      5.28      0.00
   -6    5   13     -0.19      0.00
   -5    5   13     -9.30      0.00
   -4    5   13    -13.14      0.00
   -3    5   13     -7.97      0.00
   -2    5   13     -0.41      0.00
   -1    5   13      1.48      0.00
    0    5   13     -0.17      0.00
    1    5   13      2.76      0.00
    2    5   13     10.47      0.00
    3    5   13     14.40      0.00
    4    5   13     10.41      0.00
    5    5   13      4.52      0.00
    6    5   13      3.80      0.00
    7    5   13      7.07      0.00
    8    5   13      7.72      0.00
    9    5   13      3.36      0.00
   10    5   13     -1.55      0.00
   11    5   13     -2.84      0.00
   12    5   13     -1.74      0.00
   13    5   13     -1.08      0.00
   14    5   13     -1.03      0.00
   15    5   13     -0.84      0.00
   16    5   13     -0.70      0.00
  -19    6   13     -3.23      0.00
  -18    6   13     -3.12      0.00
  -17    6   13     -1.43      0.00
  -16    6   13     -0.84      0.00
  -15    6   13     -1.64      0.00
  -14    6   13     -1.53      0.00
  -13    6   13     -0.17      0.00
  -12    6   13      1.09      0.00
  -11    6   13      2.26      0.00
  -10    6   13      3.34      0.00
   -9    6   13      3.04      0.00
   -8    6   13      1.28      0.00
   -7    6   13     -0.62      0.00
   -6    6   13     -1.98      0.00
   -5    6   13     -2.04      0.00
   -4    6   13      1.05      0.00
   -3    6   13      7.00      0.00
   -2    6   13     10.99      0.00
   -1    6   13      8.16      0.00
    0    6   13      0.52      0.00
    1    6   13     -4.27      0.00
    2    6   13     -2.39      0.00
    3    6   13      1.69      0.00
    4    6   13      2.54      0.00
    5    6   13      0.68      0.00
    6    6   13     -0.44      0.00
    7    6   13     -0.09      0.00
    8    6   13      0.20      0.00
    9    6   13     -0.20      0.00
   10    6   13     -0.42      0.00
   11    6   13     -0.25      0.00
   12    6   13     -0.92      0.00
   13    6   13     -2.41      0.00
   14    6   13     -2.32      0.00
   15    6   13      0.03      0.00
   16    6   13      1.74      0.00
  -19    7   13     -0.31      0.00
  -18    7   13     -0.62      0.00
  -17    7   13     -1.07      0.00
  -16    7   13     -0.49      0.00
  -15    7   13      0.38      0.00
  -14    7   13     -0.02      0.00
  -13    7   13     -0.28      0.00
  -12    7   13      1.34      0.00
  -11    7   13      2.86      0.00
  -10    7   13      2.21      0.00
   -9    7   13      1.45      0.00
   -8    7   13      3.14      0.00
   -7    7   13      5.56      0.00
   -6    7   13      4.71      0.00
   -5    7   13      0.23      0.00
   -4    7   13     -2.80      0.00
   -3    7   13     -0.20      0.00
   -2    7   13      4.60      0.00
   -1    7   13      4.39      0.00
    0    7   13     -1.34      0.00
    1    7   13     -4.99      0.00
    2    7   13     -1.49      0.00
    3    7   13      4.26      0.00
    4    7   13      4.48      0.00
    5    7   13     -0.23      0.00
    6    7   13     -2.91      0.00
    7    7   13     -1.35      0.00
    8    7   13      0.25      0.00
    9    7   13     -0.52      0.00
   10    7   13     -1.60      0.00
   11    7   13     -1.01      0.00
   12    7   13      0.74      0.00
   13    7   13      1.77      0.00
   14    7   13      0.89      0.00
   15    7   13     -0.56      0.00
  -18    8   13      2.11      0.00
  -17    8   13      5.06      0.00
  -16    8   13      5.89      0.00
  -15    8   13      4.44      0.00
  -14    8   13      2.55      0.00
  -13    8   13      1.07      0.00
  -12    8   13      0.94      0.00
  -11    8   13      2.59      0.00
  -10    8   13      3.52      0.00
   -9    8   13      1.30      0.00
   -8    8   13     -1.74      0.00
   -7    8   13     -1.55      0.00
   -6    8   13      0.97      0.00
   -5    8   13      1.25      0.00
   -4    8   13     -0.99      0.00
   -3    8   13     -0.54      0.00
   -2    8   13      4.27      0.00
   -1    8   13      7.26      0.00
    0    8   13      3.36      0.00
    1    8   13     -3.13      0.00
    2    8   13     -4.77      0.00
    3    8   13     -1.14      0.00
    4    8   13      2.36      0.00
    5    8   13      2.72      0.00
    6    8   13      1.50      0.00
    7    8   13      0.42      0.00
    8    8   13     -0.50      0.00
    9    8   13     -0.54      0.00
   10    8   13      1.17      0.00
   11    8   13      2.60      0.00
   12    8   13      1.34      0.00
   13    8   13     -0.81      0.00
   14    8   13     -0.74      0.00
   15    8   13      0.66      0.00
  -18    9   13     -0.03      0.00
  -17    9   13      1.07      0.00
  -16    9   13      1.63      0.00
  -15    9   13      1.01      0.00
  -14    9   13      0.14      0.00
  -13    9   13      0.45      0.00
  -12    9   13      1.67      0.00
  -11    9   13      2.20      0.00
  -10    9   13      1.96      0.00
   -9    9   13      2.05      0.00
   -8    9   13      2.21      0.00
   -7    9   13      1.56      0.00
   -6    9   13      0.50      0.00
   -5    9   13     -0.57      0.00
   -4    9   13     -2.26      0.00
   -3    9   13     -4.02      0.00
   -2    9   13     -3.85      0.00
   -1    9   13     -1.86      0.00
    0    9   13     -0.64      0.00
    1    9   13     -0.71      0.00
    2    9   13      0.73      0.00
    3    9   13      4.50      0.00
    4    9   13      7.11      0.00
    5    9   13      5.85      0.00
    6    9   13      2.51      0.00
    7    9   13     -0.03      0.00
    8    9   13     -1.18      0.00
    9    9   13     -1.52      0.00
   10    9   13     -1.34      0.00
   11    9   13     -0.88      0.00
   12    9   13     -0.18      0.00
   13    9   13      0.72      0.00
   14    9   13      1.09      0.00
  -17   10   13      0.04      0.00
  -16   10   13     -0.78      0.00
  -15   10   13     -0.59      0.00
  -14   10   13      0.37      0.00
  -13   10   13     -0.53      0.00
  -12   10   13     -2.85      0.00
  -11   10   13     -3.50      0.00
  -10   10   13     -2.36      0.00
   -9   10   13     -1.61      0.00
   -8   10   13     -0.96      0.00
   -7   10   13      1.44      0.00
   -6   10   13      4.42      0.00
   -5   10   13      4.33      0.00
   -4   10   13      0.55      0.00
   -3   10   13     -2.84      0.00
   -2   10   13     -2.52      0.00
   -1   10   13     -0.20      0.00
    0   10   13      0.68      0.00
    1   10   13     -0.08      0.00
    2   10   13     -0.24      0.00
    3   10   13      1.10      0.00
    4   10   13      2.49      0.00
    5   10   13      2.48      0.00
    6   10   13      1.44      0.00
    7   10   13      0.55      0.00
    8   10   13      0.15      0.00
    9   10   13      0.15      0.00
   10   10   13      0.08      0.00
   11   10   13     -1.22      0.00
   12   10   13     -3.42      0.00
   13   10   13     -3.77      0.00
   14   10   13     -1.58      0.00
  -16   11   13     -0.33      0.00
  -15   11   13     -1.24      0.00
  -14   11   13     -0.82      0.00
  -13   11   13      0.92      0.00
  -12   11   13      1.47      0.00
  -11   11   13      0.12      0.00
  -10   11   13     -0.79      0.00
   -9   11   13     -0.27      0.00
   -8   11   13     -0.41      0.00
   -7   11   13     -1.70      0.00
   -6   11   13     -1.52      0.00
   -5   11   13      0.48      0.00
   -4   11   13      0.86      0.00
   -3   11   13     -1.33      0.00
   -2   11   13     -2.27      0.00
   -1   11   13      0.22      0.00
    0   11   13      3.15      0.00
    1   11   13      3.28      0.00
    2   11   13      1.40      0.00
    3   11   13      0.28      0.00
    4   11   13      0.36      0.00
    5   11   13     -0.08      0.00
    6   11   13     -1.31      0.00
    7   11   13     -1.69      0.00
    8   11   13     -1.04      0.00
    9   11   13     -0.75      0.00
   10   11   13     -0.50      0.00
   11   11   13      0.64      0.00
   12   11   13      1.32      0.00
   13   11   13      0.36      0.00
  -16   12   13      0.03      0.00
  -15   12   13     -0.12      0.00
  -14   12   13     -0.53      0.00
  -13   12   13     -0.73      0.00
  -12   12   13     -0.07      0.00
  -11   12   13      1.01      0.00
  -10   12   13      1.27      0.00
   -9   12   13      1.08      0.00
   -8   12   13      1.70      0.00
   -7   12   13      2.60      0.00
   -6   12   13      2.56      0.00
   -5   12   13      1.61      0.00
   -4   12   13     -0.01      0.00
   -3   12   13     -1.88      0.00
   -2   12   13     -2.26      0.00
   -1   12   13     -0.73      0.00
    0   12   13      0.43      0.00
    1   12   13      0.06      0.00
    2   12   13     -0.33      0.00
    3   12   13      0.27      0.00
    4   12   13      1.24      0.00
    5   12   13      1.67      0.00
    6   12   13      0.94      0.00
    7   12   13     -0.31      0.00
    8   12   13     -0.15      0.00
    9   12   13      1.60      0.00
   10   12   13      2.66      0.00
   11   12   13      1.85      0.00
   12   12   13      0.49      0.00
  -15   13   13      1.28      0.00
  -14   13   13      2.27      0.00
  -13   13   13      3.55      0.00
  -12   13   13      3.61      0.00
  -11   13   13      2.50      0.00
  -10   13   13      1.57      0.00
   -9   13   13      0.78      0.00
   -8   13   13     -0.38      0.00
   -7   13   13     -1.14      0.00
   -6   13   13     -0.74      0.00
   -5   13   13      0.20      0.00
   -4   13   13      0.53      0.00
   -3   13   13     -0.24      0.00
   -2   13   13     -1.05      0.00
   -1   13   13     -0.14      0.00
    0   13   13      1.81      0.00
    1   13   13      1.82      0.00
    2   13   13     -0.69      0.00
    3   13   13     -2.96      0.00
    4   13   13     -3.33      0.00
    5   13   13     -2.64      0.00
    6   13   13     -1.99      0.00
    7   13   13     -1.91      0.00
    8   13   13     -2.42      0.00
    9   13   13     -2.47      0.00
   10   13   13     -1.16      0.00
   11   13   13      0.46      0.00
  -14   14   13     -2.67      0.00
  -13   14   13     -1.51      0.00
  -12   14   13      0.67      0.00
  -11   14   13      1.46      0.00
  -10   14   13      0.39      0.00
   -9   14   13     -0.50      0.00
   -8   14   13     -0.34      0.00
   -7   14   13     -0.26      0.00
   -6   14   13     -0.59      0.00
   -5   14   13     -0.40      0.00
   -4   14   13      0.24      0.00
   -3   14   13      0.07      0.00
   -2   14   13     -1.26      0.00
   -1   14   13     -2.35      0.00
    0   14   13     -1.75      0.00
    1   14   13     -0.28      0.00
    2   14   13     -0.17      0.00
    3   14   13     -1.46      0.00
    4   14   13     -1.89      0.00
    5   14   13     -0.91      0.00
    6   14   13     -0.31      0.00
    7   14   13     -0.65      0.00
    8   14   13     -0.83      0.00
    9   14   13     -0.70      0.00
   10   14   13     -0.83      0.00
  -12   15   13      0.08      0.00
  -11   15   13      0.21      0.00
  -10   15   13      1.43      0.00
   -9   15   13      2.15      0.00
   -8   15   13      1.18      0.00
   -7   15   13      0.11      0.00
   -6   15   13      0.58      0.00
   -5   15   13      1.57      0.00
   -4   15   13      1.35      0.00
   -3   15   13     -0.01      0.00
   -2   15   13     -1.27      0.00
   -1   15   13     -1.50      0.00
    0   15   13     -0.66      0.00
    1   15   13      0.36      0.00
    2   15   13      0.58      0.00
    3   15   13      0.00      0.00
    4   15   13     -0.43      0.00
    5   15   13      0.03      0.00
    6   15   13      0.81      0.00
    7   15   13      0.59      0.00
    8   15   13     -0.53      0.00
    9   15   13     -0.94      0.00
  -11   16   13     -1.20      0.00
  -10   16   13     -2.16      0.00
   -9   16   13     -2.10      0.00
   -8   16   13     -1.62      0.00
   -7   16   13     -1.75      0.00
   -6   16   13     -1.45      0.00
   -5   16   13     -0.03      0.00
   -4   16   13      1.27      0.00
   -3   16   13      1.45      0.00
   -2   16   13      0.68      0.00
   -1   16   13     -0.55      0.00
    0   16   13     -1.32      0.00
    1   16   13     -1.18      0.00
    2   16   13     -0.95      0.00
    3   16   13     -0.72      0.00
    4   16   13      0.47      0.00
    5   16   13      1.85      0.00
    6   16   13      1.69      0.00
    7   16   13      0.49      0.00
   -8   17   13     -1.06      0.00
   -7   17   13     -1.50      0.00
   -6   17   13     -1.68      0.00
   -5   17   13     -0.29      0.00
   -4   17   13      1.48      0.00
   -3   17   13      1.63      0.00
   -2   17   13      0.39      0.00
   -1   17   13     -0.68      0.00
    0   17   13     -0.75      0.00
    1   17   13      0.00      0.00
    2   17   13      0.32      0.00
    3   17   13     -0.70      0.00
    4   17   13     -1.85      0.00
    5   17   13     -1.57      0.00
   -5   18   13      0.64      0.00
   -4   18   13      1.70      0.00
   -3   18   13      1.52      0.00
   -2   18   13      0.39      0.00
   -1   18   13     -0.24      0.00
    0   18   13     -0.02      0.00
    1   18   13      0.55      0.00
  -20    0   14      1.99      0.00
  -19    0   14      4.42      0.00
  -18    0   14      4.24      0.00
  -17    0   14      1.56      0.00
  -16    0   14      0.79      0.00
  -15    0   14      3.19      0.00
  -14    0   14      4.38      0.00
  -13    0   14      1.47      0.00
  -12    0   14     -3.26      0.00
  -11    0   14     -5.95      0.00
  -10    0   14     -5.50      0.00
   -9    0   14     -5.20      0.00
   -8    0   14     -8.90      0.00
   -7    0   14    -12.81      0.00
   -6    0   14     -6.76      0.00
   -5    0   14     11.01      0.00
   -4    0   14     26.65      0.00
   -3    0   14     25.49      0.00
   -2    0   14      9.59      0.00
   -1    0   14     -6.60      0.00
    0    0   14    -15.55      0.00
    1    0   14    -21.43      0.00
    2    0   14    -25.48      0.00
    3    0   14    -20.74      0.00
    4    0   14     -6.78      0.00
    5    0   14      4.82      0.00
    6    0   14      5.93      0.00
    7    0   14      0.91      0.00
    8    0   14     -2.74      0.00
    9    0   14     -2.71      0.00
   10    0   14     -0.69      0.00
   11    0   14      0.52      0.00
   12    0   14     -0.35      0.00
   13    0   14     -1.76      0.00
   14    0   14     -2.10      0.00
   15    0   14     -1.63      0.00
   16    0   14     -0.83      0.00
  -20    1   14     -2.00      0.00
  -19    1   14     -1.01      0.00
  -18    1   14      0.44      0.00
  -17    1   14      0.65      0.00
  -16    1   14     -0.08      0.00
  -15    1   14      0.23      0.00
  -14    1   14      2.44      0.00
  -13    1   14      4.93      0.00
  -12    1   14      4.38      0.00
  -11    1   14     -1.09      0.00
  -10    1   14     -8.00      0.00
   -9    1   14     -9.75      0.00
   -8    1   14     -5.49      0.00
   -7    1   14     -1.40      0.00
   -6    1   14     -0.84      0.00
   -5    1   14     -0.29      0.00
   -4    1   14      1.90      0.00
   -3    1   14      1.02      0.00
   -2    1   14     -5.23      0.00
   -1    1   14    -10.06      0.00
    0    1   14     -6.27      0.00
    1    1   14      2.58      0.00
    2    1   14      6.74      0.00
    3    1   14      3.54      0.00
    4    1   14     -1.14      0.00
    5    1   14     -2.88      0.00
    6    1   14     -2.83      0.00
    7    1   14     -2.92      0.00
    8    1   14     -3.00      0.00
    9    1   14     -1.97      0.00
   10    1   14      0.62      0.00
   11    1   14      3.46      0.00
   12    1   14      4.18      0.00
   13    1   14      2.40      0.00
   14    1   14      0.09      0.00
   15    1   14     -1.39      0.00
   16    1   14     -2.01      0.00
  -20    2   14      1.08      0.00
  -19    2   14      1.46      0.00
  -18    2   14      1.92      0.00
  -17    2   14      1.17      0.00
  -16    2   14     -0.11      0.00
  -15    2   14     -0.58      0.00
  -14    2   14     -1.09      0.00
  -13    2   14     -2.80      0.00
  -12    2   14     -4.56      0.00
  -11    2   14     -4.51      0.00
  -10    2   14     -2.75      0.00
   -9    2   14     -0.99      0.00
   -8    2   14     -0.34      0.00
   -7    2   14      0.21      0.00
   -6    2   14      2.61      0.00
   -5    2   14      6.47      0.00
   -4    2   14      8.23      0.00
   -3    2   14      5.23      0.00
   -2    2   14      0.04      0.00
   -1    2   14     -1.77      0.00
    0    2   14      0.75      0.00
    1    2   14      1.92      0.00
    2    2   14     -2.02      0.00
    3    2   14     -6.50      0.00
    4    2   14     -5.47      0.00
    5    2   14     -0.21      0.00
    6    2   14      3.77      0.00
    7    2   14      4.29      0.00
    8    2   14      2.98      0.00
    9    2   14      1.89      0.00
   10    2   14      1.73      0.00
   11    2   14      1.64      0.00
   12    2   14      0.75      0.00
   13    2   14     -0.04      0.00
   14    2   14      0.42      0.00
   15    2   14      1.41      0.00
   16    2   14      1.59      0.00
  -20    3   14     -1.68      0.00
  -19    3   14     -2.40      0.00
  -18    3   14     -1.45      0.00
  -17    3   14     -0.08      0.00
  -16    3   14     -0.16      0.00
  -15    3   14     -0.60      0.00
  -14    3   14      0.96      0.00
  -13    3   14      3.33      0.00
  -12    3   14      1.90      0.00
  -11    3   14     -4.78      0.00
  -10    3   14    -11.02      0.00
   -9    3   14    -10.16      0.00
   -8    3   14     -3.71      0.00
   -7    3   14      0.65      0.00
   -6    3   14     -0.02      0.00
   -5    3   14     -0.39      0.00
   -4    3   14      3.66      0.00
   -3    3   14      7.31      0.00
   -2    3   14      4.31      0.00
   -1    3   14     -0.71      0.00
    0    3   14      2.98      0.00
    1    3   14     14.44      0.00
    2    3   14     19.58      0.00
    3    3   14     11.28      0.00
    4    3   14     -0.77      0.00
    5    3   14     -5.10      0.00
    6    3   14     -2.78      0.00
    7    3   14     -1.42      0.00
    8    3   14     -3.13      0.00
    9    3   14     -3.98      0.00
   10    3   14     -1.76      0.00
   11    3   14      0.55      0.00
   12    3   14      0.05      0.00
   13    3   14     -1.45      0.00
   14    3   14     -1.11      0.00
   15    3   14      0.12      0.00
   16    3   14      0.22      0.00
  -20    4   14     -1.55      0.00
  -19    4   14     -1.50      0.00
  -18    4   14     -0.35      0.00
  -17    4   14      0.54      0.00
  -16    4   14      0.41      0.00
  -15    4   14     -0.14      0.00
  -14    4   14     -0.70      0.00
  -13    4   14     -0.93      0.00
  -12    4   14     -0.58      0.00
  -11    4   14     -0.90      0.00
  -10    4   14     -2.42      0.00
   -9    4   14     -2.25      0.00
   -8    4   14      1.35      0.00
   -7    4   14      3.96      0.00
   -6    4   14     -0.10      0.00
   -5    4   14     -9.53      0.00
   -4    4   14    -16.93      0.00
   -3    4   14    -17.46      0.00
   -2    4   14    -13.44      0.00
   -1    4   14     -8.81      0.00
    0    4   14     -2.82      0.00
    1    4   14      5.74      0.00
    2    4   14     11.68      0.00
    3    4   14      8.93      0.00
    4    4   14      0.23      0.00
    5    4   14     -5.68      0.00
    6    4   14     -4.66      0.00
    7    4   14     -0.23      0.00
    8    4   14      2.32      0.00
    9    4   14      1.77      0.00
   10    4   14      0.57      0.00
   11    4   14     -0.02      0.00
   12    4   14     -1.06      0.00
   13    4   14     -2.30      0.00
   14    4   14     -2.06      0.00
   15    4   14     -0.85      0.00
   16    4   14     -0.51      0.00
  -19    5   14     -0.68      0.00
  -18    5   14     -0.33      0.00
  -17    5   14      0.97      0.00
  -16    5   14      1.27      0.00
  -15    5   14      0.88      0.00
  -14    5   14      1.97      0.00
  -13    5   14      3.38      0.00
  -12    5   14      1.95      0.00
  -11    5   14     -1.27      0.00
  -10    5   14     -2.21      0.00
   -9    5   14      0.15      0.00
   -8    5   14      2.99      0.00
   -7    5   14      3.48      0.00
   -6    5   14      1.53      0.00
   -5    5   14      0.22      0.00
   -4    5   14      2.94      0.00
   -3    5   14      8.43      0.00
   -2    5   14     10.91      0.00
   -1    5   14      7.54      0.00
    0    5   14      2.92      0.00
    1    5   14      2.33      0.00
    2    5   14      3.52      0.00
    3    5   14      0.97      0.00
    4    5   14     -4.60      0.00
    5    5   14     -7.52      0.00
    6    5   14     -6.12      0.00
    7    5   14     -3.66      0.00
    8    5   14     -2.18      0.00
    9    5   14     -0.72      0.00
   10    5   14      1.42      0.00
   11    5   14      3.09      0.00
   12    5   14      2.79      0.00
   13    5   14      1.21      0.00
   14    5   14      0.79      0.00
   15    5   14      1.82      0.00
   16    5   14      1.92      0.00
  -19    6   14      1.96      0.00
  -18    6   14      1.71      0.00
  -17    6   14     -0.56      0.00
  -16    6   14     -2.23      0.00
  -15    6   14     -1.75      0.00
  -14    6   14     -0.67      0.00
  -13    6   14      0.33      0.00
  -12    6   14      1.89      0.00
  -11    6   14      2.44      0.00
  -10    6   14      0.52      0.00
   -9    6   14     -1.23      0.00
   -8    6   14      0.14      0.00
   -7    6   14      2.21      0.00
   -6    6   14      0.10      0.00
   -5    6   14     -5.88      0.00
   -4    6   14     -9.13      0.00
   -3    6   14     -4.97      0.00
   -2    6   14      2.13      0.00
   -1    6   14      3.68      0.00
    0    6   14     -0.67      0.00
    1    6   14     -2.68      0.00
    2    6   14      1.61      0.00
    3    6   14      5.80      0.00
    4    6   14      3.10      0.00
    5    6   14     -3.51      0.00
    6    6   14     -6.01      0.00
    7    6   14     -2.77      0.00
    8    6   14      0.62      0.00
    9    6   14      0.25      0.00
   10    6   14     -1.74      0.00
   11    6   14     -1.88      0.00
   12    6   14     -0.08      0.00
   13    6   14      1.28      0.00
   14    6   14      0.79      0.00
   15    6   14     -0.42      0.00
  -19    7   14     -1.62      0.00
  -18    7   14     -0.96      0.00
  -17    7   14      1.90      0.00
  -16    7   14      3.56      0.00
  -15    7   14      2.39      0.00
  -14    7   14      0.17      0.00
  -13    7   14     -1.42      0.00
  -12    7   14     -1.67      0.00
  -11    7   14     -0.34      0.00
  -10    7   14      0.78      0.00
   -9    7   14     -0.57      0.00
   -8    7   14     -3.21      0.00
   -7    7   14     -4.10      0.00
   -6    7   14     -3.38      0.00
   -5    7   14     -3.34      0.00
   -4    7   14     -3.21      0.00
   -3    7   14      0.53      0.00
   -2    7   14      7.11      0.00
   -1    7   14      9.46      0.00
    0    7   14      3.38      0.00
    1    7   14     -5.01      0.00
    2    7   14     -6.92      0.00
    3    7   14     -2.43      0.00
    4    7   14      1.76      0.00
    5    7   14      2.68      0.00
    6    7   14      2.67      0.00
    7    7   14      3.08      0.00
    8    7   14      2.48      0.00
    9    7   14      0.83      0.00
   10    7   14      0.52      0.00
   11    7   14      1.92      0.00
   12    7   14      1.92      0.00
   13    7   14     -0.52      0.00
   14    7   14     -2.01      0.00
   15    7   14     -0.58      0.00
  -18    8   14     -1.76      0.00
  -17    8   14     -1.32      0.00
  -16    8   14      0.33      0.00
  -15    8   14      1.07      0.00
  -14    8   14      0.08      0.00
  -13    8   14     -0.18      0.00
  -12    8   14      1.67      0.00
  -11    8   14      3.06      0.00
  -10    8   14      1.75      0.00
   -9    8   14     -0.69      0.00
   -8    8   14     -1.99      0.00
   -7    8   14     -2.46      0.00
   -6    8   14     -3.60      0.00
   -5    8   14     -5.31      0.00
   -4    8   14     -5.72      0.00
   -3    8   14     -3.25      0.00
   -2    8   14      1.03      0.00
   -1    8   14      3.58      0.00
    0    8   14      2.12      0.00
    1    8   14     -0.67      0.00
    2    8   14     -0.08      0.00
    3    8   14      3.50      0.00
    4    8   14      5.02      0.00
    5    8   14      2.85      0.00
    6    8   14      0.47      0.00
    7    8   14     -0.15      0.00
    8    8   14     -0.40      0.00
    9    8   14     -0.85      0.00
   10    8   14     -0.74      0.00
   11    8   14     -0.09      0.00
   12    8   14      0.75      0.00
   13    8   14      1.36      0.00
   14    8   14      0.95      0.00
  -18    9   14      1.00      0.00
  -17    9   14      2.45      0.00
  -16    9   14      2.36      0.00
  -15    9   14      1.64      0.00
  -14    9   14      1.09      0.00
  -13    9   14     -0.09      0.00
  -12    9   14     -1.00      0.00
  -11    9   14      0.41      0.00
  -10    9   14      2.82      0.00
   -9    9   14      3.03      0.00
   -8    9   14      1.80      0.00
   -7    9   14      2.82      0.00
   -6    9   14      5.67      0.00
   -5    9   14      5.68      0.00
   -4    9   14      1.78      0.00
   -3    9   14     -0.98      0.00
   -2    9   14      0.93      0.00
   -1    9   14      4.25      0.00
    0    9   14      4.21      0.00
    1    9   14      1.29      0.00
    2    9   14     -0.30      0.00
    3    9   14      0.98      0.00
    4    9   14      2.39      0.00
    5    9   14      1.82      0.00
    6    9   14      0.51      0.00
    7    9   14     -0.19      0.00
    8    9   14     -0.78      0.00
    9    9   14     -0.95      0.00
   10    9   14      0.26      0.00
   11    9   14      1.23      0.00
   12    9   14      0.22      0.00
   13    9   14     -0.85      0.00
   14    9   14     -0.16      0.00
  -17   10   14      2.05      0.00
  -16   10   14      2.93      0.00
  -15   10   14      2.05      0.00
  -14   10   14      0.81      0.00
  -13   10   14      0.71      0.00
  -12   10   14      0.87      0.00
  -11   10   14      0.04      0.00
  -10   10   14     -0.74      0.00
   -9   10   14     -0.51      0.00
   -8   10   14     -0.91      0.00
   -7   10   14     -2.51      0.00
   -6   10   14     -2.73      0.00
   -5   10   14     -0.79      0.00
   -4   10   14      0.41      0.00
   -3   10   14     -0.14      0.00
   -2   10   14      0.21      0.00
   -1   10   14      2.23      0.00
    0   10   14      3.01      0.00
    1   10   14      0.83      0.00
    2   10   14     -2.08      0.00
    3   10   14     -2.81      0.00
    4   10   14     -1.73      0.00
    5   10   14     -1.38      0.00
    6   10   14     -2.46      0.00
    7   10   14     -3.46      0.00
    8   10   14     -3.87      0.00
    9   10   14     -4.27      0.00
   10   10   14     -4.10      0.00
   11   10   14     -2.73      0.00
   12   10   14     -1.16      0.00
   13   10   14     -0.31      0.00
  -16   11   14     -0.57      0.00
  -15   11   14     -0.14      0.00
  -14   11   14      0.43      0.00
  -13   11   14      0.00      0.00
  -12   11   14     -0.69      0.00
  -11   11   14     -0.23      0.00
  -10   11   14      0.64      0.00
   -9   11   14      0.89      0.00
   -8   11   14      1.06      0.00
   -7   11   14      1.59      0.00
   -6   11   14      1.82      0.00
   -5   11   14      0.82      0.00
   -4   11   14     -1.81      0.00
   -3   11   14     -4.57      0.00
   -2   11   14     -4.57      0.00
   -1   11   14     -1.79      0.00
    0   11   14      0.50      0.00
    1   11   14      0.92      0.00
    2   11   14      1.42      0.00
    3   11   14      3.05      0.00
    4   11   14      4.26      0.00
    5   11   14      3.71      0.00
    6   11   14      1.86      0.00
    7   11   14      0.17      0.00
    8   11   14     -0.22      0.00
    9   11   14      0.57      0.00
   10   11   14      1.09      0.00
   11   11   14      0.08      0.00
   12   11   14     -1.80      0.00
   13   11   14     -2.44      0.00
  -15   12   14      2.06      0.00
  -14   12   14      2.87      0.00
  -13   12   14      3.69      0.00
  -12   12   14      2.96      0.00
  -11   12   14      0.88      0.00
  -10   12   14     -0.35      0.00
   -9   12   14     -0.30      0.00
   -8   12   14     -0.68      0.00
   -7   12   14     -1.70      0.00
   -6   12   14     -1.50      0.00
   -5   12   14      0.12      0.00
   -4   12   14      0.70      0.00
   -3   12   14     -1.00      0.00
   -2   12   14     -2.59      0.00
   -1   12   14     -1.38      0.00
    0   12   14      1.66      0.00
    1   12   14      3.35      0.00
    2   12   14      2.78      0.00
    3   12   14      1.76      0.00
    4   12   14      1.26      0.00
    5   12   14      0.38      0.00
    6   12   14     -0.84      0.00
    7   12   14     -1.04      0.00
    8   12   14     -0.33      0.00
    9   12   14      0.17      0.00
   10   12   14      0.72      0.00
   11   12   14      1.75      0.00
   12   12   14      2.05      0.00
  -15   13   14     -0.22      0.00
  -14   13   14     -0.52      0.00
  -13   13   14     -0.21      0.00
  -12   13   14      0.90      0.00
  -11   13   14      1.23      0.00
  -10   13   14     -0.13      0.00
   -9   13   14     -1.36      0.00
   -8   13   14     -0.85      0.00
   -7   13   14     -0.06      0.00
   -6   13   14     -0.36      0.00
   -5   13   14     -0.76      0.00
   -4   13   14     -0.89      0.00
   -3   13   14     -1.66      0.00
   -2   13   14     -2.50      0.00
   -1   13   14     -2.05      0.00
    0   13   14     -0.80      0.00
    1   13   14      0.02      0.00
    2   13   14      0.26      0.00
    3   13   14      0.49      0.00
    4   13   14      1.30      0.00
    5   13   14      2.29      0.00
    6   13   14      1.97      0.00
    7   13   14      0.38      0.00
    8   13   14     -0.38      0.00
    9   13   14      0.22      0.00
   10   13   14      0.70      0.00
   11   13   14      0.72      0.00
  -13   14   14      0.48      0.00
  -12   14   14      0.61      0.00
  -11   14   14      0.68      0.00
  -10   14   14      1.71      0.00
   -9   14   14      2.40      0.00
   -8   14   14      1.54      0.00
   -7   14   14      0.34      0.00
   -6   14   14      0.02      0.00
   -5   14   14      0.02      0.00
   -4   14   14     -0.48      0.00
   -3   14   14     -1.42      0.00
   -2   14   14     -1.91      0.00
   -1   14   14     -0.99      0.00
    0   14   14      0.46      0.00
    1   14   14      0.34      0.00
    2   14   14     -1.31      0.00
    3   14   14     -2.37      0.00
    4   14   14     -1.80      0.00
    5   14   14     -0.24      0.00
    6   14   14      1.19      0.00
    7   14   14      1.39      0.00
    8   14   14      0.51      0.00
    9   14   14      0.12      0.00
   10   14   14      0.59      0.00
  -12   15   14      0.52      0.00
  -11   15   14      1.67      0.00
  -10   15   14      1.59      0.00
   -9   15   14      1.68      0.00
   -8   15   14      2.04      0.00
   -7   15   14      1.56      0.00
   -6   15   14      0.39      0.00
   -5   15   14     -0.36      0.00
   -4   15   14     -0.33      0.00
   -3   15   14     -0.11      0.00
   -2   15   14     -0.56      0.00
   -1   15   14     -1.48      0.00
    0   15   14     -1.59      0.00
    1   15   14     -0.81      0.00
    2   15   14     -0.74      0.00
    3   15   14     -1.54      0.00
    4   15   14     -1.50      0.00
    5   15   14     -0.42      0.00
    6   15   14      0.10      0.00
    7   15   14     -0.43      0.00
    8   15   14     -1.09      0.00
  -10   16   14     -1.36      0.00
   -9   16   14     -1.40      0.00
   -8   16   14     -1.65      0.00
   -7   16   14     -2.03      0.00
   -6   16   14     -1.53      0.00
   -5   16   14     -0.22      0.00
   -4   16   14      0.27      0.00
   -3   16   14     -0.85      0.00
   -2   16   14     -2.54      0.00
   -1   16   14     -3.39      0.00
    0   16   14     -2.82      0.00
    1   16   14     -1.34      0.00
    2   16   14     -0.44      0.00
    3   16   14     -1.11      0.00
    4   16   14     -2.42      0.00
    5   16   14     -2.74      0.00
    6   16   14     -1.90      0.00
   -8   17   14     -0.44      0.00
   -7   17   14     -1.04      0.00
   -6   17   14     -1.01      0.00
   -5   17   14      0.48      0.00
   -4   17   14      1.78      0.00
   -3   17   14      1.41      0.00
   -2   17   14      0.19      0.00
   -1   17   14     -0.57      0.00
    0   17   14     -0.45      0.00
    1   17   14      0.14      0.00
    2   17   14      0.22      0.00
    3   17   14     -0.26      0.00
    4   17   14      0.09      0.00
   -4   18   14      0.13      0.00
   -3   18   14      0.71      0.00
   -1   18   14     -0.07      0.00
    0   18   14     -0.76      0.00
  -20    1   15      0.91      0.00
  -19    1   15      3.19      0.00
  -18    1   15      3.51      0.00
  -17    1   15      0.80      0.00
  -16    1   15     -1.53      0.00
  -15    1   15     -1.12      0.00
  -14    1   15     -0.50      0.00
  -13    1   15     -2.07      0.00
  -12    1   15     -3.68      0.00
  -11    1   15     -1.84      0.00
  -10    1   15      3.19      0.00
   -9    1   15      6.67      0.00
   -8    1   15      4.26      0.00
   -7    1   15     -1.52      0.00
   -6    1   15     -2.60      0.00
   -5    1   15      4.12      0.00
   -4    1   15     11.44      0.00
   -3    1   15     10.70      0.00
   -2    1   15      2.87      0.00
   -1    1   15     -4.15      0.00
    0    1   15     -7.46      0.00
    1    1   15    -11.47      0.00
    2    1   15    -16.82      0.00
    3    1   15    -16.27      0.00
    4    1   15     -6.39      0.00
    5    1   15      5.22      0.00
    6    1   15      9.87      0.00
    7    1   15      7.67      0.00
    8    1   15      3.89      0.00
    9    1   15      1.91      0.00
   10    1   15      1.87      0.00
   11    1   15      2.16      0.00
   12    1   15      1.46      0.00
   13    1   15      0.14      0.00
   14    1   15     -0.77      0.00
   15    1   15     -0.93      0.00
   16    1   15     -0.48      0.00
  -20    2   15     -1.31      0.00
  -19    2   15     -0.80      0.00
  -18    2   15      0.61      0.00
  -17    2   15      0.83      0.00
  -16    2   15     -0.68      0.00
  -15    2   15     -1.84      0.00
  -14    2   15     -0.63      0.00
  -13    2   15      2.22      0.00
  -12    2   15      2.83      0.00
  -11    2   15     -2.10      0.00
  -10    2   15     -9.64      0.00
   -9    2   15    -12.29      0.00
   -8    2   15     -7.73      0.00
   -7    2   15     -1.46      0.00
   -6    2   15      3.08      0.00
   -5    2   15      9.46      0.00
   -4    2   15     18.66      0.00
   -3    2   15     22.23      0.00
   -2    2   15     13.26      0.00
   -1    2   15     -0.83      0.00
    0    2   15     -6.24      0.00
    1    2   15     -1.22      0.00
    2    2   15      3.54      0.00
    3    2   15      1.89      0.00
    4    2   15     -1.40      0.00
    5    2   15     -1.18      0.00
    6    2   15      0.89      0.00
    7    2   15      0.87      0.00
    8    2   15     -1.66      0.00
    9    2   15     -3.68      0.00
   10    2   15     -2.58      0.00
   11    2   15      0.42      0.00
   12    2   15      2.10      0.00
   13    2   15      1.66      0.00
   14    2   15      0.68      0.00
   15    2   15     -0.21      0.00
   16    2   15     -1.07      0.00
  -20    3   15      0.04      0.00
  -19    3   15     -0.14      0.00
  -18    3   15      0.71      0.00
  -17    3   15      1.53      0.00
  -16    3   15      1.39      0.00
  -15    3   15      0.61      0.00
  -14    3   15     -0.41      0.00
  -13    3   15     -0.96      0.00
  -12    3   15     -0.13      0.00
  -11    3   15      1.20      0.00
  -10    3   15      1.59      0.00
   -9    3   15      2.28      0.00
   -8    3   15      5.09      0.00
   -7    3   15      8.19      0.00
   -6    3   15      7.85      0.00
   -5    3   15      3.39      0.00
   -4    3   15     -2.49      0.00
   -3    3   15     -7.34      0.00
   -2    3   15    -10.13      0.00
   -1    3   15     -9.22      0.00
    0    3   15     -3.11      0.00
    1    3   15      4.98      0.00
    2    3   15      8.13      0.00
    3    3   15      4.19      0.00
    4    3   15     -1.48      0.00
    5    3   15     -3.46      0.00
    6    3   15     -1.73      0.00
    7    3   15      0.75      0.00
    8    3   15      1.69      0.00
    9    3   15      1.12      0.00
   10    3   15      0.81      0.00
   11    3   15      1.11      0.00
   12    3   15      0.35      0.00
   13    3   15     -1.37      0.00
   14    3   15     -1.82      0.00
   15    3   15     -0.70      0.00
   16    3   15      0.09      0.00
  -20    4   15     -1.03      0.00
  -19    4   15     -1.58      0.00
  -18    4   15     -0.78      0.00
  -17    4   15      0.96      0.00
  -16    4   15      1.25      0.00
  -15    4   15      0.02      0.00
  -14    4   15     -0.27      0.00
  -13    4   15      0.22      0.00
  -12    4   15     -1.72      0.00
  -11    4   15     -6.51      0.00
  -10    4   15     -9.83      0.00
   -9    4   15     -8.02      0.00
   -8    4   15     -2.45      0.00
   -7    4   15      2.52      0.00
   -6    4   15      4.37      0.00
   -5    4   15      4.73      0.00
   -4    4   15      6.23      0.00
   -3    4   15      7.33      0.00
   -2    4   15      3.54      0.00
   -1    4   15     -4.14      0.00
    0    4   15     -7.59      0.00
    1    4   15     -3.31      0.00
    2    4   15      0.81      0.00
    3    4   15     -2.73      0.00
    4    4   15     -9.28      0.00
    5    4   15     -9.88      0.00
    6    4   15     -4.75      0.00
    7    4   15     -0.82      0.00
    8    4   15     -0.67      0.00
    9    4   15     -0.91      0.00
   10    4   15      0.82      0.00
   11    4   15      2.56      0.00
   12    4   15      2.02      0.00
   13    4   15      0.47      0.00
   14    4   15      0.58      0.00
   15    4   15      1.97      0.00
   16    4   15      2.27      0.00
  -19    5   15      0.75      0.00
  -18    5   15      2.21      0.00
  -17    5   15      2.24      0.00
  -16    5   15      1.38      0.00
  -15    5   15      1.30      0.00
  -14    5   15      1.84      0.00
  -13    5   15      2.31      0.00
  -12    5   15      2.57      0.00
  -11    5   15      1.07      0.00
  -10    5   15     -2.86      0.00
   -9    5   15     -5.56      0.00
   -8    5   15     -3.47      0.00
   -7    5   15      0.61      0.00
   -6    5   15      0.81      0.00
   -5    5   15     -3.75      0.00
   -4    5   15     -7.48      0.00
   -3    5   15     -5.62      0.00
   -2    5   15     -0.83      0.00
   -1    5   15      1.30      0.00
    0    5   15      1.92      0.00
    1    5   15      6.61      0.00
    2    5   15     14.00      0.00
    3    5   15     15.80      0.00
    4    5   15      9.07      0.00
    5    5   15      0.50      0.00
    6    5   15     -2.59      0.00
    7    5   15     -0.22      0.00
    8    5   15      2.47      0.00
    9    5   15      2.40      0.00
   10    5   15      0.95      0.00
   11    5   15     -0.02      0.00
   12    5   15     -0.47      0.00
   13    5   15     -0.61      0.00
   14    5   15     -0.37      0.00
   15    5   15     -0.29      0.00
  -19    6   15     -1.36      0.00
  -18    6   15     -1.61      0.00
  -17    6   15     -0.18      0.00
  -16    6   15      0.65      0.00
  -15    6   15     -0.11      0.00
  -14    6   15     -0.74      0.00
  -13    6   15     -0.91      0.00
  -12    6   15     -1.85      0.00
  -11    6   15     -2.92      0.00
  -10    6   15     -2.52      0.00
   -9    6   15     -0.85      0.00
   -8    6   15      0.79      0.00
   -7    6   15      1.34      0.00
   -6    6   15      0.10      0.00
   -5    6   15     -2.42      0.00
   -4    6   15     -3.66      0.00
   -3    6   15     -1.22      0.00
   -2    6   15      3.22      0.00
   -1    6   15      4.49      0.00
    0    6   15      0.88      0.00
    1    6   15     -2.61      0.00
    2    6   15     -1.65      0.00
    3    6   15      1.36      0.00
    4    6   15      2.42      0.00
    5    6   15      1.86      0.00
    6    6   15      1.77      0.00
    7    6   15      2.00      0.00
    8    6   15      1.11      0.00
    9    6   15     -0.77      0.00
   10    6   15     -1.47      0.00
   11    6   15     -0.15      0.00
   12    6   15      0.47      0.00
   13    6   15     -1.47      0.00
   14    6   15     -3.09      0.00
   15    6   15     -1.86      0.00
  -19    7   15     -0.61      0.00
  -18    7   15     -1.42      0.00
  -17    7   15     -3.05      0.00
  -16    7   15     -3.23      0.00
  -15    7   15     -1.57      0.00
  -14    7   15      0.01      0.00
  -13    7   15      1.19      0.00
  -12    7   15      2.67      0.00
  -11    7   15      2.89      0.00
  -10    7   15      0.25      0.00
   -9    7   15     -2.79      0.00
   -8    7   15     -2.66      0.00
   -7    7   15     -0.31      0.00
   -6    7   15      0.36      0.00
   -5    7   15     -1.32      0.00
   -4    7   15     -1.63      0.00
   -3    7   15      2.37      0.00
   -2    7   15      8.09      0.00
   -1    7   15      9.47      0.00
    0    7   15      4.43      0.00
    1    7   15     -1.50      0.00
    2    7   15     -2.24      0.00
    3    7   15      0.23      0.00
    4    7   15     -0.36      0.00
    5    7   15     -4.24      0.00
    6    7   15     -5.94      0.00
    7    7   15     -3.62      0.00
    8    7   15     -0.91      0.00
    9    7   15     -0.57      0.00
   10    7   15     -1.81      0.00
   11    7   15     -2.56      0.00
   12    7   15     -1.85      0.00
   13    7   15     -0.74      0.00
   14    7   15     -0.82      0.00
   15    7   15     -1.50      0.00
  -18    8   15     -0.19      0.00
  -17    8   15      1.88      0.00
  -16    8   15      2.70      0.00
  -15    8   15      1.57      0.00
  -14    8   15     -0.21      0.00
  -13    8   15     -1.90      0.00
  -12    8   15     -2.36      0.00
  -11    8   15     -0.25      0.00
  -10    8   15      2.46      0.00
   -9    8   15      2.08      0.00
   -8    8   15     -0.46      0.00
   -7    8   15     -0.73      0.00
   -6    8   15      1.35      0.00
   -5    8   15      1.29      0.00
   -4    8   15     -1.72      0.00
   -3    8   15     -2.43      0.00
   -2    8   15      2.06      0.00
   -1    8   15      6.64      0.00
    0    8   15      5.00      0.00
    1    8   15     -1.15      0.00
    2    8   15     -4.62      0.00
    3    8   15     -3.12      0.00
    4    8   15     -1.15      0.00
    5    8   15     -1.68      0.00
    6    8   15     -2.20      0.00
    7    8   15     -0.79      0.00
    8    8   15      0.58      0.00
    9    8   15      0.83      0.00
   10    8   15      1.94      0.00
   11    8   15      4.11      0.00
   12    8   15      4.58      0.00
   13    8   15      2.62      0.00
   14    8   15      0.57      0.00
  -18    9   15      0.53      0.00
  -17    9   15      2.75      0.00
  -16    9   15      5.80      0.00
  -15    9   15      6.40      0.00
  -14    9   15      4.22      0.00
  -13    9   15      2.60      0.00
  -12    9   15      3.06      0.00
  -11    9   15      3.42      0.00
  -10    9   15      2.31      0.00
   -9    9   15      0.71      0.00
   -8    9   15     -0.90      0.00
   -7    9   15     -2.56      0.00
   -6    9   15     -3.21      0.00
   -5    9   15     -2.28      0.00
   -4    9   15     -0.75      0.00
   -3    9   15      1.22      0.00
   -2    9   15      4.39      0.00
   -1    9   15      7.25      0.00
    0    9   15      6.52      0.00
    1    9   15      2.16      0.00
    2    9   15     -1.64      0.00
    3    9   15     -1.96      0.00
    4    9   15     -0.39      0.00
    5    9   15      0.59      0.00
    6    9   15      0.84      0.00
    7    9   15      0.71      0.00
    8    9   15     -0.25      0.00
    9    9   15     -1.39      0.00
   10    9   15     -1.17      0.00
   11    9   15      0.35      0.00
   12    9   15      1.73      0.00
   13    9   15      2.24      0.00
   14    9   15      2.00      0.00
  -17   10   15      1.13      0.00
  -16   10   15      0.82      0.00
  -15   10   15      0.60      0.00
  -14   10   15      0.67      0.00
  -13   10   15      0.12      0.00
  -12   10   15     -0.41      0.00
  -11   10   15      0.40      0.00
  -10   10   15      1.37      0.00
   -9   10   15      0.59      0.00
   -8   10   15     -0.99      0.00
   -7   10   15     -0.94      0.00
   -6   10   15      0.62      0.00
   -5   10   15      0.99      0.00
   -4   10   15     -1.26      0.00
   -3   10   15     -3.87      0.00
   -2   10   15     -3.63      0.00
   -1   10   15     -0.79      0.00
    0   10   15      1.29      0.00
    1   10   15      1.16      0.00
    2   10   15      1.09      0.00
    3   10   15      2.79      0.00
    4   10   15      4.37      0.00
    5   10   15      3.73      0.00
    6   10   15      1.70      0.00
    7   10   15     -0.16      0.00
    8   10   15     -1.50      0.00
    9   10   15     -1.83      0.00
   10   10   15     -0.97      0.00
   11   10   15     -0.74      0.00
   12   10   15     -2.15      0.00
   13   10   15     -2.86      0.00
  -16   11   15      1.65      0.00
  -15   11   15      1.36      0.00
  -14   11   15      0.72      0.00
  -13   11   15      0.41      0.00
  -12   11   15     -0.44      0.00
  -11   11   15     -1.89      0.00
  -10   11   15     -2.11      0.00
   -9   11   15     -0.83      0.00
   -8   11   15     -0.59      0.00
   -7   11   15     -1.89      0.00
   -6   11   15     -1.59      0.00
   -5   11   15      1.12      0.00
   -4   11   15      2.86      0.00
   -3   11   15      1.89      0.00
   -2   11   15      0.70      0.00
   -1   11   15      1.47      0.00
    0   11   15      3.22      0.00
    1   11   15      3.74      0.00
    2   11   15      2.64      0.00
    3   11   15      1.59      0.00
    4   11   15      1.44      0.00
    5   11   15      0.95      0.00
    6   11   15     -0.17      0.00
    7   11   15     -0.37      0.00
    8   11   15      0.15      0.00
    9   11   15     -0.34      0.00
   10   11   15     -1.22      0.00
   11   11   15     -0.98      0.00
   12   11   15     -0.30      0.00
  -15   12   15     -0.89      0.00
  -14   12   15     -0.68      0.00
  -13   12   15     -0.78      0.00
  -12   12   15     -0.54      0.00
  -11   12   15     -0.08      0.00
  -10   12   15     -0.48      0.00
   -9   12   15     -1.26      0.00
   -8   12   15     -1.21      0.00
   -7   12   15     -1.07      0.00
   -6   12   15     -1.47      0.00
   -5   12   15     -1.55      0.00
   -4   12   15     -1.56      0.00
   -3   12   15     -2.19      0.00
   -2   12   15     -1.77      0.00
   -1   12   15      0.72      0.00
    0   12   15      2.95      0.00
    1   12   15      3.28      0.00
    2   12   15      3.02      0.00
    3   12   15      3.29      0.00
    4   12   15      3.62      0.00
    5   12   15      3.07      0.00
    6   12   15      1.16      0.00
    7   12   15     -1.10      0.00
    8   12   15     -1.82      0.00
    9   12   15     -1.02      0.00
   10   12   15     -0.30      0.00
   11   12   15     -0.26      0.00
  -14   13   15      2.21      0.00
  -13   13   15      2.86      0.00
  -12   13   15      2.29      0.00
  -11   13   15      1.27      0.00
  -10   13   15      1.42      0.00
   -9   13   15      1.96      0.00
   -8   13   15      1.19      0.00
   -7   13   15     -0.41      0.00
   -6   13   15     -1.04      0.00
   -5   13   15     -0.43      0.00
   -4   13   15     -0.25      0.00
   -3   13   15     -1.54      0.00
   -2   13   15     -2.71      0.00
   -1   13   15     -1.56      0.00
    0   13   15      0.94      0.00
    1   13   15      1.96      0.00
    2   13   15      1.30      0.00
    3   13   15      1.06      0.00
    4   13   15      1.69      0.00
    5   13   15      1.82      0.00
    6   13   15      1.01      0.00
    7   13   15      0.05      0.00
    8   13   15     -0.33      0.00
    9   13   15      0.03      0.00
   10   13   15      0.65      0.00
  -13   14   15      0.16      0.00
  -12   14   15      1.38      0.00
  -11   14   15      1.98      0.00
  -10   14   15      0.93      0.00
   -9   14   15     -0.15      0.00
   -8   14   15     -0.10      0.00
   -7   14   15     -0.43      0.00
   -6   14   15     -2.13      0.00
   -5   14   15     -3.40      0.00
   -4   14   15     -2.82      0.00
   -3   14   15     -1.53      0.00
   -2   14   15     -0.94      0.00
   -1   14   15     -0.84      0.00
    0   14   15     -0.48      0.00
    1   14   15      0.06      0.00
    2   14   15      0.18      0.00
    3   14   15     -0.05      0.00
    4   14   15      0.18      0.00
    5   14   15      0.86      0.00
    6   14   15      0.75      0.00
    7   14   15     -0.40      0.00
    8   14   15     -1.33      0.00
    9   14   15     -1.38      0.00
  -12   15   15      1.54      0.00
  -11   15   15      1.22      0.00
  -10   15   15      1.55      0.00
   -9   15   15      2.30      0.00
   -8   15   15      2.28      0.00
   -7   15   15      1.52      0.00
   -6   15   15      0.86      0.00
   -5   15   15      0.45      0.00
   -4   15   15     -0.13      0.00
   -3   15   15     -1.13      0.00
   -2   15   15     -2.02      0.00
   -1   15   15     -1.87      0.00
    0   15   15     -0.81      0.00
    1   15   15     -0.18      0.00
    2   15   15     -0.61      0.00
    3   15   15     -1.29      0.00
    4   15   15     -1.42      0.00
    5   15   15     -0.77      0.00
    6   15   15      0.27      0.00
    7   15   15      0.75      0.00
    8   15   15      0.34      0.00
  -10   16   15      0.01      0.00
   -9   16   15      0.43      0.00
   -8   16   15      0.83      0.00
   -7   16   15      0.39      0.00
   -6   16   15     -0.18      0.00
   -5   16   15     -0.24      0.00
   -4   16   15     -0.28      0.00
   -3   16   15     -0.61      0.00
   -2   16   15     -0.97      0.00
   -1   16   15     -1.13      0.00
    0   16   15     -0.69      0.00
    1   16   15      0.12      0.00
    2   16   15      0.09      0.00
    3   16   15     -0.82      0.00
    4   16   15     -0.82      0.00
    5   16   15      0.53      0.00
    6   16   15      1.33      0.00
   -7   17   15     -1.02      0.00
   -6   17   15     -0.86      0.00
   -5   17   15      0.00      0.00
   -4   17   15      0.75      0.00
   -3   17   15      0.65      0.00
   -2   17   15      0.11      0.00
   -1   17   15     -0.50      0.00
    0   17   15     -1.21      0.00
    1   17   15     -1.60      0.00
    2   17   15     -1.47      0.00
    3   17   15     -1.32      0.00
  -20    0   16      0.97      0.00
  -19    0   16      3.74      0.00
  -18    0   16      4.50      0.00
  -16    0   16     -1.26      0.00
  -15    0   16     -0.94      0.00
  -14    0   16      0.03      0.00
  -13    0   16     -1.48      0.00
  -12    0   16     -2.90      0.00
  -11    0   16      0.98      0.00
  -10    0   16     10.10      0.00
   -9    0   16     16.72      0.00
   -8    0   16     12.85      0.00
   -7    0   16      0.61      0.00
   -6    0   16     -8.89      0.00
   -5    0   16     -9.04      0.00
   -4    0   16     -5.04      0.00
   -3    0   16     -4.54      0.00
   -2    0   16     -7.06      0.00
   -1    0   16     -7.66      0.00
    0    0   16     -6.90      0.00
    1    0   16     -9.97      0.00
    2    0   16    -16.26      0.00
    3    0   16    -17.37      0.00
    4    0   16     -8.81      0.00
    5    0   16      2.73      0.00
    6    0   16      7.94      0.00
    7    0   16      5.60      0.00
    8    0   16      1.13      0.00
    9    0   16     -1.05      0.00
   10    0   16     -0.84      0.00
   11    0   16     -0.43      0.00
   12    0   16     -0.99      0.00
   13    0   16     -1.82      0.00
   14    0   16     -2.10      0.00
   15    0   16     -1.76      0.00
   16    0   16     -0.78      0.00
  -20    1   16     -0.93      0.00
  -19    1   16      0.23      0.00
  -18    1   16      1.82      0.00
  -17    1   16      1.98      0.00
  -16    1   16      0.61      0.00
  -15    1   16     -0.48      0.00
  -14    1   16      0.06      0.00
  -13    1   16      1.84      0.00
  -12    1   16      2.84      0.00
  -11    1   16      0.90      0.00
  -10    1   16     -3.15      0.00
   -9    1   16     -5.56      0.00
   -8    1   16     -4.82      0.00
   -7    1   16     -3.63      0.00
   -6    1   16     -2.87      0.00
   -5    1   16      1.10      0.00
   -4    1   16      9.02      0.00
   -3    1   16     13.61      0.00
   -2    1   16      7.99      0.00
   -1    1   16     -4.23      0.00
    0    1   16    -13.43      0.00
    1    1   16    -15.70      0.00
    2    1   16    -14.24      0.00
    3    1   16    -11.81      0.00
    4    1   16     -8.16      0.00
    5    1   16     -3.69      0.00
    6    1   16     -0.53      0.00
    7    1   16      0.00      0.00
    8    1   16     -1.32      0.00
    9    1   16     -2.45      0.00
   10    1   16     -1.67      0.00
   11    1   16      0.62      0.00
   12    1   16      2.42      0.00
   13    1   16      2.60      0.00
   14    1   16      1.60      0.00
   15    1   16      0.12      0.00
   16    1   16     -1.13      0.00
  -20    2   16     -0.03      0.00
  -19    2   16      1.06      0.00
  -18    2   16      1.84      0.00
  -17    2   16      0.97      0.00
  -16    2   16     -0.31      0.00
  -15    2   16     -0.39      0.00
  -14    2   16     -0.18      0.00
  -13    2   16     -0.72      0.00
  -12    2   16     -0.69      0.00
  -11    2   16      1.11      0.00
  -10    2   16      3.62      0.00
   -9    2   16      5.02      0.00
   -8    2   16      4.16      0.00
   -7    2   16      1.15      0.00
   -6    2   16     -1.95      0.00
   -5    2   16     -2.94      0.00
   -4    2   16     -2.72      0.00
   -3    2   16     -4.16      0.00
   -2    2   16     -6.91      0.00
   -1    2   16     -6.77      0.00
    0    2   16     -2.23      0.00
    1    2   16      1.80      0.00
    2    2   16      0.82      0.00
    3    2   16     -2.09      0.00
    4    2   16     -1.50      0.00
    5    2   16      1.94      0.00
    6    2   16      3.91      0.00
    7    2   16      3.30      0.00
    8    2   16      1.75      0.00
    9    2   16      0.61      0.00
   10    2   16      0.80      0.00
   11    2   16      2.19      0.00
   12    2   16      2.79      0.00
   13    2   16      1.37      0.00
   14    2   16     -0.61      0.00
   15    2   16     -1.37      0.00
   16    2   16     -0.97      0.00
  -20    3   16     -0.58      0.00
  -19    3   16     -0.78      0.00
  -18    3   16      0.06      0.00
  -17    3   16      0.61      0.00
  -16    3   16     -0.66      0.00
  -15    3   16     -2.90      0.00
  -14    3   16     -3.78      0.00
  -13    3   16     -2.74      0.00
  -12    3   16     -2.03      0.00
  -11    3   16     -3.71      0.00
  -10    3   16     -6.29      0.00
   -9    3   16     -6.12      0.00
   -8    3   16     -2.20      0.00
   -7    3   16      2.52      0.00
   -6    3   16      5.77      0.00
   -5    3   16      9.28      0.00
   -4    3   16     14.52      0.00
   -3    3   16     16.73      0.00
   -2    3   16      9.63      0.00
   -1    3   16     -3.47      0.00
    0    3   16    -11.16      0.00
    1    3   16     -8.94      0.00
    2    3   16     -4.38      0.00
    3    3   16     -4.26      0.00
    4    3   16     -5.34      0.00
    5    3   16     -2.21      0.00
    6    3   16      3.23      0.00
    7    3   16      5.05      0.00
    8    3   16      1.82      0.00
    9    3   16     -2.23      0.00
   10    3   16     -3.04      0.00
   11    3   16     -1.05      0.00
   12    3   16      0.78      0.00
   13    3   16      1.30      0.00
   14    3   16      1.39      0.00
   15    3   16      1.35      0.00
  -20    4   16     -1.28      0.00
  -19    4   16     -2.12      0.00
  -18    4   16     -1.59      0.00
  -17    4   16     -0.30      0.00
  -16    4   16      0.49      0.00
  -15    4   16      0.51      0.00
  -14    4   16     -0.05      0.00
  -13    4   16     -0.24      0.00
  -12    4   16      0.63      0.00
  -11    4   16      0.49      0.00
  -10    4   16     -2.77      0.00
   -9    4   16     -6.32      0.00
   -8    4   16     -5.59      0.00
   -7    4   16     -1.34      0.00
   -6    4   16      1.32      0.00
   -5    4   16     -0.11      0.00
   -4    4   16     -2.97      0.00
   -3    4   16     -4.28      0.00
   -2    4   16     -5.13      0.00
   -1    4   16     -6.76      0.00
    0    4   16     -5.60      0.00
    1    4   16      1.36      0.00
    2    4   16      9.11      0.00
    3    4   16     10.08      0.00
    4    4   16      4.34      0.00
    5    4   16     -1.56      0.00
    6    4   16     -3.11      0.00
    7    4   16     -1.46      0.00
    8    4   16     -0.36      0.00
    9    4   16     -1.18      0.00
   10    4   16     -2.03      0.00
   11    4   16     -1.90      0.00
   12    4   16     -2.12      0.00
   13    4   16     -2.68      0.00
   14    4   16     -2.06      0.00
   15    4   16     -0.60      0.00
  -19    5   16      0.26      0.00
  -18    5   16      0.04      0.00
  -17    5   16      1.07      0.00
  -16    5   16      1.45      0.00
  -15    5   16      0.08      0.00
  -14    5   16     -0.99      0.00
  -13    5   16     -0.74      0.00
  -12    5   16     -1.12      0.00
  -11    5   16     -2.78      0.00
  -10    5   16     -3.18      0.00
   -9    5   16     -0.38      0.00
   -8    5   16      4.07      0.00
   -7    5   16      6.91      0.00
   -6    5   16      6.29      0.00
   -5    5   16      3.11      0.00
   -4    5   16     -0.04      0.00
   -3    5   16     -1.66      0.00
   -2    5   16     -3.18      0.00
   -1    5   16     -6.05      0.00
    0    5   16     -7.53      0.00
    1    5   16     -4.12      0.00
    2    5   16      1.26      0.00
    3    5   16      2.43      0.00
    4    5   16     -0.37      0.00
    5    5   16     -1.60      0.00
    6    5   16      0.17      0.00
    7    5   16      1.36      0.00
    8    5   16      0.12      0.00
    9    5   16     -1.47      0.00
   10    5   16     -0.82      0.00
   11    5   16      1.61      0.00
   12    5   16      2.45      0.00
   13    5   16      0.43      0.00
   14    5   16     -1.33      0.00
   15    5   16     -0.62      0.00
  -19    6   16      2.42      0.00
  -18    6   16      4.17      0.00
  -17    6   16      2.94      0.00
  -16    6   16      0.51      0.00
  -15    6   16     -0.08      0.00
  -14    6   16      0.94      0.00
  -13    6   16      1.93      0.00
  -12    6   16      2.38      0.00
  -11    6   16      1.24      0.00
  -10    6   16     -2.06      0.00
   -9    6   16     -4.35      0.00
   -8    6   16     -2.03      0.00
   -7    6   16      3.03      0.00
   -6    6   16      5.52      0.00
   -5    6   16      3.72      0.00
   -4    6   16      1.43      0.00
   -3    6   16      2.49      0.00
   -2    6   16      5.01      0.00
   -1    6   16      3.68      0.00
    0    6   16     -1.68      0.00
    1    6   16     -4.63      0.00
    2    6   16     -1.94      0.00
    3    6   16      1.02      0.00
    4    6   16     -1.29      0.00
    5    6   16     -6.30      0.00
    6    6   16     -7.92      0.00
    7    6   16     -5.05      0.00
    8    6   16     -1.47      0.00
    9    6   16     -0.24      0.00
   10    6   16     -1.20      0.00
   11    6   16     -2.47      0.00
   12    6   16     -2.32      0.00
   13    6   16     -0.71      0.00
   14    6   16      0.73      0.00
   15    6   16      0.88      0.00
  -18    7   16     -1.42      0.00
  -17    7   16      0.27      0.00
  -16    7   16      1.17      0.00
  -15    7   16      0.55      0.00
  -14    7   16     -0.18      0.00
  -13    7   16     -0.91      0.00
  -12    7   16     -1.93      0.00
  -11    7   16     -1.85      0.00
  -10    7   16     -0.42      0.00
   -9    7   16      0.37      0.00
   -8    7   16      0.16      0.00
   -7    7   16      0.67      0.00
   -6    7   16      1.43      0.00
   -5    7   16     -0.24      0.00
   -4    7   16     -3.87      0.00
   -3    7   16     -4.66      0.00
   -2    7   16     -0.28      0.00
   -1    7   16      4.26      0.00
    0    7   16      2.97      0.00
    1    7   16     -2.05      0.00
    2    7   16     -4.03      0.00
    3    7   16     -1.75      0.00
    4    7   16      0.14      0.00
    5    7   16     -0.57      0.00
    6    7   16     -1.12      0.00
    7    7   16      0.50      0.00
    8    7   16      2.14      0.00
    9    7   16      1.50      0.00
   10    7   16      0.36      0.00
   11    7   16      1.22      0.00
   12    7   16      2.40      0.00
   13    7   16      1.22      0.00
   14    7   16     -0.89      0.00
  -18    8   16     -1.44      0.00
  -17    8   16     -2.33      0.00
  -16    8   16     -0.78      0.00
  -15    8   16      0.89      0.00
  -14    8   16      0.39      0.00
  -13    8   16     -0.80      0.00
  -12    8   16     -0.69      0.00
  -11    8   16     -0.72      0.00
  -10    8   16     -2.69      0.00
   -9    8   16     -4.98      0.00
   -8    8   16     -5.20      0.00
   -7    8   16     -4.03      0.00
   -6    8   16     -3.58      0.00
   -5    8   16     -4.14      0.00
   -4    8   16     -4.00      0.00
   -3    8   16     -1.42      0.00
   -2    8   16      3.24      0.00
   -1    8   16      6.20      0.00
    0    8   16      3.66      0.00
    1    8   16     -2.29      0.00
    2    8   16     -5.40      0.00
    3    8   16     -4.03      0.00
    4    8   16     -2.30      0.00
    5    8   16     -2.21      0.00
    6    8   16     -1.52      0.00
    7    8   16      0.42      0.00
    8    8   16      1.36      0.00
    9    8   16      0.49      0.00
   10    8   16     -0.58      0.00
   11    8   16     -0.61      0.00
   12    8   16      0.11      0.00
   13    8   16      0.48      0.00
   14    8   16      0.06      0.00
  -17    9   16     -0.26      0.00
  -16    9   16     -0.57      0.00
  -15    9   16     -0.99      0.00
  -14    9   16     -1.00      0.00
  -13    9   16     -0.96      0.00
  -12    9   16     -0.38      0.00
  -11    9   16      1.69      0.00
  -10    9   16      3.42      0.00
   -9    9   16      1.95      0.00
   -8    9   16     -1.28      0.00
   -7    9   16     -1.95      0.00
   -6    9   16      0.12      0.00
   -5    9   16      0.92      0.00
   -4    9   16     -1.14      0.00
   -3    9   16     -2.84      0.00
   -2    9   16     -0.96      0.00
   -1    9   16      3.09      0.00
    0    9   16      4.79      0.00
    1    9   16      2.83      0.00
    2    9   16      1.07      0.00
    3    9   16      2.24      0.00
    4    9   16      3.39      0.00
    5    9   16      1.58      0.00
    6    9   16     -1.06      0.00
    7    9   16     -1.93      0.00
    8    9   16     -1.78      0.00
    9    9   16     -1.15      0.00
   10    9   16      0.74      0.00
   11    9   16      2.67      0.00
   12    9   16      2.53      0.00
   13    9   16      1.08      0.00
  -17   10   16      0.93      0.00
  -16   10   16      3.05      0.00
  -15   10   16      3.14      0.00
  -14   10   16      1.23      0.00
  -13   10   16     -0.39      0.00
  -12   10   16     -0.93      0.00
  -11   10   16     -1.19      0.00
  -10   10   16     -0.78      0.00
   -9   10   16      0.50      0.00
   -8   10   16      0.77      0.00
   -7   10   16     -0.29      0.00
   -6   10   16     -0.05      0.00
   -5   10   16      1.99      0.00
   -4   10   16      2.98      0.00
   -3   10   16      2.09      0.00
   -2   10   16      1.57      0.00
   -1   10   16      2.25      0.00
    0   10   16      2.19      0.00
    1   10   16     -0.18      0.00
    2   10   16     -3.66      0.00
    3   10   16     -5.52      0.00
    4   10   16     -4.79      0.00
    5   10   16     -3.10      0.00
    6   10   16     -1.61      0.00
    7   10   16     -0.30      0.00
    8   10   16      0.00      0.00
    9   10   16     -1.16      0.00
   10   10   16     -2.00      0.00
   11   10   16     -1.24      0.00
   12   10   16      0.07      0.00
  -16   11   16     -0.14      0.00
  -15   11   16      0.10      0.00
  -14   11   16      0.59      0.00
  -13   11   16      0.59      0.00
  -12   11   16      0.69      0.00
  -11   11   16      1.17      0.00
  -10   11   16      0.75      0.00
   -9   11   16     -0.86      0.00
   -8   11   16     -2.21      0.00
   -7   11   16     -2.43      0.00
   -6   11   16     -1.66      0.00
   -5   11   16     -0.47      0.00
   -4   11   16     -0.14      0.00
   -3   11   16     -0.92      0.00
   -2   11   16     -0.66      0.00
   -1   11   16      1.51      0.00
    0   11   16      2.94      0.00
    1   11   16      1.77      0.00
    2   11   16     -0.07      0.00
    3   11   16     -0.31      0.00
    4   11   16      0.63      0.00
    5   11   16      1.05      0.00
    6   11   16      0.22      0.00
    7   11   16     -1.26      0.00
    8   11   16     -2.39      0.00
    9   11   16     -2.47      0.00
   10   11   16     -1.58      0.00
   11   11   16     -0.83      0.00
   12   11   16     -1.11      0.00
  -15   12   16      0.07      0.00
  -14   12   16     -0.06      0.00
  -13   12   16      0.48      0.00
  -12   12   16      0.45      0.00
  -11   12   16     -0.03      0.00
  -10   12   16      0.55      0.00
   -9   12   16      1.74      0.00
   -8   12   16      1.13      0.00
   -7   12   16     -1.13      0.00
   -6   12   16     -1.82      0.00
   -5   12   16      0.00      0.00
   -4   12   16      1.20      0.00
   -3   12   16     -0.28      0.00
   -2   12   16     -2.32      0.00
   -1   12   16     -2.15      0.00
    0   12   16     -0.09      0.00
    1   12   16      1.54      0.00
    2   12   16      1.97      0.00
    3   12   16      2.35      0.00
    4   12   16      2.99      0.00
    5   12   16      2.58      0.00
    6   12   16      1.02      0.00
    7   12   16      0.11      0.00
    8   12   16      0.42      0.00
    9   12   16      0.71      0.00
   10   12   16      0.48      0.00
   11   12   16      0.19      0.00
  -14   13   16      1.92      0.00
  -13   13   16      0.78      0.00
  -12   13   16      0.31      0.00
  -11   13   16      0.18      0.00
  -10   13   16     -0.93      0.00
   -9   13   16     -2.04      0.00
   -8   13   16     -1.78      0.00
   -7   13   16     -1.52      0.00
   -6   13   16     -2.31      0.00
   -5   13   16     -2.33      0.00
   -4   13   16     -0.98      0.00
   -3   13   16     -0.10      0.00
   -2   13   16     -0.07      0.00
   -1   13   16      0.35      0.00
    0   13   16      1.11      0.00
    1   13   16      1.62      0.00
    2   13   16      2.09      0.00
    3   13   16      2.55      0.00
    4   13   16      2.71      0.00
    5   13   16      2.25      0.00
    6   13   16      0.87      0.00
    7   13   16     -0.66      0.00
    8   13   16     -1.06      0.00
    9   13   16     -0.68      0.00
   10   13   16     -0.55      0.00
  -13   14   16      0.84      0.00
  -12   14   16      0.14      0.00
  -11   14   16     -1.27      0.00
  -10   14   16     -1.41      0.00
   -9   14   16     -0.49      0.00
   -8   14   16     -0.19      0.00
   -7   14   16     -0.84      0.00
   -6   14   16     -1.47      0.00
   -5   14   16     -1.39      0.00
   -4   14   16     -1.20      0.00
   -3   14   16     -1.95      0.00
   -2   14   16     -2.91      0.00
   -1   14   16     -2.20      0.00
    0   14   16     -0.22      0.00
    1   14   16      0.64      0.00
    2   14   16      0.14      0.00
    3   14   16      0.22      0.00
    4   14   16      1.47      0.00
    5   14   16      2.67      0.00
    6   14   16      2.73      0.00
    7   14   16      1.79      0.00
    8   14   16      0.98      0.00
    9   14   16      1.01      0.00
  -11   15   16      1.28      0.00
  -10   15   16      1.72      0.00
   -9   15   16      2.42      0.00
   -8   15   16      3.18      0.00
   -7   15   16      2.81      0.00
   -6   15   16      1.10      0.00
   -5   15   16     -0.60      0.00
   -4   15   16     -1.03      0.00
   -3   15   16     -0.32      0.00
   -2   15   16      0.58      0.00
   -1   15   16      1.03      0.00
    0   15   16      1.07      0.00
    1   15   16      0.81      0.00
    2   15   16      0.18      0.00
    3   15   16     -0.44      0.00
    4   15   16      0.00      0.00
    5   15   16      1.56      0.00
    6   15   16      2.62      0.00
    7   15   16      1.88      0.00
  -10   16   16     -0.20      0.00
   -9   16   16     -0.13      0.00
   -8   16   16      0.03      0.00
   -7   16   16     -0.38      0.00
   -6   16   16     -1.16      0.00
   -5   16   16     -1.73      0.00
   -4   16   16     -1.97      0.00
   -3   16   16     -2.04      0.00
   -2   16   16     -1.92      0.00
   -1   16   16     -1.56      0.00
    0   16   16     -1.22      0.00
    1   16   16     -1.12      0.00
    2   16   16     -1.00      0.00
    3   16   16     -0.65      0.00
    4   16   16     -0.48      0.00
    5   16   16     -0.69      0.00
   -7   17   16     -0.23      0.00
   -6   17   16     -0.82      0.00
   -5   17   16     -0.38      0.00
   -4   17   16      0.56      0.00
   -3   17   16      0.59      0.00
   -2   17   16     -0.37      0.00
   -1   17   16     -1.10      0.00
    0   17   16     -0.58      0.00
    1   17   16      0.68      0.00
    2   17   16      0.81      0.00
  -20    1   17     -2.14      0.00
  -19    1   17     -0.32      0.00
  -18    1   17      1.13      0.00
  -17    1   17      0.01      0.00
  -16    1   17     -1.56      0.00
  -15    1   17     -0.84      0.00
  -14    1   17      0.47      0.00
  -13    1   17     -0.60      0.00
  -12    1   17     -2.40      0.00
  -11    1   17     -0.51      0.00
  -10    1   17      5.85      0.00
   -9    1   17     11.34      0.00
   -8    1   17      9.48      0.00
   -7    1   17      0.35      0.00
   -6    1   17     -8.61      0.00
   -5    1   17    -11.49      0.00
   -4    1   17    -10.42      0.00
   -3    1   17     -9.87      0.00
   -2    1   17     -8.86      0.00
   -1    1   17     -3.65      0.00
    0    1   17      4.01      0.00
    1    1   17      7.31      0.00
    2    1   17      3.64      0.00
    3    1   17     -1.16      0.00
    4    1   17     -0.70      0.00
    5    1   17      3.49      0.00
    6    1   17      5.57      0.00
    7    1   17      3.98      0.00
    8    1   17      1.78      0.00
    9    1   17      1.28      0.00
   10    1   17      2.17      0.00
   11    1   17      3.09      0.00
   12    1   17      2.89      0.00
   13    1   17      1.42      0.00
   14    1   17     -0.31      0.00
   15    1   17     -1.09      0.00
  -20    2   17     -1.62      0.00
  -19    2   17     -1.16      0.00
  -18    2   17      0.57      0.00
  -17    2   17      0.97      0.00
  -16    2   17     -0.98      0.00
  -15    2   17     -3.17      0.00
  -14    2   17     -3.39      0.00
  -13    2   17     -1.67      0.00
  -12    2   17      0.36      0.00
  -11    2   17      1.14      0.00
  -10    2   17      0.77      0.00
   -9    2   17      0.75      0.00
   -8    2   17      1.10      0.00
   -7    2   17     -0.35      0.00
   -6    2   17     -3.16      0.00
   -5    2   17     -1.84      0.00
   -4    2   17      6.50      0.00
   -3    2   17     14.64      0.00
   -2    2   17     12.73      0.00
   -1    2   17      1.53      0.00
    0    2   17     -9.01      0.00
    1    2   17    -12.88      0.00
    2    2   17    -12.37      0.00
    3    2   17    -10.34      0.00
    4    2   17     -6.09      0.00
    5    2   17      0.39      0.00
    6    2   17      5.60      0.00
    7    2   17      6.08      0.00
    8    2   17      2.32      0.00
    9    2   17     -1.77      0.00
   10    2   17     -2.93      0.00
   11    2   17     -1.28      0.00
   12    2   17      1.02      0.00
   13    2   17      2.41      0.00
   14    2   17      2.50      0.00
   15    2   17      1.43      0.00
  -20    3   17      0.59      0.00
  -19    3   17     -0.44      0.00
  -18    3   17     -0.96      0.00
  -17    3   17     -0.84      0.00
  -16    3   17     -0.27      0.00
  -15    3   17      0.57      0.00
  -14    3   17      1.12      0.00
  -13    3   17      1.70      0.00
  -12    3   17      3.26      0.00
  -11    3   17      4.58      0.00
  -10    3   17      3.40      0.00
   -9    3   17      0.72      0.00
   -8    3   17     -0.33      0.00
   -7    3   17      0.63      0.00
   -6    3   17      1.61      0.00
   -5    3   17      2.23      0.00
   -4    3   17      3.44      0.00
   -3    3   17      4.26      0.00
   -2    3   17      2.48      0.00
   -1    3   17     -0.64      0.00
    0    3   17     -0.92      0.00
    1    3   17      2.23      0.00
    2    3   17      4.53      0.00
    3    3   17      3.59      0.00
    4    3   17      1.42      0.00
    5    3   17      0.01      0.00
    6    3   17     -0.60      0.00
    7    3   17     -0.79      0.00
    8    3   17     -1.47      0.00
    9    3   17     -2.96      0.00
   10    3   17     -3.33      0.00
   11    3   17     -1.44      0.00
   13    3   17      0.20      0.00
   14    3   17     -0.86      0.00
   15    3   17     -1.14      0.00
  -19    4   17     -0.17      0.00
  -18    4   17     -1.03      0.00
  -17    4   17     -1.04      0.00
  -16    4   17     -1.17      0.00
  -15    4   17     -2.42      0.00
  -14    4   17     -3.34      0.00
  -13    4   17     -2.31      0.00
  -12    4   17     -0.34      0.00
  -11    4   17      0.69      0.00
  -10    4   17      1.11      0.00
   -9    4   17      2.42      0.00
   -8    4   17      4.44      0.00
   -7    4   17      5.35      0.00
   -6    4   17      4.03      0.00
   -5    4   17      1.73      0.00
   -4    4   17      0.43      0.00
   -3    4   17     -0.70      0.00
   -2    4   17     -4.89      0.00
   -1    4   17    -11.50      0.00
    0    4   17    -14.08      0.00
    1    4   17     -9.20      0.00
    2    4   17     -2.71      0.00
    3    4   17     -1.51      0.00
    4    4   17     -3.58      0.00
    5    4   17     -2.77      0.00
    6    4   17      1.10      0.00
    7    4   17      3.12      0.00
    8    4   17      1.01      0.00
    9    4   17     -2.41      0.00
   10    4   17     -3.10      0.00
   11    4   17     -0.55      0.00
   12    4   17      1.76      0.00
   13    4   17      1.25      0.00
   14    4   17     -0.37      0.00
   15    4   17     -0.65      0.00
  -19    5   17     -0.37      0.00
  -18    5   17      1.56      0.00
  -17    5   17      2.59      0.00
  -16    5   17      2.05      0.00
  -15    5   17      1.28      0.00
  -14    5   17      0.72      0.00
  -13    5   17      0.27      0.00
  -12    5   17      0.35      0.00
  -11    5   17     -0.21      0.00
  -10    5   17     -3.04      0.00
   -9    5   17     -5.97      0.00
   -8    5   17     -4.88      0.00
   -7    5   17      0.28      0.00
   -6    5   17      5.13      0.00
   -5    5   17      6.46      0.00
   -4    5   17      5.73      0.00
   -3    5   17      5.67      0.00
   -2    5   17      4.81      0.00
   -1    5   17      0.02      0.00
    0    5   17     -5.68      0.00
    1    5   17     -5.41      0.00
    2    5   17      0.69      0.00
    3    5   17      4.88      0.00
    4    5   17      3.09      0.00
    5    5   17     -0.62      0.00
    6    5   17     -1.38      0.00
    7    5   17      0.51      0.00
    8    5   17      1.82      0.00
    9    5   17      1.24      0.00
   10    5   17     -0.12      0.00
   11    5   17     -1.28      0.00
   12    5   17     -1.81      0.00
   13    5   17     -1.02      0.00
   14    5   17      0.70      0.00
  -19    6   17     -0.22      0.00
  -18    6   17     -0.98      0.00
  -17    6   17     -0.12      0.00
  -16    6   17      0.54      0.00
  -15    6   17     -0.22      0.00
  -14    6   17     -0.68      0.00
  -13    6   17      0.02      0.00
  -12    6   17      0.38      0.00
  -11    6   17     -0.11      0.00
  -10    6   17     -0.11      0.00
   -9    6   17      0.97      0.00
   -8    6   17      2.25      0.00
   -7    6   17      2.76      0.00
   -6    6   17      1.82      0.00
   -5    6   17     -1.16      0.00
   -4    6   17     -5.18      0.00
   -3    6   17     -7.12      0.00
   -2    6   17     -5.47      0.00
   -1    6   17     -2.95      0.00
    0    6   17     -1.82      0.00
    1    6   17     -0.04      0.00
    2    6   17      3.69      0.00
    3    6   17      6.29      0.00
    4    6   17      5.39      0.00
    5    6   17      2.99      0.00
    6    6   17      1.72      0.00
    7    6   17      1.59      0.00
    8    6   17      0.89      0.00
    9    6   17     -1.15      0.00
   10    6   17     -2.52      0.00
   11    6   17     -1.24      0.00
   12    6   17      0.59      0.00
   13    6   17     -0.05      0.00
   14    6   17     -1.69      0.00
  -18    7   17      1.05      0.00
  -17    7   17     -0.72      0.00
  -16    7   17     -2.06      0.00
  -15    7   17     -1.69      0.00
  -14    7   17     -1.01      0.00
  -13    7   17     -0.73      0.00
  -12    7   17     -0.18      0.00
  -11    7   17     -0.26      0.00
  -10    7   17     -2.13      0.00
   -9    7   17     -3.27      0.00
   -8    7   17     -0.63      0.00
   -7    7   17      3.71      0.00
   -6    7   17      5.11      0.00
   -5    7   17      2.79      0.00
   -4    7   17      0.13      0.00
   -3    7   17      0.33      0.00
   -2    7   17      2.88      0.00
   -1    7   17      3.44      0.00
    0    7   17     -0.64      0.00
    1    7   17     -5.20      0.00
    2    7   17     -4.62      0.00
    3    7   17     -0.74      0.00
    4    7   17      0.45      0.00
    5    7   17     -1.61      0.00
    6    7   17     -2.78      0.00
    7    7   17     -1.76      0.00
    8    7   17     -0.87      0.00
    9    7   17     -1.73      0.00
   10    7   17     -3.67      0.00
   11    7   17     -4.98      0.00
   12    7   17     -4.54      0.00
   13    7   17     -2.99      0.00
   14    7   17     -1.76      0.00
  -18    8   17     -1.97      0.00
  -17    8   17     -1.72      0.00
  -16    8   17     -1.87      0.00
  -15    8   17     -1.93      0.00
  -14    8   17     -1.15      0.00
  -13    8   17     -0.76      0.00
  -12    8   17     -1.30      0.00
  -11    8   17     -0.96      0.00
  -10    8   17      0.13      0.00
   -9    8   17     -0.48      0.00
   -8    8   17     -2.07      0.00
   -7    8   17     -1.32      0.00
   -6    8   17      1.21      0.00
   -5    8   17      1.46      0.00
   -4    8   17     -1.48      0.00
   -3    8   17     -3.53      0.00
   -2    8   17     -1.26      0.00
   -1    8   17      2.94      0.00
    0    8   17      3.51      0.00
    1    8   17     -0.31      0.00
    2    8   17     -3.05      0.00
    3    8   17     -1.67      0.00
    4    8   17     -0.23      0.00
    5    8   17     -2.38      0.00
    6    8   17     -5.20      0.00
    7    8   17     -4.74      0.00
    8    8   17     -2.16      0.00
    9    8   17     -0.60      0.00
   10    8   17     -0.18      0.00
   11    8   17      0.50      0.00
   12    8   17      1.14      0.00
   13    8   17      0.72      0.00
  -17    9   17     -1.45      0.00
  -16    9   17      0.62      0.00
  -15    9   17      2.04      0.00
  -14    9   17      1.05      0.00
  -13    9   17     -0.46      0.00
  -12    9   17     -0.57      0.00
  -11    9   17      0.14      0.00
  -10    9   17      0.85      0.00
   -9    9   17      1.59      0.00
   -8    9   17      2.05      0.00
   -7    9   17      1.92      0.00
   -6    9   17      1.63      0.00
   -5    9   17      0.95      0.00
   -4    9   17     -0.69      0.00
   -3    9   17     -1.81      0.00
   -2    9   17     -0.12      0.00
   -1    9   17      3.21      0.00
    0    9   17      4.00      0.00
    1    9   17      0.85      0.00
    2    9   17     -2.92      0.00
    3    9   17     -4.20      0.00
    4    9   17     -3.66      0.00
    5    9   17     -2.75      0.00
    6    9   17     -0.86      0.00
    7    9   17      2.11      0.00
    8    9   17      4.02      0.00
    9    9   17      3.67      0.00
   10    9   17      2.70      0.00
   11    9   17      2.70      0.00
   12    9   17      3.15      0.00
   13    9   17      3.00      0.00
  -17   10   17      0.37      0.00
  -16   10   17      0.51      0.00
  -15   10   17      1.09      0.00
  -14   10   17      1.43      0.00
  -13   10   17      1.08      0.00
  -12   10   17      1.01      0.00
  -11   10   17      1.87      0.00
  -10   10   17      2.02      0.00
   -9   10   17     -0.05      0.00
   -8   10   17     -2.68      0.00
   -7   10   17     -3.24      0.00
   -6   10   17     -1.77      0.00
   -5   10   17     -0.46      0.00
   -4   10   17     -0.73      0.00
   -3   10   17     -1.80      0.00
   -2   10   17     -1.54      0.00
   -1   10   17      0.60      0.00
    0   10   17      1.89      0.00
    1   10   17      0.24      0.00
    2   10   17     -1.94      0.00
    3   10   17     -1.44      0.00
    4   10   17      0.60      0.00
    5   10   17      1.30      0.00
    6   10   17      0.42      0.00
    7   10   17     -1.02      0.00
    8   10   17     -2.64      0.00
    9   10   17     -3.24      0.00
   10   10   17     -1.59      0.00
   11   10   17      0.68      0.00
   12   10   17      1.01      0.00
  -16   11   17     -0.64      0.00
  -15   11   17     -1.38      0.00
  -14   11   17     -2.00      0.00
  -13   11   17     -1.69      0.00
  -12   11   17     -1.36      0.00
  -11   11   17     -1.58      0.00
  -10   11   17     -0.89      0.00
   -9   11   17      0.95      0.00
   -8   11   17      1.29      0.00
   -7   11   17     -0.37      0.00
   -6   11   17     -0.71      0.00
   -5   11   17      1.22      0.00
   -4   11   17      2.10      0.00
   -3   11   17      0.26      0.00
   -2   11   17     -2.03      0.00
   -1   11   17     -2.51      0.00
    0   11   17     -1.54      0.00
    1   11   17     -0.88      0.00
    2   11   17     -1.17      0.00
    3   11   17     -0.99      0.00
    4   11   17      0.46      0.00
    5   11   17      1.72      0.00
    6   11   17      1.92      0.00
    7   11   17      2.05      0.00
    8   11   17      2.13      0.00
    9   11   17      1.36      0.00
   10   11   17      0.40      0.00
   11   11   17      0.02      0.00
  -15   12   17     -1.01      0.00
  -14   12   17     -1.06      0.00
  -13   12   17     -1.48      0.00
  -12   12   17     -1.22      0.00
  -11   12   17     -0.40      0.00
  -10   12   17     -0.69      0.00
   -9   12   17     -1.70      0.00
   -8   12   17     -1.83      0.00
   -7   12   17     -1.56      0.00
   -6   12   17     -1.47      0.00
   -5   12   17     -0.49      0.00
   -4   12   17      1.09      0.00
   -3   12   17      1.60      0.00
   -2   12   17      1.54      0.00
   -1   12   17      2.26      0.00
    0   12   17      2.92      0.00
    1   12   17      2.30      0.00
    2   12   17      0.99      0.00
    3   12   17      0.09      0.00
    4   12   17     -0.11      0.00
    5   12   17     -0.16      0.00
    6   12   17     -0.63      0.00
    7   12   17     -1.12      0.00
    8   12   17     -1.10      0.00
    9   12   17     -1.12      0.00
   10   12   17     -1.39      0.00
  -14   13   17     -2.09      0.00
  -13   13   17     -0.93      0.00
  -12   13   17     -0.77      0.00
  -11   13   17     -1.56      0.00
  -10   13   17     -1.36      0.00
   -9   13   17     -0.21      0.00
   -8   13   17     -0.09      0.00
   -7   13   17     -1.29      0.00
   -6   13   17     -1.68      0.00
   -5   13   17     -0.27      0.00
   -4   13   17      0.79      0.00
   -3   13   17     -0.53      0.00
   -2   13   17     -2.59      0.00
   -1   13   17     -2.52      0.00
    0   13   17     -0.62      0.00
    1   13   17      0.57      0.00
    2   13   17      0.43      0.00
    3   13   17      0.61      0.00
    4   13   17      1.80      0.00
    5   13   17      2.53      0.00
    6   13   17      1.43      0.00
    7   13   17     -0.63      0.00
    8   13   17     -1.69      0.00
    9   13   17     -1.35      0.00
  -13   14   17     -0.55      0.00
  -12   14   17     -0.74      0.00
  -11   14   17     -0.19      0.00
  -10   14   17     -0.23      0.00
   -9   14   17     -0.49      0.00
   -8   14   17     -0.20      0.00
   -7   14   17     -0.40      0.00
   -6   14   17     -1.68      0.00
   -5   14   17     -2.43      0.00
   -4   14   17     -1.73      0.00
   -3   14   17     -0.83      0.00
   -2   14   17     -0.34      0.00
   -1   14   17      0.17      0.00
    0   14   17      0.37      0.00
    1   14   17     -0.04      0.00
    2   14   17     -0.33      0.00
    3   14   17      0.00      0.00
    4   14   17      0.82      0.00
    5   14   17      1.91      0.00
    6   14   17      2.60      0.00
    7   14   17      2.22      0.00
  -11   15   17      0.60      0.00
  -10   15   17      0.06      0.00
   -9   15   17      0.21      0.00
   -8   15   17      0.54      0.00
   -7   15   17      0.20      0.00
   -6   15   17     -0.91      0.00
   -5   15   17     -1.69      0.00
   -4   15   17     -1.38      0.00
   -3   15   17     -0.90      0.00
   -2   15   17     -0.94      0.00
   -1   15   17     -0.65      0.00
    0   15   17      0.17      0.00
    1   15   17      0.29      0.00
    2   15   17     -0.23      0.00
    3   15   17     -0.09      0.00
    4   15   17      0.54      0.00
    5   15   17      0.45      0.00
    6   15   17     -0.20      0.00
   -9   16   17      0.94      0.00
   -8   16   17      2.34      0.00
   -7   16   17      2.43      0.00
   -6   16   17      1.23      0.00
   -5   16   17      0.11      0.00
   -4   16   17     -0.03      0.00
   -3   16   17      0.42      0.00
   -2   16   17      0.58      0.00
   -1   16   17      0.37      0.00
    0   16   17      0.51      0.00
    1   16   17      0.96      0.00
    2   16   17      0.64      0.00
    3   16   17     -0.66      0.00
    4   16   17     -1.26      0.00
   -6   17   17     -0.11      0.00
   -5   17   17     -0.12      0.00
   -4   17   17     -0.60      0.00
   -3   17   17     -1.02      0.00
   -2   17   17     -0.41      0.00
   -1   17   17      0.79      0.00
    0   17   17      1.17      0.00
    1   17   17      0.53      0.00
  -20    0   18     -2.50      0.00
  -19    0   18     -1.39      0.00
  -18    0   18      0.26      0.00
  -17    0   18     -0.04      0.00
  -16    0   18     -0.71      0.00
  -15    0   18      0.89      0.00
  -14    0   18      2.66      0.00
  -13    0   18      0.66      0.00
  -12    0   18     -3.81      0.00
  -11    0   18     -4.75      0.00
  -10    0   18      0.73      0.00
   -9    0   18      7.65      0.00
   -8    0   18      8.10      0.00
   -7    0   18      1.17      0.00
   -6    0   18     -5.75      0.00
   -5    0   18     -7.68      0.00
   -4    0   18     -8.19      0.00
   -3    0   18    -10.66      0.00
   -2    0   18    -10.78      0.00
   -1    0   18     -3.39      0.00
    0    0   18      8.32      0.00
    1    0   18     15.52      0.00
    2    0   18     13.58      0.00
    3    0   18      6.63      0.00
    4    0   18      1.90      0.00
    5    0   18      1.15      0.00
    6    0   18      0.77      0.00
    7    0   18     -1.05      0.00
    8    0   18     -2.21      0.00
    9    0   18     -1.35      0.00
   10    0   18      0.14      0.00
   11    0   18      0.73      0.00
   12    0   18      0.34      0.00
   13    0   18     -0.41      0.00
   14    0   18     -1.00      0.00
   15    0   18     -1.11      0.00
  -20    1   18     -1.54      0.00
  -19    1   18     -1.46      0.00
  -18    1   18      0.06      0.00
  -17    1   18      1.04      0.00
  -16    1   18      0.28      0.00
  -15    1   18     -0.72      0.00
  -14    1   18     -0.43      0.00
  -13    1   18      0.72      0.00
  -12    1   18      1.80      0.00
  -11    1   18      2.89      0.00
  -10    1   18      4.31      0.00
   -9    1   18      5.52      0.00
   -8    1   18      4.69      0.00
   -7    1   18      0.08      0.00
   -6    1   18     -6.62      0.00
   -5    1   18     -9.87      0.00
   -4    1   18     -6.27      0.00
   -3    1   18      0.20      0.00
   -2    1   18      2.56      0.00
   -1    1   18     -1.06      0.00
    0    1   18     -6.76      0.00
    1    1   18    -10.71      0.00
    2    1   18    -12.11      0.00
    3    1   18    -11.21      0.00
    4    1   18     -7.89      0.00
    5    1   18     -2.89      0.00
    6    1   18      1.17      0.00
    7    1   18      2.06      0.00
    8    1   18      0.52      0.00
    9    1   18     -0.74      0.00
   10    1   18     -0.51      0.00
   11    1   18      0.27      0.00
   12    1   18      0.77      0.00
   13    1   18      1.26      0.00
   14    1   18      1.78      0.00
   15    1   18      1.65      0.00
  -20    2   18     -0.82      0.00
  -19    2   18     -0.38      0.00
  -18    2   18      0.29      0.00
  -17    2   18      0.09      0.00
  -16    2   18     -0.22      0.00
  -15    2   18      0.74      0.00
  -14    2   18      2.15      0.00
  -13    2   18      2.31      0.00
  -12    2   18      1.41      0.00
  -11    2   18      0.71      0.00
  -10    2   18      0.70      0.00
   -9    2   18      0.96      0.00
   -8    2   18      0.32      0.00
   -7    2   18     -2.25      0.00
   -6    2   18     -5.17      0.00
   -5    2   18     -5.31      0.00
   -4    2   18     -2.52      0.00
   -3    2   18     -0.23      0.00
   -2    2   18     -0.21      0.00
   -1    2   18     -0.02      0.00
    0    2   18      2.23      0.00
    1    2   18      3.91      0.00
    2    2   18      1.92      0.00
    3    2   18     -1.73      0.00
    4    2   18     -2.84      0.00
    5    2   18     -1.48      0.00
    6    2   18     -0.60      0.00
    7    2   18     -0.98      0.00
    8    2   18     -1.55      0.00
    9    2   18     -1.72      0.00
   10    2   18     -0.82      0.00
   11    2   18      1.47      0.00
   12    2   18      3.38      0.00
   13    2   18      3.02      0.00
   14    2   18      1.10      0.00
   15    2   18     -0.39      0.00
  -19    3   18     -0.71      0.00
  -18    3   18      0.29      0.00
  -17    3   18      0.79      0.00
  -16    3   18     -0.12      0.00
  -15    3   18     -1.63      0.00
  -14    3   18     -2.28      0.00
  -13    3   18     -1.50      0.00
  -12    3   18      0.09      0.00
  -11    3   18      1.69      0.00
  -10    3   18      3.11      0.00
   -9    3   18      4.27      0.00
   -8    3   18      4.15      0.00
   -7    3   18      1.15      0.00
   -6    3   18     -4.04      0.00
   -5    3   18     -6.76      0.00
   -4    3   18     -3.24      0.00
   -3    3   18      2.99      0.00
   -2    3   18      4.62      0.00
   -1    3   18      0.70      0.00
    0    3   18     -2.53      0.00
    1    3   18     -1.60      0.00
    2    3   18     -0.04      0.00
    3    3   18     -0.94      0.00
    4    3   18     -1.84      0.00
    5    3   18      0.33      0.00
    6    3   18      3.97      0.00
    7    3   18      5.21      0.00
    8    3   18      2.84      0.00
    9    3   18     -0.83      0.00
   10    3   18     -2.65      0.00
   11    3   18     -1.39      0.00
   12    3   18      1.16      0.00
   13    3   18      2.33      0.00
   14    3   18      1.63      0.00
   15    3   18      0.51      0.00
  -19    4   18     -2.72      0.00
  -18    4   18     -2.80      0.00
  -17    4   18     -1.52      0.00
  -16    4   18     -0.04      0.00
  -15    4   18      0.95      0.00
  -14    4   18      0.94      0.00
  -13    4   18      0.39      0.00
  -12    4   18      0.71      0.00
  -11    4   18      1.31      0.00
  -10    4   18     -0.28      0.00
   -9    4   18     -3.76      0.00
   -8    4   18     -5.50      0.00
   -7    4   18     -3.62      0.00
   -6    4   18     -0.26      0.00
   -5    4   18      2.25      0.00
   -4    4   18      4.43      0.00
   -3    4   18      6.71      0.00
   -2    4   18      6.14      0.00
   -1    4   18      0.68      0.00
    0    4   18     -5.53      0.00
    1    4   18     -6.76      0.00
    2    4   18     -3.54      0.00
    3    4   18     -0.64      0.00
    4    4   18     -0.24      0.00
    5    4   18     -0.86      0.00
    6    4   18     -0.71      0.00
    7    4   18      0.04      0.00
    8    4   18     -0.38      0.00
    9    4   18     -2.33      0.00
   10    4   18     -3.76      0.00
   11    4   18     -3.40      0.00
   12    4   18     -2.29      0.00
   13    4   18     -1.28      0.00
   14    4   18     -0.29      0.00
  -19    5   18     -0.52      0.00
  -18    5   18     -3.00      0.00
  -17    5   18     -3.27      0.00
  -16    5   18     -1.86      0.00
  -15    5   18     -1.40      0.00
  -14    5   18     -1.60      0.00
  -13    5   18     -0.38      0.00
  -12    5   18      1.68      0.00
  -11    5   18      2.41      0.00
  -10    5   18      1.82      0.00
   -9    5   18      1.33      0.00
   -8    5   18      1.05      0.00
   -7    5   18      0.28      0.00
   -6    5   18     -0.95      0.00
   -5    5   18     -2.20      0.00
   -4    5   18     -3.09      0.00
   -3    5   18     -3.39      0.00
   -2    5   18     -4.02      0.00
   -1    5   18     -5.65      0.00
    0    5   18     -5.57      0.00
    1    5   18     -0.86      0.00
    2    5   18      5.28      0.00
    3    5   18      6.77      0.00
    4    5   18      3.58      0.00
    5    5   18      0.79      0.00
    6    5   18      0.76      0.00
    7    5   18      1.38      0.00
    8    5   18      0.07      0.00
    9    5   18     -2.95      0.00
   10    5   18     -4.34      0.00
   11    5   18     -1.80      0.00
   12    5   18      1.60      0.00
   13    5   18      1.60      0.00
   14    5   18     -0.66      0.00
  -19    6   18      2.22      0.00
  -18    6   18      4.03      0.00
  -17    6   18      3.65      0.00
  -16    6   18      1.64      0.00
  -15    6   18      0.14      0.00
  -14    6   18     -0.59      0.00
  -13    6   18     -0.71      0.00
  -12    6   18      0.48      0.00
  -11    6   18      1.75      0.00
  -10    6   18      1.07      0.00
   -9    6   18      0.09      0.00
   -8    6   18      1.90      0.00
   -7    6   18      5.37      0.00
   -6    6   18      6.67      0.00
   -5    6   18      4.72      0.00
   -4    6   18      2.01      0.00
   -3    6   18      1.19      0.00
   -2    6   18      1.20      0.00
   -1    6   18     -1.83      0.00
    0    6   18     -7.62      0.00
    1    6   18     -9.79      0.00
    2    6   18     -5.11      0.00
    3    6   18      0.80      0.00
    4    6   18      1.96      0.00
    5    6   18     -0.09      0.00
    6    6   18     -0.96      0.00
    7    6   18     -0.28      0.00
    8    6   18     -0.08      0.00
    9    6   18     -0.92      0.00
   10    6   18     -2.04      0.00
   11    6   18     -2.86      0.00
   12    6   18     -2.78      0.00
   13    6   18     -1.41      0.00
   14    6   18      0.35      0.00
  -18    7   18     -0.11      0.00
  -17    7   18      1.14      0.00
  -16    7   18      1.39      0.00
  -15    7   18      0.95      0.00
  -14    7   18      1.63      0.00
  -13    7   18      2.68      0.00
  -12    7   18      2.27      0.00
  -11    7   18      1.20      0.00
  -10    7   18      0.86      0.00
   -9    7   18      0.87      0.00
   -8    7   18      1.15      0.00
   -7    7   18      2.61      0.00
   -6    7   18      4.46      0.00
   -5    7   18      4.06      0.00
   -4    7   18      0.85      0.00
   -3    7   18     -1.87      0.00
   -2    7   18     -1.06      0.00
   -1    7   18      1.38      0.00
    0    7   18      1.46      0.00
    1    7   18     -0.55      0.00
    2    7   18     -1.02      0.00
    3    7   18      0.59      0.00
    4    7   18      1.13      0.00
    5    7   18     -0.86      0.00
    6    7   18     -2.93      0.00
    7    7   18     -2.32      0.00
    8    7   18      0.08      0.00
    9    7   18      1.06      0.00
   10    7   18     -0.09      0.00
   11    7   18     -0.93      0.00
   12    7   18     -0.39      0.00
   13    7   18      0.08      0.00
  -18    8   18      0.13      0.00
  -17    8   18     -1.24      0.00
  -16    8   18     -1.28      0.00
  -15    8   18     -0.63      0.00
  -14    8   18     -1.00      0.00
  -13    8   18     -1.99      0.00
  -12    8   18     -1.95      0.00
  -11    8   18     -1.21      0.00
  -10    8   18     -1.18      0.00
   -9    8   18     -1.09      0.00
   -8    8   18      0.66      0.00
   -7    8   18      3.15      0.00
   -6    8   18      3.77      0.00
   -5    8   18      1.32      0.00
   -4    8   18     -2.86      0.00
   -3    8   18     -5.45      0.00
   -2    8   18     -3.88      0.00
   -1    8   18     -0.48      0.00
    0    8   18     -0.15      0.00
    1    8   18     -2.83      0.00
    2    8   18     -3.79      0.00
    3    8   18     -1.99      0.00
    4    8   18     -1.06      0.00
    5    8   18     -2.11      0.00
    6    8   18     -2.18      0.00
    7    8   18      0.09      0.00
    8    8   18      2.50      0.00
    9    8   18      2.76      0.00
   10    8   18      1.29      0.00
   11    8   18      0.10      0.00
   12    8   18      0.07      0.00
   13    8   18      0.25      0.00
  -17    9   18     -2.17      0.00
  -16    9   18     -2.00      0.00
  -15    9   18     -0.81      0.00
  -14    9   18      0.33      0.00
  -13    9   18      0.09      0.00
  -12    9   18     -0.82      0.00
  -11    9   18     -0.43      0.00
  -10    9   18      0.31      0.00
   -9    9   18     -1.10      0.00
   -8    9   18     -3.41      0.00
   -7    9   18     -3.24      0.00
   -6    9   18     -1.02      0.00
   -5    9   18      0.14      0.00
   -4    9   18     -0.57      0.00
   -3    9   18     -1.28      0.00
   -2    9   18      0.09      0.00
   -1    9   18      3.14      0.00
    0    9   18      4.38      0.00
    1    9   18      1.97      0.00
    2    9   18     -0.28      0.00
    3    9   18      1.29      0.00
    4    9   18      3.71      0.00
    5    9   18      2.70      0.00
    6    9   18     -0.47      0.00
    7    9   18     -2.50      0.00
    8    9   18     -3.02      0.00
    9    9   18     -2.73      0.00
   10    9   18     -1.37      0.00
   11    9   18      0.58      0.00
   12    9   18      1.59      0.00
  -16   10   18     -2.48      0.00
  -15   10   18     -1.94      0.00
  -14   10   18     -1.72      0.00
  -13   10   18     -1.30      0.00
  -12   10   18     -0.90      0.00
  -11   10   18     -0.95      0.00
  -10   10   18     -0.22      0.00
   -9   10   18      1.63      0.00
   -8   10   18      2.35      0.00
   -7   10   18      1.22      0.00
   -6   10   18      0.49      0.00
   -5   10   18      0.68      0.00
   -4   10   18     -0.33      0.00
   -3   10   18     -2.63      0.00
   -2   10   18     -3.60      0.00
   -1   10   18     -2.01      0.00
    0   10   18      0.14      0.00
    1   10   18      0.39      0.00
    2   10   18     -1.05      0.00
    3   10   18     -1.97      0.00
    4   10   18     -1.85      0.00
    5   10   18     -2.01      0.00
    6   10   18     -2.21      0.00
    7   10   18     -1.18      0.00
    8   10   18      0.24      0.00
    9   10   18      0.60      0.00
   10   10   18      0.43      0.00
   11   10   18      0.42      0.00
   12   10   18      0.31      0.00
  -16   11   18     -0.48      0.00
  -15   11   18      0.21      0.00
  -14   11   18      0.31      0.00
  -13   11   18     -0.51      0.00
  -12   11   18     -0.73      0.00
  -11   11   18      0.26      0.00
  -10   11   18      0.86      0.00
   -9   11   18      0.32      0.00
   -8   11   18     -0.15      0.00
   -7   11   18      0.15      0.00
   -6   11   18      0.69      0.00
   -5   11   18      1.16      0.00
   -4   11   18      1.20      0.00
   -3   11   18      0.33      0.00
   -2   11   18     -0.56      0.00
   -1   11   18     -0.28      0.00
    0   11   18      0.25      0.00
    1   11   18     -0.74      0.00
    2   11   18     -2.74      0.00
    3   11   18     -3.52      0.00
    4   11   18     -2.30      0.00
    5   11   18     -0.45      0.00
    6   11   18      0.69      0.00
    7   11   18      0.85      0.00
    8   11   18      0.06      0.00
    9   11   18     -1.10      0.00
   10   11   18     -1.18      0.00
   11   11   18      0.11      0.00
  -15   12   18     -3.51      0.00
  -14   12   18     -3.08      0.00
  -13   12   18     -1.16      0.00
  -12   12   18     -0.19      0.00
  -11   12   18     -0.89      0.00
  -10   12   18     -1.01      0.00
   -9   12   18      0.29      0.00
   -8   12   18      0.56      0.00
   -7   12   18     -1.10      0.00
   -6   12   18     -1.72      0.00
   -5   12   18      0.02      0.00
   -4   12   18      1.18      0.00
   -3   12   18     -0.30      0.00
   -2   12   18     -2.60      0.00
   -1   12   18     -3.44      0.00
    0   12   18     -3.05      0.00
    1   12   18     -3.01      0.00
    2   12   18     -3.65      0.00
    3   12   18     -3.47      0.00
    4   12   18     -1.43      0.00
    5   12   18      0.96      0.00
    6   12   18      1.60      0.00
    7   12   18      0.64      0.00
    8   12   18     -0.42      0.00
    9   12   18     -0.71      0.00
   10   12   18     -0.38      0.00
  -14   13   18     -0.51      0.00
  -13   13   18     -1.24      0.00
  -12   13   18     -0.52      0.00
  -11   13   18      1.04      0.00
  -10   13   18      1.31      0.00
   -9   13   18      0.58      0.00
   -8   13   18      0.39      0.00
   -7   13   18      0.10      0.00
   -6   13   18     -0.85      0.00
   -5   13   18     -0.85      0.00
   -4   13   18      0.29      0.00
   -3   13   18      0.64      0.00
   -2   13   18      0.16      0.00
   -1   13   18      0.08      0.00
    0   13   18     -0.14      0.00
    1   13   18     -1.15      0.00
    2   13   18     -2.02      0.00
    3   13   18     -1.99      0.00
    4   13   18     -1.45      0.00
    5   13   18     -0.80      0.00
    6   13   18     -0.13      0.00
    7   13   18      0.63      0.00
    8   13   18      1.20      0.00
    9   13   18      0.83      0.00
  -12   14   18     -0.62      0.00
  -11   14   18     -1.85      0.00
  -10   14   18     -2.57      0.00
   -9   14   18     -2.14      0.00
   -8   14   18     -1.26      0.00
   -7   14   18     -0.99      0.00
   -6   14   18     -1.26      0.00
   -5   14   18     -0.91      0.00
   -4   14   18     -0.01      0.00
   -3   14   18     -0.26      0.00
   -2   14   18     -1.73      0.00
   -1   14   18     -2.17      0.00
    0   14   18     -0.96      0.00
    1   14   18     -0.11      0.00
    2   14   18     -0.49      0.00
    3   14   18     -0.60      0.00
    4   14   18      0.32      0.00
    5   14   18      0.93      0.00
    6   14   18      0.12      0.00
  -11   15   18     -0.94      0.00
  -10   15   18     -0.73      0.00
   -9   15   18      0.35      0.00
   -8   15   18      1.98      0.00
   -7   15   18      2.76      0.00
   -6   15   18      2.15      0.00
   -5   15   18      1.35      0.00
   -4   15   18      1.24      0.00
   -3   15   18      1.21      0.00
   -2   15   18      0.94      0.00
   -1   15   18      0.94      0.00
    0   15   18      1.09      0.00
    1   15   18      0.83      0.00
    2   15   18      0.08      0.00
    3   15   18     -0.77      0.00
    4   15   18     -0.72      0.00
    5   15   18      0.98      0.00
    6   15   18      2.92      0.00
   -8   16   18      0.28      0.00
   -7   16   18      0.37      0.00
   -6   16   18     -0.10      0.00
   -5   16   18     -0.97      0.00
   -4   16   18     -1.81      0.00
   -3   16   18     -2.24      0.00
   -2   16   18     -1.70      0.00
   -1   16   18     -0.15      0.00
    0   16   18      1.04      0.00
    1   16   18      0.63      0.00
    2   16   18     -0.23      0.00
    3   16   18      0.20      0.00
    4   16   18      1.10      0.00
   -4   17   18      0.75      0.00
   -3   17   18      2.01      0.00
   -2   17   18      1.73      0.00
   -1   17   18      0.42      0.00
    0   17   18     -0.19      0.00
  -20    1   19     -2.25      0.00
  -19    1   19     -1.71      0.00
  -18    1   19     -0.63      0.00
  -17    1   19     -0.79      0.00
  -16    1   19     -1.19      0.00
  -15    1   19      0.18      0.00
  -14    1   19      1.96      0.00
  -13    1   19      0.86      0.00
  -12    1   19     -3.21      0.00
  -11    1   19     -6.55      0.00
  -10    1   19     -5.82      0.00
   -9    1   19     -1.91      0.00
   -8    1   19      0.85      0.00
   -7    1   19      0.28      0.00
   -6    1   19     -0.49      0.00
   -5    1   19      1.22      0.00
   -4    1   19      2.16      0.00
   -3    1   19     -1.11      0.00
   -2    1   19     -5.18      0.00
   -1    1   19     -3.98      0.00
    0    1   19      2.60      0.00
    1    1   19      8.50      0.00
    2    1   19      8.62      0.00
    3    1   19      4.35      0.00
    4    1   19      0.84      0.00
    5    1   19      0.08      0.00
    6    1   19     -0.10      0.00
    7    1   19     -0.80      0.00
    8    1   19     -0.75      0.00
    9    1   19      0.37      0.00
   10    1   19      1.64      0.00
   11    1   19      2.73      0.00
   12    1   19      3.33      0.00
   13    1   19      2.81      0.00
   14    1   19      1.36      0.00
  -19    2   19     -3.89      0.00
  -18    2   19     -1.65      0.00
  -17    2   19      0.29      0.00
  -16    2   19     -0.17      0.00
  -15    2   19     -1.33      0.00
  -14    2   19     -1.24      0.00
  -13    2   19     -0.84      0.00
  -12    2   19     -1.27      0.00
  -11    2   19     -1.23      0.00
  -10    2   19      0.87      0.00
   -9    2   19      4.09      0.00
   -8    2   19      5.02      0.00
   -7    2   19      0.58      0.00
   -6    2   19     -7.72      0.00
   -5    2   19    -13.01      0.00
   -4    2   19     -9.85      0.00
   -3    2   19     -1.22      0.00
   -2    2   19      5.24      0.00
   -1    2   19      6.50      0.00
    0    2   19      5.41      0.00
    1    2   19      4.33      0.00
    2    2   19      2.44      0.00
    3    2   19     -0.55      0.00
    4    2   19     -2.02      0.00
    5    2   19      0.09      0.00
    6    2   19      3.58      0.00
    7    2   19      4.76      0.00
    8    2   19      3.36      0.00
    9    2   19      1.79      0.00
   10    2   19      1.09      0.00
   11    2   19      0.68      0.00
   12    2   19      0.48      0.00
   13    2   19      0.88      0.00
   14    2   19      1.57      0.00
  -19    3   19     -0.95      0.00
  -18    3   19     -1.34      0.00
  -17    3   19     -1.14      0.00
  -16    3   19     -0.90      0.00
  -15    3   19     -0.42      0.00
  -14    3   19      0.35      0.00
  -13    3   19      0.96      0.00
  -12    3   19      1.45      0.00
  -11    3   19      1.81      0.00
  -10    3   19      1.29      0.00
   -9    3   19     -0.04      0.00
   -8    3   19     -0.95      0.00
   -7    3   19     -1.19      0.00
   -6    3   19     -1.43      0.00
   -5    3   19     -0.82      0.00
   -4    3   19      2.30      0.00
   -3    3   19      6.62      0.00
   -2    3   19      8.24      0.00
   -1    3   19      5.75      0.00
    0    3   19      1.81      0.00
    1    3   19     -1.18      0.00
    2    3   19     -3.15      0.00
    3    3   19     -4.00      0.00
    4    3   19     -3.06      0.00
    5    3   19     -1.18      0.00
    6    3   19      0.07      0.00
    7    3   19      0.20      0.00
    8    3   19     -0.77      0.00
    9    3   19     -2.27      0.00
   10    3   19     -2.57      0.00
   11    3   19     -0.89      0.00
   12    3   19      1.06      0.00
   13    3   19      1.61      0.00
   14    3   19      1.02      0.00
  -19    4   19      0.55      0.00
  -18    4   19     -1.22      0.00
  -17    4   19     -2.12      0.00
  -16    4   19     -1.53      0.00
  -15    4   19     -0.96      0.00
  -14    4   19     -0.84      0.00
  -13    4   19      0.21      0.00
  -12    4   19      2.24      0.00
  -11    4   19      3.48      0.00
  -10    4   19      3.38      0.00
   -9    4   19      2.86      0.00
   -8    4   19      1.96      0.00
   -7    4   19     -0.28      0.00
   -6    4   19     -3.54      0.00
   -5    4   19     -5.29      0.00
   -4    4   19     -3.42      0.00
   -3    4   19      0.25      0.00
   -2    4   19      1.28      0.00
   -1    4   19     -1.05      0.00
    0    4   19     -2.16      0.00
    1    4   19      0.54      0.00
    2    4   19      3.19      0.00
    3    4   19      1.65      0.00
    4    4   19     -2.16      0.00
    5    4   19     -3.91      0.00
    6    4   19     -2.62      0.00
    7    4   19     -0.63      0.00
    8    4   19     -0.69      0.00
    9    4   19     -3.48      0.00
   10    4   19     -5.90      0.00
   11    4   19     -4.18      0.00
   12    4   19      0.28      0.00
   14    4   19      1.06      0.00
  -19    5   19     -1.19      0.00
  -18    5   19     -0.41      0.00
  -17    5   19      0.33      0.00
  -16    5   19      0.53      0.00
  -15    5   19      0.56      0.00
  -14    5   19      0.04      0.00
  -13    5   19     -0.87      0.00
  -12    5   19     -0.44      0.00
  -11    5   19      1.14      0.00
  -10    5   19      1.27      0.00
   -9    5   19     -0.51      0.00
   -8    5   19     -1.71      0.00
   -7    5   19     -1.01      0.00
   -6    5   19      0.15      0.00
   -5    5   19      0.52      0.00
   -4    5   19      1.24      0.00
   -3    5   19      3.52      0.00
   -2    5   19      4.84      0.00
   -1    5   19      1.29      0.00
    0    5   19     -5.37      0.00
    1    5   19     -8.32      0.00
    2    5   19     -5.11      0.00
    3    5   19     -0.52      0.00
    4    5   19      1.09      0.00
    5    5   19      0.81      0.00
    6    5   19      1.39      0.00
    7    5   19      2.65      0.00
    8    5   19      2.69      0.00
    9    5   19      1.26      0.00
   10    5   19     -0.23      0.00
   11    5   19     -1.08      0.00
   12    5   19     -1.36      0.00
   13    5   19     -0.78      0.00
   14    5   19      0.34      0.00
  -18    6   19     -1.67      0.00
  -17    6   19     -0.83      0.00
  -16    6   19      0.61      0.00
  -15    6   19      0.81      0.00
  -14    6   19      0.63      0.00
  -13    6   19      1.29      0.00
  -12    6   19      1.71      0.00
  -11    6   19      0.77      0.00
  -10    6   19     -0.70      0.00
   -9    6   19     -1.63      0.00
   -8    6   19     -2.06      0.00
   -7    6   19     -1.86      0.00
   -6    6   19     -0.70      0.00
   -5    6   19      0.47      0.00
   -4    6   19      0.49      0.00
   -3    6   19      0.06      0.00
   -2    6   19      0.10      0.00
   -1    6   19     -0.34      0.00
    0    6   19     -1.18      0.00
    1    6   19     -0.21      0.00
    2    6   19      2.51      0.00
    3    6   19      3.78      0.00
    4    6   19      2.32      0.00
    5    6   19      0.26      0.00
    6    6   19     -0.26      0.00
    7    6   19      0.94      0.00
    8    6   19      2.16      0.00
    9    6   19      1.30      0.00
   10    6   19     -0.82      0.00
   11    6   19     -1.25      0.00
   12    6   19      0.24      0.00
   13    6   19      1.02      0.00
  -18    7   19      0.86      0.00
  -17    7   19      0.30      0.00
  -16    7   19     -0.63      0.00
  -15    7   19     -1.10      0.00
  -14    7   19     -1.64      0.00
  -13    7   19     -1.80      0.00
  -12    7   19     -0.13      0.00
  -11    7   19      2.03      0.00
  -10    7   19      2.00      0.00
   -9    7   19      0.91      0.00
   -8    7   19      1.81      0.00
   -7    7   19      4.01      0.00
   -6    7   19      4.43      0.00
   -5    7   19      2.07      0.00
   -4    7   19     -1.45      0.00
   -3    7   19     -3.17      0.00
   -2    7   19     -1.68      0.00
   -1    7   19     -0.05      0.00
    0    7   19     -1.54      0.00
    1    7   19     -3.18      0.00
    2    7   19     -0.60      0.00
    3    7   19      3.55      0.00
    4    7   19      3.92      0.00
    5    7   19      1.08      0.00
    6    7   19     -0.79      0.00
    7    7   19     -0.57      0.00
    8    7   19     -0.09      0.00
    9    7   19     -0.61      0.00
   10    7   19     -1.77      0.00
   11    7   19     -2.45      0.00
   12    7   19     -2.12      0.00
   13    7   19     -1.29      0.00
  -17    8   19     -0.97      0.00
  -16    8   19     -0.84      0.00
  -15    8   19     -0.32      0.00
  -14    8   19      0.83      0.00
  -13    8   19      0.96      0.00
  -12    8   19     -0.50      0.00
  -11    8   19     -1.55      0.00
  -10    8   19     -1.73      0.00
   -9    8   19     -2.49      0.00
   -8    8   19     -2.93      0.00
   -7    8   19     -0.93      0.00
   -6    8   19      2.16      0.00
   -5    8   19      3.19      0.00
   -4    8   19      1.60      0.00
   -3    8   19     -0.29      0.00
   -2    8   19     -0.17      0.00
   -1    8   19      1.35      0.00
    0    8   19      0.92      0.00
    1    8   19     -2.20      0.00
    2    8   19     -3.82      0.00
    3    8   19     -1.36      0.00
    4    8   19      1.50      0.00
    5    8   19      0.61      0.00
    6    8   19     -2.64      0.00
    7    8   19     -4.42      0.00
    8    8   19     -3.76      0.00
    9    8   19     -2.65      0.00
   10    8   19     -2.50      0.00
   11    8   19     -2.60      0.00
   12    8   19     -1.98      0.00
  -17    9   19     -1.65      0.00
  -16    9   19     -1.82      0.00
  -15    9   19     -1.02      0.00
  -14    9   19     -0.11      0.00
  -13    9   19      0.58      0.00
  -12    9   19      0.94      0.00
  -11    9   19      0.86      0.00
  -10    9   19      0.71      0.00
   -9    9   19      0.91      0.00
   -8    9   19      1.28      0.00
   -7    9   19      1.76      0.00
   -6    9   19      2.38      0.00
   -5    9   19      2.04      0.00
   -4    9   19     -0.51      0.00
   -3    9   19     -3.70      0.00
   -2    9   19     -3.85      0.00
   -1    9   19     -0.38      0.00
    0    9   19      2.89      0.00
    1    9   19      3.18      0.00
    2    9   19      2.11      0.00
    3    9   19      1.65      0.00
    4    9   19      0.47      0.00
    5    9   19     -2.60      0.00
    6    9   19     -5.07      0.00
    7    9   19     -3.93      0.00
    8    9   19     -0.16      0.00
    9    9   19      2.95      0.00
   10    9   19      3.83      0.00
   11    9   19      3.24      0.00
   12    9   19      2.35      0.00
  -16   10   19      0.44      0.00
  -15   10   19      2.00      0.00
  -14   10   19      2.24      0.00
  -13   10   19      0.59      0.00
  -12   10   19     -0.73      0.00
  -11   10   19      0.44      0.00
  -10   10   19      2.46      0.00
   -9   10   19      2.31      0.00
   -8   10   19      0.61      0.00
   -7   10   19      0.00      0.00
   -6   10   19      0.48      0.00
   -5   10   19      0.40      0.00
   -4   10   19     -0.50      0.00
   -3   10   19     -1.51      0.00
   -2   10   19     -1.73      0.00
   -1   10   19     -0.51      0.00
    0   10   19      0.75      0.00
    1   10   19     -0.07      0.00
    2   10   19     -1.77      0.00
    3   10   19     -1.38      0.00
    4   10   19      0.74      0.00
    5   10   19      1.95      0.00
    6   10   19      1.65      0.00
    7   10   19      0.74      0.00
    8   10   19     -0.63      0.00
    9   10   19     -2.01      0.00
   10   10   19     -1.86      0.00
   11   10   19      0.04      0.00
  -15   11   19     -1.48      0.00
  -14   11   19     -0.66      0.00
  -13   11   19      0.40      0.00
  -12   11   19      0.07      0.00
  -11   11   19     -1.96      0.00
  -10   11   19     -2.76      0.00
   -9   11   19     -0.94      0.00
   -8   11   19      0.31      0.00
   -7   11   19     -0.89      0.00
   -6   11   19     -1.76      0.00
   -5   11   19     -0.71      0.00
   -4   11   19     -0.15      0.00
   -3   11   19     -1.56      0.00
   -2   11   19     -3.14      0.00
   -1   11   19     -3.10      0.00
    0   11   19     -2.05      0.00
    1   11   19     -1.71      0.00
    2   11   19     -2.29      0.00
    3   11   19     -2.15      0.00
    4   11   19     -0.50      0.00
    5   11   19      1.22      0.00
    6   11   19      1.72      0.00
    7   11   19      1.28      0.00
    8   11   19      0.43      0.00
    9   11   19     -0.09      0.00
   10   11   19      0.36      0.00
  -14   12   19     -1.55      0.00
  -13   12   19     -1.80      0.00
  -12   12   19     -0.86      0.00
  -11   12   19      1.00      0.00
  -10   12   19      1.68      0.00
   -9   12   19      1.12      0.00
   -8   12   19      0.83      0.00
   -7   12   19      0.54      0.00
   -6   12   19     -0.40      0.00
   -5   12   19     -0.81      0.00
   -4   12   19     -0.18      0.00
   -3   12   19      0.17      0.00
   -2   12   19     -0.14      0.00
   -1   12   19     -0.06      0.00
    0   12   19      0.36      0.00
    1   12   19      0.16      0.00
    2   12   19     -0.62      0.00
    3   12   19     -1.03      0.00
    4   12   19     -0.75      0.00
    5   12   19     -0.35      0.00
    6   12   19      0.09      0.00
    7   12   19      1.08      0.00
    8   12   19      1.97      0.00
    9   12   19      1.48      0.00
  -13   13   19     -1.16      0.00
  -12   13   19     -0.67      0.00
  -11   13   19     -1.64      0.00
  -10   13   19     -2.20      0.00
   -9   13   19     -1.27      0.00
   -8   13   19     -0.27      0.00
   -7   13   19     -0.52      0.00
   -6   13   19     -0.86      0.00
   -5   13   19      0.16      0.00
   -4   13   19      1.53      0.00
   -3   13   19      1.41      0.00
   -2   13   19      0.08      0.00
   -1   13   19     -0.79      0.00
    0   13   19     -0.69      0.00
    1   13   19     -0.77      0.00
    2   13   19     -1.90      0.00
    3   13   19     -3.00      0.00
    4   13   19     -2.36      0.00
    5   13   19     -0.76      0.00
    6   13   19     -0.66      0.00
    7   13   19     -2.17      0.00
    8   13   19     -3.04      0.00
  -12   14   19     -1.22      0.00
  -11   14   19     -0.54      0.00
  -10   14   19     -0.44      0.00
   -9   14   19     -0.33      0.00
   -8   14   19      0.31      0.00
   -7   14   19      0.39      0.00
   -6   14   19     -0.35      0.00
   -5   14   19     -0.43      0.00
   -4   14   19      0.08      0.00
   -3   14   19     -0.43      0.00
   -2   14   19     -1.40      0.00
   -1   14   19     -1.33      0.00
    0   14   19     -1.03      0.00
    1   14   19     -1.62      0.00
    2   14   19     -2.23      0.00
    3   14   19     -2.10      0.00
    4   14   19     -1.34      0.00
    5   14   19      0.35      0.00
    6   14   19      2.34      0.00
    7   14   19      2.98      0.00
  -10   15   19     -0.14      0.00
   -9   15   19     -0.66      0.00
   -8   15   19     -0.53      0.00
   -7   15   19     -0.15      0.00
   -6   15   19     -0.42      0.00
   -5   15   19     -0.94      0.00
   -4   15   19     -1.01      0.00
   -3   15   19     -1.16      0.00
   -2   15   19     -1.35      0.00
   -1   15   19     -0.43      0.00
    0   15   19      0.80      0.00
    1   15   19      0.09      0.00
    2   15   19     -1.94      0.00
    3   15   19     -2.41      0.00
    4   15   19     -1.11      0.00
    5   15   19     -0.30      0.00
   -8   16   19      1.47      0.00
   -7   16   19      2.07      0.00
   -6   16   19      1.15      0.00
   -5   16   19      0.05      0.00
   -4   16   19      0.34      0.00
   -3   16   19      1.08      0.00
   -2   16   19      0.59      0.00
   -1   16   19     -0.53      0.00
    0   16   19     -0.62      0.00
    1   16   19      0.23      0.00
    2   16   19      0.46      0.00
    3   16   19     -0.49      0.00
  -19    0   20      0.22      0.00
  -18    0   20      1.04      0.00
  -17    0   20      0.23      0.00
  -16    0   20     -0.65      0.00
  -15    0   20      0.61      0.00
  -14    0   20      2.33      0.00
  -13    0   20      0.99      0.00
  -12    0   20     -3.65      0.00
  -11    0   20     -8.14      0.00
  -10    0   20     -8.77      0.00
   -9    0   20     -5.16      0.00
   -8    0   20     -0.87      0.00
   -7    0   20      1.91      0.00
   -6    0   20      5.89      0.00
   -5    0   20     11.79      0.00
   -4    0   20     13.25      0.00
   -3    0   20      5.83      0.00
   -2    0   20     -4.29      0.00
   -1    0   20     -7.53      0.00
    0    0   20     -2.08      0.00
    1    0   20      5.74      0.00
    2    0   20      9.20      0.00
    3    0   20      7.33      0.00
    4    0   20      3.96      0.00
    5    0   20      1.40      0.00
    6    0   20     -1.22      0.00
    7    0   20     -3.55      0.00
    8    0   20     -3.86      0.00
    9    0   20     -2.78      0.00
   10    0   20     -2.14      0.00
   11    0   20     -1.67      0.00
   12    0   20     -0.67      0.00
   13    0   20      0.09      0.00
   14    0   20     -0.12      0.00
  -19    1   20     -3.79      0.00
  -18    1   20     -2.84      0.00
  -17    1   20     -1.00      0.00
  -16    1   20     -0.28      0.00
  -15    1   20      0.12      0.00
  -14    1   20      1.17      0.00
  -13    1   20      1.36      0.00
  -12    1   20     -0.33      0.00
  -11    1   20     -1.82      0.00
  -10    1   20     -0.65      0.00
   -9    1   20      2.60      0.00
   -8    1   20      4.73      0.00
   -7    1   20      2.99      0.00
   -6    1   20     -2.02      0.00
   -5    1   20     -6.36      0.00
   -4    1   20     -6.86      0.00
   -3    1   20     -4.14      0.00
   -2    1   20     -1.03      0.00
   -1    1   20      0.85      0.00
    0    1   20      1.82      0.00
    1    1   20      2.32      0.00
    2    1   20      1.66      0.00
    3    1   20     -0.70      0.00
    4    1   20     -2.99      0.00
    5    1   20     -2.89      0.00
    6    1   20     -1.19      0.00
    7    1   20     -0.48      0.00
    8    1   20     -0.74      0.00
    9    1   20     -0.13      0.00
   10    1   20      1.03      0.00
   11    1   20      0.90      0.00
   12    1   20     -0.40      0.00
   13    1   20     -1.04      0.00
   14    1   20     -0.32      0.00
  -19    2   20     -0.25      0.00
  -18    2   20     -0.51      0.00
  -17    2   20     -1.05      0.00
  -16    2   20     -1.90      0.00
  -15    2   20     -1.82      0.00
  -14    2   20     -0.35      0.00
  -13    2   20      0.98      0.00
  -12    2   20      0.74      0.00
  -11    2   20     -0.46      0.00
  -10    2   20     -0.94      0.00
   -9    2   20      0.13      0.00
   -8    2   20      1.58      0.00
   -7    2   20      1.56      0.00
   -6    2   20      0.45      0.00
   -5    2   20      0.34      0.00
   -4    2   20      1.24      0.00
   -3    2   20      0.89      0.00
   -2    2   20     -1.35      0.00
   -1    2   20     -3.44      0.00
    0    2   20     -3.85      0.00
    1    2   20     -3.61      0.00
    2    2   20     -4.38      0.00
    3    2   20     -5.50      0.00
    4    2   20     -4.89      0.00
    5    2   20     -2.53      0.00
    6    2   20     -0.69      0.00
    7    2   20     -0.63      0.00
    8    2   20     -1.50      0.00
    9    2   20     -1.86      0.00
   10    2   20     -0.77      0.00
   11    2   20      1.55      0.00
   12    2   20      3.38      0.00
   13    2   20      3.40      0.00
   14    2   20      2.13      0.00
  -19    3   20     -0.18      0.00
  -18    3   20      0.72      0.00
  -17    3   20      1.33      0.00
  -16    3   20      0.99      0.00
  -15    3   20      0.33      0.00
  -14    3   20      0.21      0.00
  -13    3   20      0.26      0.00
  -12    3   20     -0.62      0.00
  -11    3   20     -2.29      0.00
  -10    3   20     -2.89      0.00
   -9    3   20     -0.99      0.00
   -8    3   20      1.78      0.00
   -7    3   20      1.64      0.00
   -6    3   20     -2.37      0.00
   -5    3   20     -5.72      0.00
   -4    3   20     -3.62      0.00
   -3    3   20      2.14      0.00
   -2    3   20      5.81      0.00
   -1    3   20      5.87      0.00
    0    3   20      5.73      0.00
    1    3   20      6.79      0.00
    2    3   20      6.05      0.00
    3    3   20      1.95      0.00
    4    3   20     -2.24      0.00
    5    3   20     -2.83      0.00
    6    3   20     -0.44      0.00
    7    3   20      1.87      0.00
    8    3   20      2.33      0.00
    9    3   20      0.78      0.00
   10    3   20     -1.57      0.00
   11    3   20     -2.27      0.00
   12    3   20     -0.47      0.00
   13    3   20      1.52      0.00
   14    3   20      1.77      0.00
  -19    4   20     -0.61      0.00
  -18    4   20     -0.29      0.00
  -17    4   20      0.27      0.00
  -16    4   20      0.32      0.00
  -15    4   20      0.34      0.00
  -14    4   20      0.59      0.00
  -13    4   20      0.60      0.00
  -12    4   20      0.84      0.00
  -11    4   20      1.86      0.00
  -10    4   20      2.38      0.00
   -9    4   20      1.20      0.00
   -8    4   20     -0.62      0.00
   -7    4   20     -1.86      0.00
   -6    4   20     -3.07      0.00
   -5    4   20     -4.23      0.00
   -4    4   20     -3.05      0.00
   -3    4   20      1.50      0.00
   -2    4   20      6.05      0.00
   -1    4   20      6.44      0.00
    0    4   20      2.87      0.00
    1    4   20     -1.06      0.00
    2    4   20     -2.95      0.00
    3    4   20     -3.05      0.00
    4    4   20     -2.38      0.00
    5    4   20     -1.40      0.00
    6    4   20     -0.10      0.00
    7    4   20      1.01      0.00
    8    4   20      0.99      0.00
    9    4   20     -0.07      0.00
   10    4   20     -0.92      0.00
   11    4   20     -1.15      0.00
   12    4   20     -1.25      0.00
   13    4   20     -1.12      0.00
  -19    5   20     -0.50      0.00
  -18    5   20     -2.17      0.00
  -17    5   20     -2.24      0.00
  -16    5   20     -0.30      0.00
  -15    5   20      0.75      0.00
  -14    5   20     -0.03      0.00
  -13    5   20     -0.64      0.00
  -12    5   20     -0.53      0.00
  -11    5   20     -1.17      0.00
  -10    5   20     -2.51      0.00
   -9    5   20     -3.31      0.00
   -8    5   20     -3.58      0.00
   -7    5   20     -3.70      0.00
   -6    5   20     -3.14      0.00
   -5    5   20     -1.40      0.00
   -4    5   20      1.26      0.00
   -3    5   20      3.80      0.00
   -2    5   20      4.14      0.00
   -1    5   20      1.62      0.00
    0    5   20     -0.64      0.00
    1    5   20      0.24      0.00
    2    5   20      2.10      0.00
    3    5   20      1.28      0.00
    4    5   20     -1.65      0.00
    5    5   20     -3.66      0.00
    6    5   20     -3.23      0.00
    7    5   20     -0.90      0.00
    8    5   20      0.80      0.00
    9    5   20     -0.79      0.00
   10    5   20     -3.99      0.00
   11    5   20     -4.01      0.00
   12    5   20     -0.40      0.00
   13    5   20      2.15      0.00
  -18    6   20     -0.33      0.00
  -17    6   20     -0.56      0.00
  -16    6   20     -0.63      0.00
  -15    6   20     -0.28      0.00
  -14    6   20     -0.69      0.00
  -13    6   20     -1.39      0.00
  -12    6   20     -0.10      0.00
  -11    6   20      2.32      0.00
  -10    6   20      2.57      0.00
   -9    6   20      0.74      0.00
   -8    6   20     -0.43      0.00
   -7    6   20     -0.46      0.00
   -6    6   20     -0.79      0.00
   -5    6   20     -1.77      0.00
   -4    6   20     -2.29      0.00
   -3    6   20     -0.83      0.00
   -2    6   20      1.90      0.00
   -1    6   20      1.97      0.00
    0    6   20     -1.91      0.00
    1    6   20     -4.51      0.00
    2    6   20     -1.80      0.00
    3    6   20      2.31      0.00
    4    6   20      2.69      0.00
    5    6   20      0.57      0.00
    6    6   20     -0.21      0.00
    7    6   20      0.61      0.00
    8    6   20      0.81      0.00
    9    6   20     -0.35      0.00
   10    6   20     -1.57      0.00
   11    6   20     -1.76      0.00
   12    6   20     -1.13      0.00
   13    6   20     -0.22      0.00
  -18    7   20      0.00      0.00
  -17    7   20      0.93      0.00
  -16    7   20      1.18      0.00
  -15    7   20      0.65      0.00
  -14    7   20      0.68      0.00
  -13    7   20      1.24      0.00
  -12    7   20      1.26      0.00
  -11    7   20      0.67      0.00
  -10    7   20     -0.02      0.00
   -9    7   20     -0.65      0.00
   -8    7   20     -0.68      0.00
   -7    7   20      0.53      0.00
   -6    7   20      2.42      0.00
   -5    7   20      3.54      0.00
   -4    7   20      3.20      0.00
   -3    7   20      2.33      0.00
   -2    7   20      2.00      0.00
   -1    7   20      1.44      0.00
    0    7   20     -0.62      0.00
    1    7   20     -2.99      0.00
    2    7   20     -3.21      0.00
    3    7   20     -1.32      0.00
    4    7   20      0.44      0.00
    5    7   20      0.79      0.00
    6    7   20      0.49      0.00
    7    7   20      0.96      0.00
    8    7   20      2.34      0.00
    9    7   20      2.90      0.00
   10    7   20      1.50      0.00
   11    7   20     -0.42      0.00
   12    7   20     -0.98      0.00
  -17    8   20      1.93      0.00
  -16    8   20      1.62      0.00
  -15    8   20      1.14      0.00
  -14    8   20      0.59      0.00
  -13    8   20      0.21      0.00
  -12    8   20      0.56      0.00
  -11    8   20      1.06      0.00
  -10    8   20      0.33      0.00
   -9    8   20     -1.02      0.00
   -8    8   20     -0.88      0.00
   -7    8   20      1.25      0.00
   -6    8   20      3.75      0.00
   -5    8   20      4.35      0.00
   -4    8   20      1.78      0.00
   -3    8   20     -1.93      0.00
   -2    8   20     -2.81      0.00
   -1    8   20     -0.82      0.00
    0    8   20      0.14      0.00
    1    8   20     -0.66      0.00
    2    8   20     -0.32      0.00
    3    8   20      1.05      0.00
    4    8   20      0.24      0.00
    5    8   20     -3.06      0.00
    6    8   20     -5.41      0.00
    7    8   20     -4.19      0.00
    8    8   20     -0.30      0.00
    9    8   20      3.15      0.00
   10    8   20      4.04      0.00
   11    8   20      2.97      0.00
   12    8   20      1.63      0.00
  -17    9   20     -0.67      0.00
  -16    9   20     -0.05      0.00
  -15    9   20      1.11      0.00
  -14    9   20      1.58      0.00
  -13    9   20      0.06      0.00
  -12    9   20     -1.84      0.00
  -11    9   20     -1.16      0.00
  -10    9   20      0.86      0.00
   -9    9   20      0.48      0.00
   -8    9   20     -1.45      0.00
   -7    9   20     -1.20      0.00
   -6    9   20      0.93      0.00
   -5    9   20      1.90      0.00
   -4    9   20      1.08      0.00
   -3    9   20      0.03      0.00
   -2    9   20      0.33      0.00
   -1    9   20      1.96      0.00
    0    9   20      2.46      0.00
    1    9   20      0.30      0.00
    2    9   20     -1.56      0.00
    3    9   20      0.01      0.00
    4    9   20      2.97      0.00
    5    9   20      3.63      0.00
    6    9   20      2.03      0.00
    7    9   20      0.32      0.00
    8    9   20     -0.64      0.00
    9    9   20     -1.17      0.00
   10    9   20     -1.23      0.00
   11    9   20     -0.36      0.00
  -16   10   20     -1.41      0.00
  -15   10   20     -0.55      0.00
  -14   10   20      0.94      0.00
  -13   10   20      2.28      0.00
  -12   10   20      1.86      0.00
  -11   10   20     -0.48      0.00
  -10   10   20     -2.20      0.00
   -9   10   20     -1.86      0.00
   -8   10   20     -1.34      0.00
   -7   10   20     -1.77      0.00
   -6   10   20     -1.47      0.00
   -5   10   20      0.14      0.00
   -4   10   20      0.85      0.00
   -3   10   20     -0.35      0.00
   -2   10   20     -1.14      0.00
   -1   10   20      0.44      0.00
    0   10   20      2.75      0.00
    1   10   20      3.00      0.00
    2   10   20      1.63      0.00
    3   10   20      0.87      0.00
    4   10   20      0.35      0.00
    5   10   20     -1.74      0.00
    6   10   20     -4.53      0.00
    7   10   20     -5.60      0.00
    8   10   20     -4.56      0.00
    9   10   20     -2.53      0.00
   10   10   20     -0.46      0.00
  -15   11   20      0.85      0.00
  -14   11   20      0.87      0.00
  -13   11   20     -0.29      0.00
  -12   11   20     -0.71      0.00
  -11   11   20      0.79      0.00
  -10   11   20      2.45      0.00
   -9   11   20      2.42      0.00
   -8   11   20      1.43      0.00
   -7   11   20      0.76      0.00
   -6   11   20      0.09      0.00
   -5   11   20     -0.78      0.00
   -4   11   20     -1.17      0.00
   -3   11   20     -1.30      0.00
   -2   11   20     -1.66      0.00
   -1   11   20     -1.18      0.00
    0   11   20      0.81      0.00
    1   11   20      2.61      0.00
    2   11   20      2.81      0.00
    3   11   20      2.38      0.00
    4   11   20      2.13      0.00
    5   11   20      1.35      0.00
    6   11   20      0.23      0.00
    7   11   20     -0.02      0.00
    8   11   20      0.19      0.00
    9   11   20     -0.44      0.00
   10   11   20     -1.17      0.00
  -14   12   20      0.55      0.00
  -13   12   20      1.43      0.00
  -12   12   20      0.80      0.00
  -11   12   20     -1.49      0.00
  -10   12   20     -2.48      0.00
   -9   12   20     -0.65      0.00
   -8   12   20      1.12      0.00
   -7   12   20      0.55      0.00
   -6   12   20     -0.37      0.00
   -5   12   20      0.19      0.00
   -4   12   20      0.85      0.00
   -3   12   20      0.23      0.00
   -2   12   20     -0.98      0.00
   -1   12   20     -1.74      0.00
    0   12   20     -1.76      0.00
    1   12   20     -1.54      0.00
    2   12   20     -2.05      0.00
    3   12   20     -2.82      0.00
    4   12   20     -2.03      0.00
    5   12   20      0.42      0.00
    6   12   20      2.14      0.00
    7   12   20      1.66      0.00
    8   12   20      0.07      0.00
    9   12   20     -0.72      0.00
  -13   13   20     -1.03      0.00
  -12   13   20      0.23      0.00
  -11   13   20      1.48      0.00
  -10   13   20      1.32      0.00
   -9   13   20      0.47      0.00
   -8   13   20      0.06      0.00
   -7   13   20     -0.72      0.00
   -6   13   20     -1.91      0.00
   -5   13   20     -1.71      0.00
   -4   13   20     -0.41      0.00
   -3   13   20     -0.33      0.00
   -2   13   20     -1.43      0.00
   -1   13   20     -2.08      0.00
    0   13   20     -2.55      0.00
    1   13   20     -3.42      0.00
    2   13   20     -3.61      0.00
    3   13   20     -2.63      0.00
    4   13   20     -1.55      0.00
    5   13   20     -0.88      0.00
    6   13   20     -0.04      0.00
    7   13   20      1.02      0.00
  -11   14   20      0.04      0.00
  -10   14   20     -0.15      0.00
   -9   14   20     -0.34      0.00
   -8   14   20     -0.17      0.00
   -7   14   20     -0.14      0.00
   -6   14   20     -0.66      0.00
   -5   14   20     -0.75      0.00
   -4   14   20      0.18      0.00
   -3   14   20      1.03      0.00
   -2   14   20      1.14      0.00
   -1   14   20      1.21      0.00
    0   14   20      1.17      0.00
    1   14   20     -0.28      0.00
    2   14   20     -2.91      0.00
    3   14   20     -4.30      0.00
    4   14   20     -3.15      0.00
    5   14   20     -1.35      0.00
    6   14   20     -0.99      0.00
  -10   15   20     -0.68      0.00
   -9   15   20     -0.30      0.00
   -8   15   20      1.14      0.00
   -7   15   20      2.07      0.00
   -6   15   20      1.53      0.00
   -5   15   20      1.05      0.00
   -4   15   20      1.63      0.00
   -3   15   20      1.72      0.00
   -2   15   20      0.51      0.00
   -1   15   20     -0.45      0.00
    0   15   20     -0.08      0.00
    1   15   20      0.91      0.00
    2   15   20      1.29      0.00
    3   15   20      0.33      0.00
    4   15   20     -1.00      0.00
   -7   16   20      0.79      0.00
   -6   16   20      1.16      0.00
   -5   16   20      0.93      0.00
   -4   16   20      0.03      0.00
   -3   16   20     -1.25      0.00
   -2   16   20     -1.53      0.00
   -1   16   20      0.12      0.00
    0   16   20      1.79      0.00
    1   16   20      1.01      0.00
  -19    1   21      1.54      0.00
  -18    1   21      1.69      0.00
  -17    1   21      0.25      0.00
  -16    1   21     -1.47      0.00
  -15    1   21     -1.56      0.00
  -14    1   21     -0.33      0.00
  -13    1   21      0.30      0.00
  -12    1   21     -0.62      0.00
  -11    1   21     -2.33      0.00
  -10    1   21     -2.95      0.00
   -9    1   21     -1.49      0.00
   -8    1   21      0.32      0.00
   -7    1   21      0.89      0.00
   -6    1   21      2.39      0.00
   -5    1   21      6.33      0.00
   -4    1   21      8.19      0.00
   -3    1   21      3.21      0.00
   -2    1   21     -5.56      0.00
   -1    1   21    -10.83      0.00
    0    1   21     -9.66      0.00
    1    1   21     -5.05      0.00
    2    1   21     -1.33      0.00
    3    1   21      0.21      0.00
    4    1   21      1.15      0.00
    5    1   21      1.90      0.00
    6    1   21      1.11      0.00
    7    1   21     -0.73      0.00
    8    1   21     -1.65      0.00
    9    1   21     -1.42      0.00
   10    1   21     -0.79      0.00
   11    1   21      0.49      0.00
   12    1   21      2.10      0.00
   13    1   21      2.71      0.00
  -19    2   21     -3.48      0.00
  -18    2   21     -2.22      0.00
  -17    2   21     -0.12      0.00
  -16    2   21      0.54      0.00
  -15    2   21      0.71      0.00
  -14    2   21      1.56      0.00
  -13    2   21      1.17      0.00
  -12    2   21     -2.27      0.00
  -11    2   21     -6.70      0.00
  -10    2   21     -7.90      0.00
   -9    2   21     -4.05      0.00
   -8    2   21      1.97      0.00
   -7    2   21      4.89      0.00
   -6    2   21      2.79      0.00
   -5    2   21     -0.62      0.00
   -4    2   21     -1.24      0.00
   -3    2   21      0.35      0.00
   -2    2   21      1.29      0.00
   -1    2   21      1.29      0.00
    0    2   21      2.42      0.00
    1    2   21      5.10      0.00
    2    2   21      6.37      0.00
    3    2   21      3.84      0.00
    4    2   21      0.06      0.00
    5    2   21     -0.72      0.00
    6    2   21      1.06      0.00
    7    2   21      1.99      0.00
    8    2   21      1.59      0.00
    9    2   21      1.43      0.00
   10    2   21      1.14      0.00
   11    2   21     -0.08      0.00
   12    2   21     -1.22      0.00
   13    2   21     -1.21      0.00
  -19    3   21     -0.72      0.00
  -18    3   21     -1.01      0.00
  -17    3   21     -1.05      0.00
  -16    3   21     -2.13      0.00
  -15    3   21     -3.30      0.00
  -14    3   21     -2.64      0.00
  -13    3   21     -0.94      0.00
  -12    3   21      0.02      0.00
  -11    3   21      0.41      0.00
  -10    3   21      1.14      0.00
   -9    3   21      2.06      0.00
   -8    3   21      2.57      0.00
   -7    3   21      1.84      0.00
   -6    3   21     -0.74      0.00
   -5    3   21     -3.80      0.00
   -4    3   21     -4.62      0.00
   -3    3   21     -2.25      0.00
   -2    3   21      1.44      0.00
   -1    3   21      4.01      0.00
    0    3   21      4.37      0.00
    1    3   21      2.84      0.00
    2    3   21      0.57      0.00
    3    3   21     -1.11      0.00
    4    3   21     -1.14      0.00
    5    3   21      0.54      0.00
    6    3   21      2.51      0.00
    7    3   21      2.83      0.00
    8    3   21      1.25      0.00
    9    3   21     -0.21      0.00
   10    3   21      0.11      0.00
   11    3   21      1.20      0.00
   12    3   21      1.17      0.00
   13    3   21      0.13      0.00
  -19    4   21      2.03      0.00
  -18    4   21      1.46      0.00
  -17    4   21      0.77      0.00
  -16    4   21      0.72      0.00
  -15    4   21      0.23      0.00
  -14    4   21     -0.86      0.00
  -13    4   21     -1.13      0.00
  -12    4   21     -0.74      0.00
  -11    4   21     -1.15      0.00
  -10    4   21     -1.66      0.00
   -9    4   21     -0.28      0.00
   -8    4   21      2.56      0.00
   -7    4   21      3.99      0.00
   -6    4   21      2.52      0.00
   -5    4   21      0.32      0.00
   -4    4   21      0.55      0.00
   -3    4   21      2.68      0.00
   -2    4   21      2.95      0.00
   -1    4   21      0.46      0.00
    0    4   21     -1.16      0.00
    1    4   21     -0.07      0.00
    2    4   21      0.67      0.00
    3    4   21     -1.35      0.00
    4    4   21     -4.14      0.00
    5    4   21     -4.97      0.00
    6    4   21     -3.62      0.00
    7    4   21     -1.15      0.00
    8    4   21      0.57      0.00
    9    4   21     -0.82      0.00
   10    4   21     -4.50      0.00
   11    4   21     -5.66      0.00
   12    4   21     -2.33      0.00
   13    4   21      1.38      0.00
  -18    5   21     -0.06      0.00
  -17    5   21     -1.12      0.00
  -16    5   21     -1.72      0.00
  -15    5   21     -1.08      0.00
  -14    5   21     -0.37      0.00
  -13    5   21     -0.44      0.00
  -12    5   21      0.04      0.00
  -11    5   21      1.43      0.00
  -10    5   21      1.82      0.00
   -9    5   21      0.57      0.00
   -8    5   21     -0.72      0.00
   -7    5   21     -1.32      0.00
   -6    5   21     -2.20      0.00
   -5    5   21     -3.57      0.00
   -4    5   21     -3.60      0.00
   -3    5   21     -0.62      0.00
   -2    5   21      3.84      0.00
   -1    5   21      5.57      0.00
    0    5   21      2.91      0.00
    1    5   21     -0.74      0.00
    2    5   21     -1.81      0.00
    3    5   21     -1.10      0.00
    4    5   21     -1.22      0.00
    5    5   21     -2.13      0.00
    6    5   21     -1.88      0.00
    7    5   21     -0.31      0.00
    8    5   21      0.68      0.00
    9    5   21      0.09      0.00
   10    5   21     -1.05      0.00
   11    5   21     -1.56      0.00
   13    5   21     -0.71      0.00
  -18    6   21      0.78      0.00
  -17    6   21      1.02      0.00
  -16    6   21      1.38      0.00
  -15    6   21      0.55      0.00
  -14    6   21     -0.98      0.00
  -13    6   21     -1.59      0.00
  -12    6   21     -1.34      0.00
  -11    6   21     -1.47      0.00
  -10    6   21     -1.95      0.00
   -9    6   21     -2.10      0.00
   -8    6   21     -2.10      0.00
   -7    6   21     -2.21      0.00
   -6    6   21     -1.88      0.00
   -5    6   21     -0.82      0.00
   -4    6   21      0.67      0.00
   -3    6   21      2.10      0.00
   -2    6   21      2.37      0.00
   -1    6   21      0.60      0.00
    0    6   21     -1.83      0.00
    1    6   21     -2.61      0.00
    2    6   21     -1.78      0.00
    3    6   21     -0.97      0.00
    4    6   21     -0.52      0.00
    5    6   21      0.15      0.00
    6    6   21      1.34      0.00
    7    6   21      3.26      0.00
    8    6   21      5.09      0.00
    9    6   21      4.62      0.00
   10    6   21      1.55      0.00
   11    6   21     -1.10      0.00
   12    6   21     -1.08      0.00
  -18    7   21     -0.97      0.00
  -17    7   21     -0.11      0.00
  -16    7   21      0.67      0.00
  -15    7   21      1.03      0.00
  -14    7   21      0.12      0.00
  -13    7   21     -1.28      0.00
  -12    7   21     -1.04      0.00
  -11    7   21      0.24      0.00
  -10    7   21     -0.12      0.00
   -9    7   21     -1.93      0.00
   -8    7   21     -2.73      0.00
   -7    7   21     -1.81      0.00
   -6    7   21     -0.01      0.00
   -5    7   21      1.48      0.00
   -4    7   21      1.56      0.00
   -3    7   21      1.25      0.00
   -2    7   21      2.52      0.00
   -1    7   21      3.68      0.00
    0    7   21      1.91      0.00
    1    7   21     -0.40      0.00
    2    7   21      0.48      0.00
    3    7   21      2.43      0.00
    4    7   21      1.45      0.00
    5    7   21     -1.49      0.00
    6    7   21     -2.77      0.00
    7    7   21     -1.41      0.00
    8    7   21      0.74      0.00
    9    7   21      1.68      0.00
   10    7   21      1.16      0.00
   11    7   21      0.38      0.00
   12    7   21      0.15      0.00
  -17    8   21     -1.38      0.00
  -16    8   21     -1.63      0.00
  -15    8   21     -1.73      0.00
  -14    8   21     -1.56      0.00
  -13    8   21     -1.90      0.00
  -12    8   21     -2.27      0.00
  -11    8   21     -1.21      0.00
  -10    8   21      0.19      0.00
   -9    8   21     -0.41      0.00
   -8    8   21     -1.91      0.00
   -7    8   21     -1.58      0.00
   -6    8   21      0.22      0.00
   -5    8   21      1.19      0.00
   -4    8   21      0.68      0.00
   -3    8   21      0.00      0.00
   -2    8   21      0.52      0.00
   -1    8   21      1.40      0.00
    0    8   21      0.10      0.00
    1    8   21     -3.30      0.00
    2    8   21     -5.06      0.00
    3    8   21     -3.25      0.00
    4    8   21     -0.27      0.00
    5    8   21      1.28      0.00
    6    8   21      1.33      0.00
    7    8   21      0.78      0.00
    8    8   21      0.19      0.00
    9    8   21     -0.52      0.00
   10    8   21     -1.64      0.00
   11    8   21     -2.47      0.00
  -16    9   21      0.73      0.00
  -15    9   21      0.29      0.00
  -14    9   21      0.46      0.00
  -13    9   21      0.98      0.00
  -12    9   21      0.81      0.00
  -11    9   21     -0.48      0.00
  -10    9   21     -2.21      0.00
   -9    9   21     -3.36      0.00
   -8    9   21     -3.38      0.00
   -7    9   21     -2.13      0.00
   -6    9   21      0.41      0.00
   -5    9   21      3.11      0.00
   -4    9   21      3.52      0.00
   -3    9   21      1.21      0.00
   -2    9   21     -0.54      0.00
   -1    9   21      0.56      0.00
    0    9   21      2.05      0.00
    1    9   21      1.40      0.00
    2    9   21      0.30      0.00
    3    9   21      0.71      0.00
    4    9   21      0.73      0.00
    5    9   21     -1.84      0.00
    6    9   21     -5.32      0.00
    7    9   21     -6.32      0.00
    8    9   21     -3.87      0.00
    9    9   21      0.06      0.00
   10    9   21      2.86      0.00
   11    9   21      3.26      0.00
  -16   10   21      0.59      0.00
  -15   10   21      1.82      0.00
  -14   10   21      2.48      0.00
  -13   10   21      1.38      0.00
  -12   10   21      0.03      0.00
  -11   10   21      1.21      0.00
  -10   10   21      3.55      0.00
   -9   10   21      3.04      0.00
   -8   10   21      0.15      0.00
   -7   10   21     -1.18      0.00
   -6   10   21     -0.53      0.00
   -5   10   21     -0.30      0.00
   -4   10   21     -0.90      0.00
   -3   10   21     -1.45      0.00
   -2   10   21     -1.59      0.00
   -1   10   21     -0.64      0.00
    0   10   21      1.23      0.00
    1   10   21      2.14      0.00
    2   10   21      1.54      0.00
    3   10   21      1.08      0.00
    4   10   21      1.09      0.00
    5   10   21      0.25      0.00
    6   10   21     -1.26      0.00
    7   10   21     -1.80      0.00
    8   10   21     -1.16      0.00
    9   10   21     -0.75      0.00
   10   10   21     -0.94      0.00
  -15   11   21      1.40      0.00
  -14   11   21      1.99      0.00
  -13   11   21      2.50      0.00
  -12   11   21      1.39      0.00
  -11   11   21     -1.50      0.00
  -10   11   21     -2.92      0.00
   -9   11   21     -1.15      0.00
   -8   11   21      0.72      0.00
   -7   11   21      0.32      0.00
   -6   11   21     -0.34      0.00
   -5   11   21      0.41      0.00
   -4   11   21      0.90      0.00
   -3   11   21     -0.16      0.00
   -2   11   21     -1.41      0.00
   -1   11   21     -1.35      0.00
    0   11   21     -0.43      0.00
    1   11   21     -0.05      0.00
    2   11   21     -0.63      0.00
    3   11   21     -1.17      0.00
    4   11   21     -0.75      0.00
    5   11   21      0.34      0.00
    6   11   21      1.15      0.00
    7   11   21      0.81      0.00
    8   11   21     -0.61      0.00
    9   11   21     -1.51      0.00
  -14   12   21      0.30      0.00
  -13   12   21     -0.26      0.00
  -12   12   21      0.06      0.00
  -11   12   21      0.99      0.00
  -10   12   21      1.01      0.00
   -9   12   21      0.18      0.00
   -8   12   21     -0.35      0.00
   -7   12   21     -0.78      0.00
   -6   12   21     -1.61      0.00
   -5   12   21     -1.78      0.00
   -4   12   21     -0.85      0.00
   -3   12   21     -0.40      0.00
   -2   12   21     -1.14      0.00
   -1   12   21     -1.39      0.00
    0   12   21     -0.15      0.00
    1   12   21      1.43      0.00
    2   12   21      2.50      0.00
    3   12   21      3.25      0.00
    4   12   21      3.20      0.00
    5   12   21      1.72      0.00
    6   12   21      0.18      0.00
    7   12   21      0.31      0.00
    8   12   21      1.19      0.00
  -12   13   21      0.36      0.00
  -11   13   21     -0.27      0.00
  -10   13   21     -0.68      0.00
   -9   13   21     -0.29      0.00
   -8   13   21      0.17      0.00
   -7   13   21     -0.22      0.00
   -6   13   21     -0.85      0.00
   -5   13   21     -0.60      0.00
   -4   13   21      0.61      0.00
   -3   13   21      2.11      0.00
   -2   13   21      3.13      0.00
   -1   13   21      3.35      0.00
    0   13   21      3.26      0.00
    1   13   21      2.92      0.00
    2   13   21      1.38      0.00
    3   13   21     -1.00      0.00
    4   13   21     -2.04      0.00
    5   13   21     -1.34      0.00
    6   13   21     -0.91      0.00
    7   13   21     -1.38      0.00
  -11   14   21      0.48      0.00
  -10   14   21     -0.22      0.00
   -9   14   21     -0.43      0.00
   -8   14   21      0.15      0.00
   -7   14   21     -0.06      0.00
   -6   14   21     -1.09      0.00
   -5   14   21     -0.67      0.00
   -4   14   21      1.16      0.00
   -3   14   21      1.59      0.00
   -2   14   21      0.02      0.00
   -1   14   21     -1.46      0.00
    0   14   21     -1.73      0.00
    1   14   21     -0.74      0.00
    2   14   21      1.16      0.00
    3   14   21      2.32      0.00
    4   14   21      1.61      0.00
    5   14   21      0.57      0.00
   -9   15   21     -0.28      0.00
   -8   15   21     -0.60      0.00
   -7   15   21     -0.72      0.00
   -6   15   21     -0.83      0.00
   -5   15   21     -0.48      0.00
   -4   15   21      0.25      0.00
   -3   15   21      0.50      0.00
   -2   15   21      0.72      0.00
   -1   15   21      1.96      0.00
    0   15   21      2.61      0.00
    1   15   21      0.28      0.00
    2   15   21     -3.33      0.00
    3   15   21     -4.24      0.00
   -5   16   21     -1.60      0.00
   -4   16   21     -1.62      0.00
   -3   16   21     -0.88      0.00
   -2   16   21     -1.22      0.00
   -1   16   21     -1.67      0.00
    0   16   21     -0.60      0.00
  -19    0   22      4.84      0.00
  -18    0   22      6.29      0.00
  -17    0   22      4.35      0.00
  -16    0   22      1.45      0.00
  -15    0   22      0.20      0.00
  -14    0   22      0.24      0.00
  -13    0   22      0.63      0.00
  -12    0   22      1.19      0.00
  -11    0   22      1.36      0.00
  -10    0   22      1.05      0.00
   -9    0   22      0.89      0.00
   -8    0   22     -0.14      0.00
   -7    0   22     -2.45      0.00
   -6    0   22     -1.91      0.00
   -5    0   22      4.25      0.00
   -4    0   22     10.08      0.00
   -3    0   22      7.91      0.00
   -2    0   22     -0.60      0.00
   -1    0   22     -7.17      0.00
    0    0   22     -7.31      0.00
    1    0   22     -3.39      0.00
    2    0   22      0.39      0.00
    3    0   22      2.96      0.00
    4    0   22      5.22      0.00
    5    0   22      5.89      0.00
    6    0   22      3.26      0.00
    7    0   22     -0.38      0.00
    8    0   22     -1.87      0.00
    9    0   22     -2.16      0.00
   10    0   22     -3.01      0.00
   11    0   22     -3.14      0.00
   12    0   22     -1.58      0.00
   13    0   22      0.21      0.00
  -19    1   22     -2.37      0.00
  -18    1   22     -1.83      0.00
  -17    1   22     -0.41      0.00
  -16    1   22      0.36      0.00
  -15    1   22      1.21      0.00
  -14    1   22      2.60      0.00
  -13    1   22      2.65      0.00
  -12    1   22      0.10      0.00
  -11    1   22     -3.29      0.00
  -10    1   22     -4.56      0.00
   -9    1   22     -2.40      0.00
   -8    1   22      1.52      0.00
   -7    1   22      4.05      0.00
   -6    1   22      4.03      0.00
   -5    1   22      3.00      0.00
   -4    1   22      2.09      0.00
   -3    1   22      0.71      0.00
   -2    1   22     -1.40      0.00
   -1    1   22     -2.94      0.00
    0    1   22     -2.31      0.00
    1    1   22      0.49      0.00
    2    1   22      2.94      0.00
    3    1   22      2.42      0.00
    4    1   22     -0.07      0.00
    5    1   22     -1.48      0.00
    6    1   22     -1.66      0.00
    7    1   22     -2.34      0.00
    8    1   22     -3.01      0.00
    9    1   22     -2.23      0.00
   10    1   22     -0.99      0.00
   11    1   22     -1.05      0.00
   12    1   22     -2.05      0.00
   13    1   22     -2.54      0.00
  -19    2   22     -0.14      0.00
  -18    2   22     -0.73      0.00
  -17    2   22     -1.25      0.00
  -16    2   22     -2.31      0.00
  -15    2   22     -3.05      0.00
  -14    2   22     -1.95      0.00
  -13    2   22      0.28      0.00
  -12    2   22      1.68      0.00
  -11    2   22      2.10      0.00
  -10    2   22      2.83      0.00
   -9    2   22      4.08      0.00
   -8    2   22      4.30      0.00
   -7    2   22      2.31      0.00
   -6    2   22     -0.48      0.00
   -5    2   22     -1.87      0.00
   -4    2   22     -2.28      0.00
   -3    2   22     -3.50      0.00
   -2    2   22     -5.15      0.00
   -1    2   22     -5.47      0.00
    0    2   22     -4.25      0.00
    1    2   22     -2.62      0.00
    2    2   22     -1.59      0.00
    3    2   22     -1.39      0.00
    4    2   22     -1.21      0.00
    5    2   22     -0.26      0.00
    6    2   22      0.53      0.00
    7    2   22     -0.30      0.00
    8    2   22     -2.26      0.00
    9    2   22     -3.15      0.00
   10    2   22     -1.69      0.00
   11    2   22      0.88      0.00
   12    2   22      2.17      0.00
   13    2   22      1.57      0.00
  -19    3   22      0.15      0.00
  -18    3   22      0.55      0.00
  -17    3   22      1.24      0.00
  -16    3   22      1.20      0.00
  -15    3   22      0.37      0.00
  -14    3   22     -0.18      0.00
  -13    3   22     -0.15      0.00
  -12    3   22     -1.02      0.00
  -11    3   22     -3.53      0.00
  -10    3   22     -5.23      0.00
   -9    3   22     -2.72      0.00
   -8    3   22      3.23      0.00
   -7    3   22      7.41      0.00
   -6    3   22      6.40      0.00
   -5    3   22      2.79      0.00
   -4    3   22      0.92      0.00
   -3    3   22      0.69      0.00
   -2    3   22     -1.07      0.00
   -1    3   22     -4.43      0.00
    0    3   22     -5.62      0.00
    1    3   22     -2.81      0.00
    2    3   22      0.59      0.00
    3    3   22      0.83      0.00
    4    3   22     -0.77      0.00
    5    3   22     -0.66      0.00
    6    3   22      1.11      0.00
    7    3   22      2.25      0.00
    8    3   22      2.15      0.00
    9    3   22      0.99      0.00
   10    3   22     -1.24      0.00
   11    3   22     -2.82      0.00
   12    3   22     -1.83      0.00
   13    3   22      0.30      0.00
  -18    4   22      1.11      0.00
  -17    4   22      0.59      0.00
  -16    4   22     -0.53      0.00
  -15    4   22     -0.97      0.00
  -14    4   22      0.20      0.00
  -13    4   22      1.56      0.00
  -12    4   22      1.81      0.00
  -11    4   22      1.55      0.00
  -10    4   22      1.39      0.00
   -9    4   22      1.41      0.00
   -8    4   22      2.10      0.00
   -7    4   22      2.88      0.00
   -6    4   22      1.76      0.00
   -5    4   22     -1.47      0.00
   -4    4   22     -3.87      0.00
   -3    4   22     -2.77      0.00
   -2    4   22      1.29      0.00
   -1    4   22      5.19      0.00
    0    4   22      6.13      0.00
    1    4   22      4.19      0.00
    2    4   22      1.66      0.00
    3    4   22     -0.06      0.00
    4    4   22     -1.07      0.00
    5    4   22     -1.12      0.00
    6    4   22      0.12      0.00
    7    4   22      1.35      0.00
    8    4   22      1.06      0.00
    9    4   22     -0.02      0.00
   10    4   22     -0.47      0.00
   11    4   22     -0.59      0.00
   12    4   22     -1.18      0.00
  -18    5   22      2.60      0.00
  -17    5   22      2.38      0.00
  -16    5   22      2.26      0.00
  -15    5   22      1.01      0.00
  -14    5   22     -1.11      0.00
  -13    5   22     -1.94      0.00
  -12    5   22     -1.39      0.00
  -11    5   22     -1.12      0.00
  -10    5   22     -1.02      0.00
   -9    5   22      0.06      0.00
   -8    5   22      1.56      0.00
   -7    5   22      1.94      0.00
   -6    5   22      0.70      0.00
   -5    5   22     -1.04      0.00
   -4    5   22     -1.33      0.00
   -3    5   22      0.02      0.00
   -2    5   22      0.55      0.00
   -1    5   22     -0.87      0.00
    0    5   22     -1.84      0.00
    1    5   22     -0.95      0.00
    2    5   22     -0.31      0.00
    3    5   22     -1.22      0.00
    4    5   22     -2.17      0.00
    5    5   22     -2.14      0.00
    6    5   22     -1.49      0.00
    7    5   22      0.15      0.00
    8    5   22      2.38      0.00
    9    5   22      2.48      0.00
   10    5   22     -0.62      0.00
   12    5   22     -2.57      0.00
  -18    6   22     -0.38      0.00
  -17    6   22     -0.70      0.00
  -16    6   22     -0.06      0.00
  -15    6   22      1.40      0.00
  -14    6   22      1.38      0.00
  -13    6   22     -0.46      0.00
  -12    6   22     -1.52      0.00
  -11    6   22     -1.12      0.00
  -10    6   22     -1.15      0.00
   -9    6   22     -1.79      0.00
   -8    6   22     -1.68      0.00
   -7    6   22     -0.78      0.00
   -6    6   22      0.10      0.00
   -5    6   22      0.43      0.00
   -4    6   22      0.19      0.00
   -3    6   22      0.68      0.00
   -2    6   22      2.76      0.00
   -1    6   22      3.95      0.00
    0    6   22      1.85      0.00
    1    6   22     -1.00      0.00
    2    6   22     -1.04      0.00
    3    6   22      0.31      0.00
    4    6   22     -0.31      0.00
    5    6   22     -2.54      0.00
    6    6   22     -3.45      0.00
    7    6   22     -2.05      0.00
    8    6   22     -0.27      0.00
    9    6   22     -0.19      0.00
   10    6   22     -1.37      0.00
   11    6   22     -1.86      0.00
   12    6   22     -1.03      0.00
  -17    7   22     -0.87      0.00
  -16    7   22     -1.87      0.00
  -15    7   22     -2.70      0.00
  -14    7   22     -2.83      0.00
  -13    7   22     -1.95      0.00
  -12    7   22     -0.14      0.00
  -11    7   22      1.80      0.00
  -10    7   22      2.64      0.00
   -9    7   22      1.94      0.00
   -8    7   22      0.53      0.00
   -7    7   22     -0.67      0.00
   -6    7   22     -1.37      0.00
   -5    7   22     -1.50      0.00
   -4    7   22     -0.96      0.00
   -3    7   22      0.24      0.00
   -2    7   22      1.63      0.00
   -1    7   22      1.88      0.00
    0    7   22      0.07      0.00
    1    7   22     -2.38      0.00
    2    7   22     -3.13      0.00
    3    7   22     -1.88      0.00
    4    7   22     -0.01      0.00
    5    7   22      1.57      0.00
    6    7   22      2.79      0.00
    7    7   22      3.64      0.00
    8    7   22      3.86      0.00
    9    7   22      2.90      0.00
   10    7   22      0.72      0.00
   11    7   22     -1.29      0.00
  -17    8   22      2.36      0.00
  -16    8   22      2.63      0.00
  -15    8   22      1.43      0.00
  -14    8   22     -0.34      0.00
  -13    8   22     -1.68      0.00
  -12    8   22     -1.76      0.00
  -11    8   22     -1.14      0.00
  -10    8   22     -1.28      0.00
   -9    8   22     -2.06      0.00
   -8    8   22     -2.13      0.00
   -7    8   22     -1.05      0.00
   -6    8   22      1.10      0.00
   -5    8   22      3.67      0.00
   -4    8   22      4.60      0.00
   -3    8   22      3.11      0.00
   -2    8   22      1.53      0.00
   -1    8   22      0.95      0.00
    0    8   22     -0.58      0.00
    1    8   22     -3.03      0.00
    2    8   22     -3.54      0.00
    3    8   22     -1.73      0.00
    4    8   22     -0.35      0.00
    5    8   22     -0.71      0.00
    6    8   22     -1.43      0.00
    7    8   22     -0.83      0.00
    8    8   22      1.26      0.00
    9    8   22      3.41      0.00
   10    8   22      4.12      0.00
   11    8   22      3.13      0.00
  -16    9   22     -0.28      0.00
  -15    9   22      0.15      0.00
  -14    9   22      0.62      0.00
  -13    9   22     -0.52      0.00
  -12    9   22     -2.20      0.00
  -11    9   22     -1.05      0.00
  -10    9   22      1.89      0.00
   -9    9   22      1.91      0.00
   -8    9   22     -1.00      0.00
   -7    9   22     -2.21      0.00
   -6    9   22     -0.64      0.00
   -5    9   22      0.68      0.00
   -4    9   22      0.25      0.00
   -3    9   22     -0.50      0.00
   -2    9   22      0.00      0.00
   -1    9   22      1.42      0.00
    0    9   22      1.76      0.00
    1    9   22      0.19      0.00
    2    9   22     -1.45      0.00
    3    9   22     -1.48      0.00
    4    9   22     -0.64      0.00
    5    9   22     -0.05      0.00
    6    9   22      0.36      0.00
    7    9   22      1.08      0.00
    8    9   22      2.07      0.00
    9    9   22      2.47      0.00
   10    9   22      1.63      0.00
  -15   10   22     -0.36      0.00
  -14   10   22     -0.21      0.00
  -13   10   22      0.78      0.00
  -12   10   22      0.93      0.00
  -11   10   22     -0.47      0.00
  -10   10   22     -1.58      0.00
   -9   10   22     -1.12      0.00
   -8   10   22     -0.38      0.00
   -7   10   22     -0.39      0.00
   -6   10   22      0.20      0.00
   -5   10   22      2.17      0.00
   -4   10   22      3.46      0.00
   -3   10   22      2.45      0.00
   -2   10   22      1.07      0.00
   -1   10   22      1.32      0.00
    0   10   22      1.46      0.00
    1   10   22     -0.60      0.00
    2   10   22     -2.95      0.00
    3   10   22     -2.83      0.00
    4   10   22     -1.21      0.00
    5   10   22     -0.56      0.00
    6   10   22     -1.20      0.00
    7   10   22     -2.29      0.00
    8   10   22     -3.18      0.00
    9   10   22     -2.92      0.00
  -14   11   22      1.30      0.00
  -13   11   22      0.62      0.00
  -12   11   22     -0.06      0.00
  -11   11   22      0.33      0.00
  -10   11   22      0.80      0.00
   -9   11   22     -0.25      0.00
   -8   11   22     -1.87      0.00
   -7   11   22     -2.14      0.00
   -6   11   22     -1.48      0.00
   -5   11   22     -0.93      0.00
   -4   11   22     -0.19      0.00
   -3   11   22      0.39      0.00
   -2   11   22     -0.04      0.00
   -1   11   22     -0.10      0.00
    0   11   22      1.69      0.00
    1   11   22      3.54      0.00
    2   11   22      3.55      0.00
    3   11   22      2.74      0.00
    4   11   22      1.88      0.00
    5   11   22     -0.06      0.00
    6   11   22     -2.43      0.00
    7   11   22     -3.01      0.00
    8   11   22     -1.88      0.00
  -13   12   22      2.64      0.00
  -12   12   22      2.36      0.00
  -11   12   22      0.87      0.00
  -10   12   22      0.11      0.00
   -9   12   22      1.29      0.00
   -8   12   22      2.49      0.00
   -7   12   22      2.16      0.00
   -6   12   22      1.39      0.00
   -5   12   22      1.11      0.00
   -4   12   22      0.88      0.00
   -3   12   22      0.75      0.00
   -2   12   22      0.99      0.00
   -1   12   22      1.45      0.00
    0   12   22      2.57      0.00
    1   12   22      4.33      0.00
    2   12   22      4.65      0.00
    3   12   22      2.43      0.00
    4   12   22     -0.03      0.00
    5   12   22     -0.39      0.00
    6   12   22      0.57      0.00
    7   12   22      1.00      0.00
  -12   13   22      0.66      0.00
  -11   13   22      0.96      0.00
  -10   13   22      0.13      0.00
   -9   13   22     -0.55      0.00
   -8   13   22     -0.38      0.00
   -7   13   22     -0.79      0.00
   -6   13   22     -1.85      0.00
   -5   13   22     -1.46      0.00
   -4   13   22      0.22      0.00
   -3   13   22      0.38      0.00
   -2   13   22     -1.60      0.00
   -1   13   22     -3.51      0.00
    0   13   22     -3.84      0.00
    1   13   22     -2.43      0.00
    2   13   22      0.39      0.00
    3   13   22      2.90      0.00
    4   13   22      3.00      0.00
    5   13   22      1.22      0.00
    6   13   22      0.02      0.00
  -10   14   22      0.43      0.00
   -9   14   22      0.08      0.00
   -8   14   22     -0.68      0.00
   -7   14   22     -1.42      0.00
   -6   14   22     -1.68      0.00
   -5   14   22     -0.96      0.00
   -4   14   22      0.35      0.00
   -3   14   22      1.35      0.00
   -2   14   22      2.01      0.00
   -1   14   22      2.65      0.00
    0   14   22      2.49      0.00
    1   14   22      0.51      0.00
    2   14   22     -2.37      0.00
    3   14   22     -3.59      0.00
    4   14   22     -2.21      0.00
   -8   15   22      0.70      0.00
   -7   15   22      1.21      0.00
   -6   15   22      0.27      0.00
   -5   15   22     -0.32      0.00
   -4   15   22      1.25      0.00
   -3   15   22      3.05      0.00
   -2   15   22      2.64      0.00
   -1   15   22      0.99      0.00
    0   15   22      0.53      0.00
    1   15   22      1.81      0.00
    2   15   22      3.27      0.00
  -19    1   23      2.71      0.00
  -18    1   23      3.74      0.00
  -17    1   23      2.60      0.00
  -16    1   23      0.62      0.00
  -15    1   23     -0.61      0.00
  -14    1   23     -0.71      0.00
  -13    1   23      0.14      0.00
  -12    1   23      1.58      0.00
  -11    1   23      2.73      0.00
  -10    1   23      3.25      0.00
   -9    1   23      3.12      0.00
   -8    1   23      0.89      0.00
   -7    1   23     -3.84      0.00
   -6    1   23     -6.81      0.00
   -5    1   23     -3.93      0.00
   -4    1   23      1.52      0.00
   -3    1   23      2.99      0.00
   -2    1   23     -0.17      0.00
   -1    1   23     -3.35      0.00
    0    1   23     -3.71      0.00
    1    1   23     -2.43      0.00
    2    1   23     -1.41      0.00
    3    1   23     -0.55      0.00
    4    1   23      1.08      0.00
    5    1   23      2.42      0.00
    6    1   23      1.72      0.00
    7    1   23     -0.09      0.00
    8    1   23     -0.96      0.00
    9    1   23     -0.98      0.00
   10    1   23     -0.86      0.00
   11    1   23     -0.15      0.00
   12    1   23      0.94      0.00
  -19    2   23     -0.67      0.00
  -18    2   23      0.38      0.00
  -17    2   23      1.82      0.00
  -16    2   23      2.08      0.00
  -15    2   23      1.93      0.00
  -14    2   23      2.45      0.00
  -13    2   23      2.84      0.00
  -12    2   23      1.49      0.00
  -11    2   23     -1.76      0.00
  -10    2   23     -4.57      0.00
   -9    2   23     -3.74      0.00
   -8    2   23      0.48      0.00
   -7    2   23      3.83      0.00
   -6    2   23      3.85      0.00
   -5    2   23      2.73      0.00
   -4    2   23      2.46      0.00
   -3    2   23      1.44      0.00
   -2    2   23     -2.22      0.00
   -1    2   23     -6.97      0.00
    0    2   23     -8.65      0.00
    1    2   23     -5.08      0.00
    2    2   23      0.45      0.00
    3    2   23      2.83      0.00
    4    2   23      2.09      0.00
    5    2   23      1.82      0.00
    6    2   23      2.28      0.00
    7    2   23      1.39      0.00
    8    2   23      0.03      0.00
    9    2   23     -0.09      0.00
   10    2   23      0.06      0.00
   11    2   23     -0.53      0.00
   12    2   23     -0.94      0.00
  -18    3   23     -1.68      0.00
  -17    3   23     -0.85      0.00
  -16    3   23     -0.86      0.00
  -15    3   23     -1.45      0.00
  -14    3   23     -0.65      0.00
  -13    3   23      0.57      0.00
  -12    3   23     -0.05      0.00
  -11    3   23     -1.72      0.00
  -10    3   23     -2.27      0.00
   -9    3   23     -1.19      0.00
   -8    3   23      0.63      0.00
   -7    3   23      1.84      0.00
   -6    3   23      1.33      0.00
   -5    3   23     -0.53      0.00
   -4    3   23     -2.34      0.00
   -3    3   23     -2.95      0.00
   -2    3   23     -1.56      0.00
   -1    3   23      1.34      0.00
    0    3   23      3.66      0.00
    1    3   23      4.35      0.00
    2    3   23      4.20      0.00
    3    3   23      3.37      0.00
    4    3   23      1.85      0.00
    5    3   23      1.40      0.00
    6    3   23      2.72      0.00
    7    3   23      3.17      0.00
    8    3   23      1.04      0.00
    9    3   23     -1.19      0.00
   10    3   23     -0.90      0.00
   11    3   23      0.62      0.00
   12    3   23      0.67      0.00
  -18    4   23      1.19      0.00
  -17    4   23      1.65      0.00
  -16    4   23      1.81      0.00
  -15    4   23      0.44      0.00
  -14    4   23     -1.31      0.00
  -13    4   23     -1.06      0.00
  -12    4   23      0.45      0.00
  -11    4   23      0.92      0.00
  -10    4   23      0.93      0.00
   -9    4   23      2.77      0.00
   -8    4   23      6.09      0.00
   -7    4   23      7.69      0.00
   -6    4   23      5.20      0.00
   -5    4   23      0.29      0.00
   -4    4   23     -2.94      0.00
   -3    4   23     -3.27      0.00
   -2    4   23     -3.54      0.00
   -1    4   23     -5.10      0.00
    0    4   23     -5.23      0.00
    1    4   23     -2.23      0.00
    2    4   23      1.12      0.00
    3    4   23      1.94      0.00
    4    4   23      1.32      0.00
    5    4   23      1.38      0.00
    6    4   23      1.91      0.00
    7    4   23      2.17      0.00
    8    4   23      2.35      0.00
    9    4   23      1.72      0.00
   10    4   23     -0.82      0.00
   11    4   23     -3.39      0.00
   12    4   23     -3.10      0.00
  -18    5   23      0.40      0.00
  -17    5   23     -0.93      0.00
  -16    5   23     -1.67      0.00
  -15    5   23     -0.95      0.00
  -14    5   23     -0.02      0.00
  -13    5   23     -0.22      0.00
  -12    5   23     -0.88      0.00
  -11    5   23     -1.01      0.00
  -10    5   23     -0.86      0.00
   -9    5   23     -0.21      0.00
   -8    5   23      1.79      0.00
   -7    5   23      4.33      0.00
   -6    5   23      5.12      0.00
   -5    5   23      3.14      0.00
   -4    5   23     -0.21      0.00
   -3    5   23     -2.20      0.00
   -2    5   23     -1.27      0.00
   -1    5   23      0.81      0.00
    0    5   23      1.01      0.00
    1    5   23     -0.69      0.00
    2    5   23     -1.75      0.00
    3    5   23     -1.57      0.00
    4    5   23     -1.93      0.00
    5    5   23     -3.09      0.00
    6    5   23     -3.29      0.00
    7    5   23     -1.95      0.00
    8    5   23     -0.62      0.00
    9    5   23     -0.58      0.00
   10    5   23     -1.33      0.00
   11    5   23     -1.68      0.00
   12    5   23     -1.23      0.00
  -17    6   23      1.28      0.00
  -16    6   23     -0.07      0.00
  -15    6   23     -1.27      0.00
  -14    6   23     -2.00      0.00
  -13    6   23     -1.27      0.00
  -12    6   23      0.67      0.00
  -11    6   23      2.14      0.00
  -10    6   23      2.45      0.00
   -9    6   23      2.40      0.00
   -8    6   23      2.35      0.00
   -7    6   23      1.61      0.00
   -6    6   23     -0.24      0.00
   -5    6   23     -2.31      0.00
   -4    6   23     -3.03      0.00
   -3    6   23     -2.20      0.00
   -2    6   23     -1.40      0.00
   -1    6   23     -1.50      0.00
    0    6   23     -1.58      0.00
    1    6   23     -1.08      0.00
    2    6   23     -0.65      0.00
    3    6   23     -0.30      0.00
    4    6   23      0.54      0.00
    5    6   23      1.37      0.00
    6    6   23      1.54      0.00
    7    6   23      1.86      0.00
    8    6   23      2.93      0.00
    9    6   23      3.27      0.00
   11    6   23     -1.09      0.00
  -17    7   23      1.29      0.00
  -16    7   23      1.94      0.00
  -15    7   23      2.08      0.00
  -14    7   23      0.82      0.00
  -13    7   23     -1.28      0.00
  -12    7   23     -2.18      0.00
  -11    7   23     -1.68      0.00
  -10    7   23     -1.31      0.00
   -9    7   23     -1.17      0.00
   -8    7   23     -0.62      0.00
   -7    7   23     -0.11      0.00
   -6    7   23      0.40      0.00
   -5    7   23      1.40      0.00
   -4    7   23      2.11      0.00
   -3    7   23      2.06      0.00
   -2    7   23      2.14      0.00
   -1    7   23      1.91      0.00
    0    7   23      0.01      0.00
    1    7   23     -2.08      0.00
    2    7   23     -1.79      0.00
    3    7   23      0.13      0.00
    4    7   23      1.15      0.00
    5    7   23      0.69      0.00
    6    7   23      0.18      0.00
    7    7   23      0.83      0.00
    8    7   23      2.22      0.00
    9    7   23      2.77      0.00
   10    7   23      1.88      0.00
   11    7   23      0.61      0.00
  -16    8   23     -2.03      0.00
  -15    8   23     -1.68      0.00
  -14    8   23     -0.84      0.00
  -13    8   23     -0.85      0.00
  -12    8   23     -1.19      0.00
  -11    8   23      0.00      0.00
  -10    8   23      1.98      0.00
   -9    8   23      1.95      0.00
   -8    8   23     -0.28      0.00
   -7    8   23     -2.05      0.00
   -6    8   23     -1.90      0.00
   -5    8   23     -0.98      0.00
   -4    8   23     -0.56      0.00
   -3    8   23     -0.12      0.00
   -2    8   23      1.37      0.00
   -1    8   23      2.77      0.00
    0    8   23      1.80      0.00
    1    8   23     -0.90      0.00
    2    8   23     -2.52      0.00
    3    8   23     -2.55      0.00
    4    8   23     -2.46      0.00
    5    8   23     -2.23      0.00
    6    8   23     -1.02      0.00
    7    8   23      0.71      0.00
    8    8   23      1.76      0.00
    9    8   23      1.42      0.00
   10    8   23     -0.16      0.00
  -16    9   23     -0.32      0.00
  -15    9   23     -2.33      0.00
  -14    9   23     -3.82      0.00
  -13    9   23     -3.75      0.00
  -12    9   23     -2.54      0.00
  -11    9   23     -1.28      0.00
  -10    9   23     -0.67      0.00
   -9    9   23     -0.47      0.00
   -8    9   23     -0.45      0.00
   -7    9   23     -0.88      0.00
   -6    9   23     -0.93      0.00
   -5    9   23      0.55      0.00
   -4    9   23      2.16      0.00
   -3    9   23      1.85      0.00
   -2    9   23      1.05      0.00
   -1    9   23      1.40      0.00
    0    9   23      0.65      0.00
    1    9   23     -2.55      0.00
    2    9   23     -4.60      0.00
    3    9   23     -2.56      0.00
    4    9   23      1.12      0.00
    5    9   23      2.88      0.00
    6    9   23      2.30      0.00
    7    9   23      0.71      0.00
    8    9   23     -0.75      0.00
    9    9   23     -1.15      0.00
  -15   10   23      0.88      0.00
  -14   10   23      1.62      0.00
  -13   10   23      0.91      0.00
  -12   10   23     -0.89      0.00
  -11   10   23     -0.80      0.00
  -10   10   23      1.10      0.00
   -9   10   23      0.90      0.00
   -8   10   23     -1.76      0.00
   -7   10   23     -2.98      0.00
   -6   10   23     -1.79      0.00
   -5   10   23     -0.67      0.00
   -4   10   23     -0.49      0.00
   -3   10   23     -0.60      0.00
   -2   10   23     -0.83      0.00
   -1   10   23     -0.62      0.00
    0   10   23      0.27      0.00
    1   10   23      0.46      0.00
    2   10   23     -0.72      0.00
    3   10   23     -1.78      0.00
    4   10   23     -1.86      0.00
    5   10   23     -1.89      0.00
    6   10   23     -2.23      0.00
    7   10   23     -1.73      0.00
    8   10   23      0.02      0.00
    9   10   23      1.41      0.00
  -14   11   23     -0.31      0.00
  -13   11   23      1.15      0.00
  -12   11   23      1.69      0.00
  -11   11   23      0.43      0.00
  -10   11   23     -0.39      0.00
   -9   11   23      0.52      0.00
   -8   11   23      1.26      0.00
   -7   11   23      0.67      0.00
   -6   11   23      0.25      0.00
   -5   11   23      0.68      0.00
   -4   11   23      0.68      0.00
   -3   11   23     -0.19      0.00
   -2   11   23     -0.80      0.00
   -1   11   23     -0.69      0.00
    0   11   23     -0.45      0.00
    1   11   23     -0.49      0.00
    2   11   23     -0.80      0.00
    3   11   23     -1.39      0.00
    4   11   23     -1.91      0.00
    5   11   23     -1.59      0.00
    6   11   23     -0.42      0.00
    7   11   23      0.29      0.00
    8   11   23     -0.17      0.00
  -13   12   23     -0.32      0.00
  -12   12   23      0.19      0.00
  -11   12   23      0.87      0.00
  -10   12   23      0.71      0.00
   -9   12   23      0.22      0.00
   -8   12   23      0.36      0.00
   -7   12   23      0.62      0.00
   -6   12   23      0.30      0.00
   -5   12   23      0.28      0.00
   -4   12   23      1.17      0.00
   -3   12   23      1.36      0.00
   -2   12   23     -0.20      0.00
   -1   12   23     -1.68      0.00
    0   12   23     -1.54      0.00
    1   12   23     -0.65      0.00
    2   12   23      0.39      0.00
    3   12   23      2.00      0.00
    4   12   23      3.15      0.00
    5   12   23      2.52      0.00
    6   12   23      1.30      0.00
    7   12   23      1.04      0.00
  -11   13   23      0.15      0.00
  -10   13   23      0.13      0.00
   -9   13   23      0.00      0.00
   -8   13   23     -0.36      0.00
   -7   13   23     -0.71      0.00
   -6   13   23     -0.51      0.00
   -5   13   23     -0.01      0.00
   -4   13   23      0.25      0.00
   -3   13   23      0.64      0.00
   -2   13   23      1.53      0.00
   -1   13   23      2.63      0.00
    0   13   23      3.82      0.00
    1   13   23      4.58      0.00
    2   13   23      3.55      0.00
    3   13   23      0.87      0.00
    4   13   23     -1.17      0.00
    5   13   23     -1.55      0.00
   -9   14   23     -0.12      0.00
   -8   14   23      0.36      0.00
   -7   14   23      0.41      0.00
   -6   14   23     -0.70      0.00
   -5   14   23     -0.80      0.00
   -4   14   23      1.42      0.00
   -3   14   23      3.68      0.00
   -2   14   23      3.50      0.00
   -1   14   23      1.44      0.00
    0   14   23      0.06      0.00
    1   14   23      1.39      0.00
    2   14   23      4.59      0.00
    3   14   23      6.15      0.00
   -7   15   23     -1.44      0.00
   -6   15   23     -1.79      0.00
   -5   15   23     -0.64      0.00
   -4   15   23      0.99      0.00
   -3   15   23      1.28      0.00
   -2   15   23      0.80      0.00
   -1   15   23      1.17      0.00
    0   15   23      1.61      0.00
  -18    0   24      6.41      0.00
  -17    0   24      5.89      0.00
  -16    0   24      4.12      0.00
  -15    0   24      2.39      0.00
  -14    0   24      0.50      0.00
  -13    0   24     -0.68      0.00
  -12    0   24     -0.15      0.00
  -11    0   24      1.07      0.00
  -10    0   24      1.98      0.00
   -9    0   24      2.44      0.00
   -8    0   24      0.57      0.00
   -7    0   24     -4.77      0.00
   -6    0   24     -8.80      0.00
   -5    0   24     -5.62      0.00
   -4    0   24      2.57      0.00
   -3    0   24      8.00      0.00
   -2    0   24      7.64      0.00
   -1    0   24      5.10      0.00
    0    0   24      3.74      0.00
    1    0   24      2.78      0.00
    2    0   24      0.95      0.00
    3    0   24      0.08      0.00
    4    0   24      1.89      0.00
    5    0   24      3.86      0.00
    6    0   24      2.99      0.00
    7    0   24      1.07      0.00
    8    0   24      0.80      0.00
    9    0   24      0.93      0.00
   10    0   24     -0.18      0.00
   11    0   24     -1.21      0.00
   12    0   24     -0.94      0.00
  -18    1   24      1.50      0.00
  -17    1   24      2.25      0.00
  -16    1   24      2.03      0.00
  -15    1   24      2.06      0.00
  -14    1   24      2.84      0.00
  -13    1   24      3.51      0.00
  -12    1   24      3.32      0.00
  -11    1   24      1.86      0.00
  -10    1   24     -0.35      0.00
   -9    1   24     -1.44      0.00
   -8    1   24     -0.82      0.00
   -7    1   24     -0.26      0.00
   -6    1   24     -0.37      0.00
   -5    1   24      0.64      0.00
   -4    1   24      3.02      0.00
   -3    1   24      4.11      0.00
   -2    1   24      2.06      0.00
   -1    1   24     -1.68      0.00
    0    1   24     -3.84      0.00
    1    1   24     -2.62      0.00
    2    1   24      0.19      0.00
    3    1   24      1.56      0.00
    4    1   24      1.43      0.00
    5    1   24      1.37      0.00
    6    1   24      0.96      0.00
    7    1   24     -0.63      0.00
    8    1   24     -1.93      0.00
    9    1   24     -1.72      0.00
   10    1   24     -1.17      0.00
   11    1   24     -1.37      0.00
   12    1   24     -1.75      0.00
  -18    2   24     -0.52      0.00
  -17    2   24     -0.24      0.00
  -16    2   24     -0.33      0.00
  -15    2   24     -0.35      0.00
  -14    2   24      0.72      0.00
  -13    2   24      1.92      0.00
  -12    2   24      1.62      0.00
  -11    2   24      0.43      0.00
  -10    2   24      0.13      0.00
   -9    2   24      0.85      0.00
   -8    2   24      0.82      0.00
   -7    2   24     -1.06      0.00
   -6    2   24     -2.88      0.00
   -5    2   24     -2.04      0.00
   -4    2   24      0.47      0.00
   -3    2   24      1.61      0.00
   -2    2   24      1.29      0.00
   -1    2   24      1.47      0.00
    0    2   24      2.23      0.00
    1    2   24      2.46      0.00
    2    2   24      1.81      0.00
    3    2   24      0.25      0.00
    4    2   24     -1.72      0.00
    5    2   24     -2.76      0.00
    6    2   24     -2.48      0.00
    7    2   24     -2.24      0.00
    8    2   24     -2.93      0.00
    9    2   24     -3.51      0.00
   10    2   24     -2.55      0.00
   11    2   24     -0.51      0.00
   12    2   24      0.57      0.00
  -18    3   24     -0.25      0.00
  -17    3   24      0.81      0.00
  -16    3   24      1.27      0.00
  -15    3   24      0.36      0.00
  -14    3   24     -0.45      0.00
  -13    3   24      0.60      0.00
  -12    3   24      2.27      0.00
  -11    3   24      1.90      0.00
  -10    3   24     -0.10      0.00
   -9    3   24     -0.45      0.00
   -8    3   24      1.59      0.00
   -7    3   24      2.77      0.00
   -6    3   24      0.91      0.00
   -5    3   24     -1.81      0.00
   -4    3   24     -2.34      0.00
   -3    3   24     -1.24      0.00
   -2    3   24     -1.79      0.00
   -1    3   24     -4.98      0.00
    0    3   24     -7.21      0.00
    1    3   24     -4.72      0.00
    2    3   24      0.57      0.00
    3    3   24      3.46      0.00
    4    3   24      3.08      0.00
    5    3   24      2.62      0.00
    6    3   24      2.73      0.00
    7    3   24      1.82      0.00
    8    3   24      0.56      0.00
    9    3   24      0.27      0.00
   10    3   24      0.02      0.00
   11    3   24     -0.68      0.00
   12    3   24     -0.55      0.00
  -18    4   24     -0.38      0.00
  -17    4   24      0.26      0.00
  -16    4   24      0.46      0.00
  -15    4   24      0.46      0.00
  -14    4   24      1.10      0.00
  -13    4   24      1.47      0.00
  -12    4   24      0.55      0.00
  -11    4   24     -0.90      0.00
  -10    4   24     -1.79      0.00
   -9    4   24     -1.39      0.00
   -8    4   24      0.97      0.00
   -7    4   24      4.32      0.00
   -6    4   24      6.14      0.00
   -5    4   24      5.15      0.00
   -4    4   24      2.27      0.00
   -3    4   24     -0.50      0.00
   -2    4   24     -1.09      0.00
   -1    4   24      0.37      0.00
    0    4   24      1.28      0.00
    1    4   24      0.77      0.00
    2    4   24      0.85      0.00
    3    4   24      1.60      0.00
    4    4   24      1.10      0.00
    5    4   24      0.20      0.00
    6    4   24      1.04      0.00
    7    4   24      2.38      0.00
    8    4   24      1.75      0.00
    9    4   24     -0.10      0.00
   10    4   24     -0.89      0.00
   11    4   24     -0.43      0.00
  -17    5   24      1.00      0.00
  -16    5   24      1.39      0.00
  -15    5   24      0.91      0.00
  -14    5   24      0.08      0.00
  -13    5   24      0.62      0.00
  -12    5   24      1.96      0.00
  -11    5   24      2.16      0.00
  -10    5   24      1.44      0.00
   -9    5   24      1.47      0.00
   -8    5   24      2.60      0.00
   -7    5   24      3.31      0.00
   -6    5   24      1.90      0.00
   -5    5   24     -1.10      0.00
   -4    5   24     -2.83      0.00
   -3    5   24     -2.19      0.00
   -2    5   24     -1.38      0.00
   -1    5   24     -1.47      0.00
    0    5   24     -0.73      0.00
    1    5   24      1.16      0.00
    2    5   24      2.09      0.00
    3    5   24      1.49      0.00
    4    5   24      0.95      0.00
    5    5   24      1.03      0.00
    6    5   24      0.80      0.00
    7    5   24      0.42      0.00
    8    5   24      1.08      0.00
    9    5   24      2.18      0.00
   10    5   24      1.56      0.00
   11    5   24     -0.71      0.00
  -17    6   24      1.16      0.00
  -16    6   24      1.24      0.00
  -15    6   24      1.93      0.00
  -14    6   24      1.63      0.00
  -13    6   24     -0.16      0.00
  -12    6   24     -1.75      0.00
  -11    6   24     -2.14      0.00
  -10    6   24     -1.70      0.00
   -9    6   24     -0.39      0.00
   -8    6   24      1.80      0.00
   -7    6   24      3.68      0.00
   -6    6   24      4.07      0.00
   -5    6   24      2.82      0.00
   -4    6   24      0.35      0.00
   -3    6   24     -1.94      0.00
   -2    6   24     -2.44      0.00
   -1    6   24     -1.70      0.00
    0    6   24     -1.59      0.00
    1    6   24     -2.10      0.00
    2    6   24     -1.74      0.00
    3    6   24     -0.45      0.00
    4    6   24      0.20      0.00
    5    6   24     -0.59      0.00
    6    6   24     -1.79      0.00
    7    6   24     -1.76      0.00
    8    6   24     -0.43      0.00
   11    6   24     -0.58      0.00
  -17    7   24     -0.58      0.00
  -16    7   24     -1.13      0.00
  -15    7   24     -0.48      0.00
  -14    7   24      0.54      0.00
  -13    7   24      1.13      0.00
  -12    7   24      1.54      0.00
  -11    7   24      2.05      0.00
  -10    7   24      2.40      0.00
   -9    7   24      2.44      0.00
   -8    7   24      2.17      0.00
   -7    7   24      1.51      0.00
   -6    7   24      0.58      0.00
   -5    7   24     -0.22      0.00
   -4    7   24     -0.64      0.00
   -3    7   24     -0.52      0.00
   -2    7   24      0.25      0.00
   -1    7   24      1.11      0.00
    0    7   24      1.16      0.00
    1    7   24      0.51      0.00
    2    7   24      0.04      0.00
    3    7   24     -0.22      0.00
    4    7   24     -0.94      0.00
    5    7   24     -2.06      0.00
    6    7   24     -2.59      0.00
    7    7   24     -1.83      0.00
    8    7   24     -0.34      0.00
    9    7   24      0.47      0.00
   10    7   24     -0.09      0.00
  -16    8   24      0.01      0.00
  -15    8   24     -1.11      0.00
  -14    8   24     -2.28      0.00
  -13    8   24     -2.49      0.00
  -12    8   24     -1.06      0.00
  -11    8   24      0.88      0.00
  -10    8   24      1.63      0.00
   -9    8   24      1.68      0.00
   -8    8   24      1.95      0.00
   -7    8   24      1.39      0.00
   -6    8   24     -0.14      0.00
   -5    8   24     -0.43      0.00
   -4    8   24      0.85      0.00
   -3    8   24      1.68      0.00
   -2    8   24      1.69      0.00
   -1    8   24      1.42      0.00
    0    8   24     -0.19      0.00
    1    8   24     -2.99      0.00
    2    8   24     -4.04      0.00
    3    8   24     -1.70      0.00
    4    8   24      1.78      0.00
    5    8   24      3.60      0.00
    6    8   24      3.44      0.00
    7    8   24      2.50      0.00
    8    8   24      1.60      0.00
    9    8   24      0.88      0.00
  -15    9   24      0.77      0.00
  -14    9   24      1.58      0.00
  -13    9   24      0.79      0.00
  -12    9   24     -1.59      0.00
  -11    9   24     -2.01      0.00
  -10    9   24      0.42      0.00
   -9    9   24      1.76      0.00
   -8    9   24      0.09      0.00
   -7    9   24     -1.60      0.00
   -6    9   24     -1.18      0.00
   -5    9   24     -0.18      0.00
   -4    9   24     -0.15      0.00
   -3    9   24     -0.41      0.00
   -2    9   24      0.05      0.00
   -1    9   24      0.90      0.00
    0    9   24      1.07      0.00
    1    9   24      0.46      0.00
    2    9   24     -0.22      0.00
    3    9   24     -0.83      0.00
    4    9   24     -1.51      0.00
    5    9   24     -1.63      0.00
    6    9   24     -0.61      0.00
    7    9   24      1.32      0.00
    8    9   24      3.44      0.00
    9    9   24      4.44      0.00
  -14   10   24     -2.45      0.00
  -13   10   24     -1.18      0.00
  -12   10   24      0.14      0.00
  -11   10   24      0.62      0.00
  -10   10   24      1.07      0.00
   -9   10   24      1.84      0.00
   -8   10   24      1.77      0.00
   -7   10   24      0.39      0.00
   -6   10   24     -0.59      0.00
   -5   10   24      0.12      0.00
   -4   10   24      0.97      0.00
   -3   10   24      0.59      0.00
   -2   10   24      0.52      0.00
   -1   10   24      1.61      0.00
    0   10   24      1.30      0.00
    1   10   24     -1.44      0.00
    2   10   24     -3.35      0.00
    3   10   24     -2.34      0.00
    4   10   24     -0.43      0.00
    5   10   24      0.49      0.00
    6   10   24      0.77      0.00
    7   10   24      0.56      0.00
    8   10   24     -0.37      0.00
  -13   11   24     -0.86      0.00
  -12   11   24     -1.13      0.00
  -11   11   24     -0.69      0.00
  -10   11   24      0.03      0.00
   -9   11   24     -0.30      0.00
   -8   11   24     -1.28      0.00
   -7   11   24     -1.33      0.00
   -6   11   24     -0.58      0.00
   -5   11   24      0.28      0.00
   -4   11   24      1.46      0.00
   -3   11   24      2.13      0.00
   -2   11   24      1.19      0.00
   -1   11   24     -0.08      0.00
    0   11   24     -0.52      0.00
    1   11   24     -1.52      0.00
    2   11   24     -3.15      0.00
    3   11   24     -2.82      0.00
    4   11   24     -0.33      0.00
    5   11   24      1.39      0.00
    6   11   24      1.24      0.00
    7   11   24      0.59      0.00
  -12   12   24      1.93      0.00
  -11   12   24      1.42      0.00
  -10   12   24      0.79      0.00
   -9   12   24      0.74      0.00
   -8   12   24      0.64      0.00
   -7   12   24      0.61      0.00
   -6   12   24      1.39      0.00
   -5   12   24      2.15      0.00
   -4   12   24      1.87      0.00
   -3   12   24      1.33      0.00
   -2   12   24      1.28      0.00
   -1   12   24      1.36      0.00
    0   12   24      1.96      0.00
    1   12   24      3.34      0.00
    2   12   24      3.73      0.00
    3   12   24      1.78      0.00
    4   12   24     -0.84      0.00
    5   12   24     -1.88      0.00
    6   12   24     -1.27      0.00
  -11   13   24      2.31      0.00
  -10   13   24      1.78      0.00
   -9   13   24      1.07      0.00
   -8   13   24      1.22      0.00
   -7   13   24      0.97      0.00
   -6   13   24     -0.43      0.00
   -5   13   24     -1.08      0.00
   -4   13   24      0.48      0.00
   -3   13   24      2.59      0.00
   -2   13   24      2.82      0.00
   -1   13   24      1.09      0.00
    0   13   24     -0.75      0.00
    1   13   24     -0.82      0.00
    2   13   24      1.20      0.00
    3   13   24      3.26      0.00
    4   13   24      3.03      0.00
   -9   14   24      0.61      0.00
   -8   14   24      0.02      0.00
   -7   14   24     -1.07      0.00
   -6   14   24     -1.47      0.00
   -5   14   24     -0.76      0.00
   -4   14   24     -0.41      0.00
   -3   14   24     -1.39      0.00
   -2   14   24     -2.28      0.00
   -1   14   24     -1.57      0.00
    0   14   24     -0.27      0.00
    1   14   24     -0.27      0.00
    2   14   24     -1.37      0.00
   -4   15   24      0.70      0.00
   -3   15   24      3.16      0.00
   -2   15   24      3.79      0.00
  -18    1   25      1.53      0.00
  -17    1   25      1.42      0.00
  -16    1   25      1.02      0.00
  -15    1   25      0.62      0.00
  -14    1   25     -0.07      0.00
  -13    1   25     -0.94      0.00
  -12    1   25     -1.74      0.00
  -11    1   25     -2.21      0.00
  -10    1   25     -1.52      0.00
   -9    1   25      0.45      0.00
   -8    1   25      1.11      0.00
   -7    1   25     -1.76      0.00
   -6    1   25     -5.24      0.00
   -5    1   25     -4.31      0.00
   -4    1   25      0.65      0.00
   -3    1   25      4.60      0.00
   -2    1   25      5.20      0.00
   -1    1   25      4.60      0.00
    0    1   25      4.44      0.00
    1    1   25      3.48      0.00
    2    1   25      0.72      0.00
    3    1   25     -2.09      0.00
    4    1   25     -2.88      0.00
    5    1   25     -2.39      0.00
    6    1   25     -2.32      0.00
    7    1   25     -2.24      0.00
    8    1   25     -1.28      0.00
    9    1   25     -0.37      0.00
   10    1   25     -0.28      0.00
   11    1   25     -0.27      0.00
  -18    2   25      1.68      0.00
  -17    2   25      2.45      0.00
  -16    2   25      2.35      0.00
  -15    2   25      1.99      0.00
  -14    2   25      1.99      0.00
  -13    2   25      2.94      0.00
  -12    2   25      4.34      0.00
  -11    2   25      3.86      0.00
  -10    2   25      0.87      0.00
   -9    2   25     -1.62      0.00
   -8    2   25     -1.98      0.00
   -7    2   25     -2.61      0.00
   -6    2   25     -4.37      0.00
   -5    2   25     -4.11      0.00
   -4    2   25     -0.28      0.00
   -3    2   25      3.82      0.00
   -2    2   25      3.96      0.00
   -1    2   25     -0.33      0.00
    0    2   25     -4.85      0.00
    1    2   25     -5.03      0.00
    2    2   25     -1.67      0.00
    3    2   25      0.84      0.00
    4    2   25      1.41      0.00
    5    2   25      2.03      0.00
    6    2   25      2.33      0.00
    7    2   25      1.04      0.00
    8    2   25     -0.18      0.00
    9    2   25      0.32      0.00
   10    2   25      1.07      0.00
   11    2   25      0.81      0.00
  -18    3   25     -0.82      0.00
  -17    3   25     -0.01      0.00
  -16    3   25      0.15      0.00
  -15    3   25     -0.02      0.00
  -14    3   25      0.88      0.00
  -13    3   25      1.59      0.00
  -12    3   25      0.19      0.00
  -11    3   25     -2.43      0.00
  -10    3   25     -4.39      0.00
   -9    3   25     -4.87      0.00
   -8    3   25     -3.92      0.00
   -7    3   25     -2.30      0.00
   -6    3   25     -0.59      0.00
   -5    3   25      1.43      0.00
   -4    3   25      2.94      0.00
   -3    3   25      2.58      0.00
   -2    3   25      1.48      0.00
   -1    3   25      1.37      0.00
    0    3   25      1.36      0.00
    1    3   25      0.90      0.00
    2    3   25      1.25      0.00
    3    3   25      1.65      0.00
    4    3   25      0.17      0.00
    5    3   25     -1.51      0.00
    6    3   25     -0.64      0.00
    7    3   25      1.27      0.00
    8    3   25      1.21      0.00
    9    3   25     -0.32      0.00
   10    3   25     -0.72      0.00
   11    3   25      0.39      0.00
  -17    4   25      0.29      0.00
  -16    4   25      1.93      0.00
  -15    4   25      1.76      0.00
  -14    4   25      0.89      0.00
  -13    4   25      1.71      0.00
  -12    4   25      3.13      0.00
  -11    4   25      2.51      0.00
  -10    4   25      0.33      0.00
   -9    4   25     -0.76      0.00
   -8    4   25      0.10      0.00
   -7    4   25      1.13      0.00
   -6    4   25      0.43      0.00
   -5    4   25     -1.37      0.00
   -4    4   25     -1.59      0.00
   -3    4   25      0.46      0.00
   -2    4   25      2.05      0.00
   -1    4   25      1.29      0.00
    0    4   25      0.30      0.00
    1    4   25      1.82      0.00
    2    4   25      4.75      0.00
    3    4   25      5.83      0.00
    4    4   25      4.67      0.00
    5    4   25      3.58      0.00
    6    4   25      3.12      0.00
    7    4   25      2.06      0.00
    8    4   25      0.94      0.00
    9    4   25      0.98      0.00
   10    4   25      1.09      0.00
   11    4   25      0.04      0.00
  -17    5   25     -0.28      0.00
  -16    5   25     -0.35      0.00
  -15    5   25     -0.45      0.00
  -14    5   25     -0.69      0.00
  -13    5   25     -1.15      0.00
  -12    5   25     -1.39      0.00
  -11    5   25     -1.14      0.00
  -10    5   25     -0.73      0.00
   -9    5   25     -0.11      0.00
   -8    5   25      1.32      0.00
   -7    5   25      3.24      0.00
   -6    5   25      4.29      0.00
   -5    5   25      3.39      0.00
   -4    5   25      0.57      0.00
   -3    5   25     -2.60      0.00
   -2    5   25     -3.76      0.00
   -1    5   25     -2.78      0.00
    0    5   25     -2.13      0.00
    1    5   25     -2.54      0.00
    2    5   25     -1.99      0.00
    3    5   25     -0.19      0.00
    4    5   25      0.61      0.00
    5    5   25     -0.15      0.00
    6    5   25     -0.74      0.00
    7    5   25     -0.52      0.00
    8    5   25     -0.28      0.00
    9    5   25     -0.40      0.00
   10    5   25     -0.61      0.00
  -17    6   25     -0.70      0.00
  -16    6   25     -0.44      0.00
  -15    6   25      0.16      0.00
  -14    6   25      0.29      0.00
  -13    6   25      0.23      0.00
  -12    6   25      0.35      0.00
  -11    6   25      0.29      0.00
  -10    6   25      0.04      0.00
   -9    6   25      0.42      0.00
   -8    6   25      1.75      0.00
   -7    6   25      2.97      0.00
   -6    6   25      2.78      0.00
   -5    6   25      1.42      0.00
   -4    6   25      0.37      0.00
   -3    6   25      0.03      0.00
   -2    6   25     -0.30      0.00
   -1    6   25     -0.30      0.00
    0    6   25      0.70      0.00
    1    6   25      1.74      0.00
    2    6   25      1.61      0.00
    3    6   25      0.92      0.00
    4    6   25      0.53      0.00
    5    6   25      0.10      0.00
    6    6   25     -0.72      0.00
    7    6   25     -1.17      0.00
    8    6   25     -0.41      0.00
    9    6   25      0.97      0.00
   10    6   25      1.34      0.00
  -16    7   25     -0.33      0.00
  -15    7   25     -0.24      0.00
  -14    7   25     -0.36      0.00
  -13    7   25     -0.63      0.00
  -12    7   25     -0.17      0.00
  -11    7   25      0.53      0.00
  -10    7   25      0.49      0.00
   -9    7   25      0.65      0.00
   -8    7   25      1.91      0.00
   -7    7   25      2.46      0.00
   -6    7   25      0.86      0.00
   -5    7   25     -1.27      0.00
   -4    7   25     -2.05      0.00
   -3    7   25     -1.78      0.00
   -2    7   25     -1.34      0.00
   -1    7   25     -0.85      0.00
    0    7   25     -0.51      0.00
    1    7   25     -0.52      0.00
    2    7   25     -0.29      0.00
    3    7   25      1.04      0.00
    4    7   25      2.90      0.00
    5    7   25      3.44      0.00
    6    7   25      2.03      0.00
    7    7   25      0.36      0.00
    8    7   25      0.03      0.00
    9    7   25      0.56      0.00
  -16    8   25      0.89      0.00
  -15    8   25      2.01      0.00
  -14    8   25      3.33      0.00
  -13    8   25      2.96      0.00
  -12    8   25      0.67      0.00
  -11    8   25     -1.13      0.00
  -10    8   25     -0.68      0.00
   -9    8   25      0.87      0.00
   -8    8   25      1.55      0.00
   -7    8   25      1.32      0.00
   -6    8   25      1.27      0.00
   -5    8   25      1.43      0.00
   -4    8   25      1.10      0.00
   -3    8   25      0.64      0.00
   -2    8   25      0.85      0.00
   -1    8   25      1.19      0.00
    0    8   25      0.81      0.00
    1    8   25      0.33      0.00
    2    8   25      0.41      0.00
    3    8   25     -0.02      0.00
    4    8   25     -1.79      0.00
    5    8   25     -3.59      0.00
    6    8   25     -3.72      0.00
    7    8   25     -1.97      0.00
    8    8   25      0.47      0.00
    9    8   25      1.84      0.00
  -15    9   25     -2.03      0.00
  -14    9   25     -2.40      0.00
  -13    9   25     -1.88      0.00
  -12    9   25     -0.75      0.00
  -11    9   25      0.17      0.00
  -10    9   25      0.35      0.00
   -9    9   25      0.51      0.00
   -8    9   25      0.88      0.00
   -7    9   25      0.07      0.00
   -6    9   25     -1.76      0.00
   -5    9   25     -2.28      0.00
   -4    9   25     -1.33      0.00
   -3    9   25     -0.60      0.00
   -2    9   25      0.66      0.00
   -1    9   25      3.12      0.00
    0    9   25      3.75      0.00
    1    9   25      1.01      0.00
    2    9   25     -1.19      0.00
    3    9   25      0.02      0.00
    4    9   25      2.09      0.00
    5    9   25      2.20      0.00
    6    9   25      1.03      0.00
    7    9   25     -0.04      0.00
    8    9   25     -1.04      0.00
  -14   10   25      0.35      0.00
  -13   10   25      0.38      0.00
  -12   10   25     -0.64      0.00
  -11   10   25     -0.75      0.00
  -10   10   25      0.85      0.00
   -9   10   25      1.61      0.00
   -8   10   25      0.29      0.00
   -7   10   25     -1.05      0.00
   -6   10   25     -1.29      0.00
   -5   10   25     -1.12      0.00
   -4   10   25     -0.79      0.00
   -3   10   25     -0.48      0.00
   -2   10   25     -0.59      0.00
   -1   10   25     -0.47      0.00
    0   10   25      0.08      0.00
    1   10   25     -0.24      0.00
    2   10   25     -1.49      0.00
    3   10   25     -1.66      0.00
    4   10   25     -0.12      0.00
    5   10   25      1.41      0.00
    6   10   25      1.72      0.00
    7   10   25      1.39      0.00
  -13   11   25      0.05      0.00
  -12   11   25      0.50      0.00
  -11   11   25     -0.39      0.00
  -10   11   25     -1.10      0.00
   -9   11   25     -1.15      0.00
   -8   11   25     -1.65      0.00
   -7   11   25     -2.29      0.00
   -6   11   25     -1.68      0.00
   -5   11   25     -0.51      0.00
   -4   11   25     -0.69      0.00
   -3   11   25     -1.90      0.00
   -2   11   25     -2.37      0.00
   -1   11   25     -2.01      0.00
    0   11   25     -1.88      0.00
    1   11   25     -1.78      0.00
    2   11   25     -1.16      0.00
    3   11   25     -0.87      0.00
    4   11   25     -1.59      0.00
    5   11   25     -2.29      0.00
    6   11   25     -1.91      0.00
  -12   12   25      0.81      0.00
  -11   12   25      1.89      0.00
  -10   12   25      1.90      0.00
   -9   12   25      1.23      0.00
   -8   12   25      0.75      0.00
   -7   12   25      0.41      0.00
   -6   12   25     -0.23      0.00
   -5   12   25     -0.29      0.00
   -4   12   25      1.25      0.00
   -3   12   25      3.04      0.00
   -2   12   25      3.08      0.00
   -1   12   25      1.69      0.00
    0   12   25      0.00      0.00
    1   12   25     -1.62      0.00
    2   12   25     -2.03      0.00
    3   12   25     -0.21      0.00
    4   12   25      2.15      0.00
    5   12   25      2.90      0.00
  -10   13   25      0.74      0.00
   -9   13   25      0.91      0.00
   -8   13   25      0.36      0.00
   -7   13   25     -0.31      0.00
   -6   13   25      0.03      0.00
   -5   13   25      0.98      0.00
   -4   13   25      0.89      0.00
   -3   13   25     -0.50      0.00
   -2   13   25     -1.84      0.00
   -1   13   25     -1.95      0.00
    0   13   25     -0.88      0.00
    1   13   25      0.12      0.00
    2   13   25     -0.09      0.00
    3   13   25     -0.94      0.00
   -7   14   25      0.39      0.00
   -6   14   25     -0.30      0.00
   -5   14   25     -1.13      0.00
   -4   14   25      0.31      0.00
   -3   14   25      3.79      0.00
   -2   14   25      5.98      0.00
   -1   14   25      4.77      0.00
    0   14   25      1.96      0.00
    1   14   25      0.79      0.00
  -18    0   26      2.04      0.00
  -17    0   26      2.25      0.00
  -16    0   26      2.23      0.00
  -15    0   26      1.21      0.00
  -14    0   26     -1.33      0.00
  -13    0   26     -3.90      0.00
  -12    0   26     -5.24      0.00
  -11    0   26     -5.33      0.00
  -10    0   26     -3.40      0.00
   -9    0   26      0.79      0.00
   -8    0   26      4.05      0.00
   -7    0   26      2.97      0.00
   -6    0   26     -0.83      0.00
   -5    0   26     -2.56      0.00
   -4    0   26     -0.82      0.00
   -3    0   26      1.55      0.00
   -2    0   26      2.55      0.00
   -1    0   26      3.43      0.00
    0    0   26      5.21      0.00
    1    0   26      5.82      0.00
    2    0   26      3.42      0.00
    3    0   26      0.20      0.00
    4    0   26     -0.86      0.00
    5    0   26     -0.52      0.00
    6    0   26     -0.87      0.00
    7    0   26     -1.16      0.00
    8    0   26     -0.16      0.00
    9    0   26      0.87      0.00
   10    0   26      0.69      0.00
   11    0   26      0.11      0.00
  -18    1   26      1.57      0.00
  -17    1   26      2.50      0.00
  -16    1   26      2.82      0.00
  -15    1   26      2.78      0.00
  -14    1   26      1.96      0.00
  -13    1   26      1.02      0.00
  -12    1   26      1.15      0.00
  -11    1   26      1.37      0.00
  -10    1   26      0.42      0.00
   -9    1   26     -0.31      0.00
   -8    1   26      0.04      0.00
   -7    1   26     -0.47      0.00
   -6    1   26     -2.30      0.00
   -5    1   26     -2.41      0.00
   -4    1   26      0.81      0.00
   -3    1   26      4.78      0.00
   -2    1   26      5.89      0.00
   -1    1   26      3.39      0.00
    0    1   26     -0.05      0.00
    1    1   26     -1.46      0.00
    2    1   26     -0.87      0.00
    3    1   26     -0.02      0.00
    4    1   26      0.91      0.00
    5    1   26      2.20      0.00
    6    1   26      2.53      0.00
    7    1   26      1.22      0.00
    8    1   26     -0.01      0.00
    9    1   26     -0.04      0.00
   10    1   26      0.12      0.00
   11    1   26     -0.28      0.00
  -18    2   26     -0.43      0.00
  -17    2   26     -0.83      0.00
  -16    2   26     -1.19      0.00
  -15    2   26     -0.64      0.00
  -14    2   26      1.13      0.00
  -13    2   26      2.36      0.00
  -12    2   26      1.46      0.00
  -11    2   26     -0.54      0.00
  -10    2   26     -1.52      0.00
   -9    2   26     -0.79      0.00
   -8    2   26      0.29      0.00
   -7    2   26     -0.13      0.00
   -6    2   26     -1.29      0.00
   -5    2   26     -0.45      0.00
   -4    2   26      2.19      0.00
   -3    2   26      3.39      0.00
   -2    2   26      2.46      0.00
   -1    2   26      1.79      0.00
    0    2   26      2.08      0.00
    1    2   26      1.92      0.00
    2    2   26      0.72      0.00
    3    2   26     -1.21      0.00
    4    2   26     -3.49      0.00
    5    2   26     -5.16      0.00
    6    2   26     -5.21      0.00
    7    2   26     -3.88      0.00
    8    2   26     -2.53      0.00
    9    2   26     -2.06      0.00
   10    2   26     -1.95      0.00
  -17    3   26     -0.66      0.00
  -16    3   26     -0.23      0.00
  -15    3   26     -0.41      0.00
  -14    3   26     -0.55      0.00
  -13    3   26      0.94      0.00
  -12    3   26      3.06      0.00
  -11    3   26      2.71      0.00
  -10    3   26     -0.30      0.00
   -9    3   26     -2.67      0.00
   -8    3   26     -2.82      0.00
   -7    3   26     -2.90      0.00
   -6    3   26     -4.17      0.00
   -5    3   26     -4.56      0.00
   -4    3   26     -1.90      0.00
   -3    3   26      2.67      0.00
   -2    3   26      5.38      0.00
   -1    3   26      3.80      0.00
    0    3   26      0.27      0.00
    1    3   26     -0.56      0.00
    2    3   26      1.69      0.00
    3    3   26      2.86      0.00
    4    3   26      1.44      0.00
    5    3   26      0.06      0.00
    6    3   26     -0.30      0.00
    7    3   26     -1.10      0.00
    8    3   26     -1.85      0.00
    9    3   26     -1.02      0.00
   10    3   26      0.39      0.00
  -17    4   26      0.57      0.00
  -16    4   26      0.25      0.00
  -15    4   26     -0.57      0.00
  -14    4   26     -0.51      0.00
  -13    4   26      0.37      0.00
  -12    4   26      1.12      0.00
  -11    4   26      1.27      0.00
  -10    4   26      0.50      0.00
   -9    4   26     -0.87      0.00
   -8    4   26     -1.60      0.00
   -7    4   26     -1.15      0.00
   -6    4   26      0.13      0.00
   -5    4   26      1.84      0.00
   -4    4   26      2.71      0.00
   -3    4   26      1.82      0.00
   -2    4   26      0.83      0.00
   -1    4   26      0.87      0.00
    0    4   26      0.09      0.00
    1    4   26     -1.46      0.00
    2    4   26     -0.69      0.00
    3    4   26      1.84      0.00
    4    4   26      2.10      0.00
    5    4   26      0.19      0.00
    6    4   26     -0.33      0.00
    7    4   26      0.80      0.00
    8    4   26      1.08      0.00
    9    4   26      0.14      0.00
   10    4   26     -0.48      0.00
  -17    5   26     -0.66      0.00
  -16    5   26      0.96      0.00
  -15    5   26      1.50      0.00
  -14    5   26      1.04      0.00
  -13    5   26      1.09      0.00
  -12    5   26      1.29      0.00
  -11    5   26      0.29      0.00
  -10    5   26     -1.60      0.00
   -9    5   26     -2.77      0.00
   -8    5   26     -2.22      0.00
   -7    5   26     -0.55      0.00
   -6    5   26      0.69      0.00
   -5    5   26      1.24      0.00
   -4    5   26      2.35      0.00
   -3    5   26      4.00      0.00
   -2    5   26      4.56      0.00
   -1    5   26      3.83      0.00
    0    5   26      3.27      0.00
    1    5   26      3.34      0.00
    2    5   26      3.29      0.00
    3    5   26      2.60      0.00
    4    5   26      1.52      0.00
    5    5   26      0.82      0.00
    6    5   26      0.68      0.00
    7    5   26      0.39      0.00
    8    5   26      0.11      0.00
    9    5   26      0.77      0.00
   10    5   26      1.63      0.00
  -16    6   26      0.13      0.00
  -15    6   26      0.32      0.00
  -14    6   26      0.20      0.00
  -13    6   26     -0.04      0.00
  -12    6   26      0.12      0.00
  -11    6   26      0.29      0.00
  -10    6   26     -0.22      0.00
   -9    6   26     -0.90      0.00
   -8    6   26     -0.63      0.00
   -7    6   26      0.27      0.00
   -6    6   26      0.55      0.00
   -5    6   26     -0.11      0.00
   -4    6   26     -0.99      0.00
   -3    6   26     -1.64      0.00
   -2    6   26     -1.86      0.00
   -1    6   26     -1.45      0.00
    0    6   26     -0.74      0.00
    1    6   26     -0.34      0.00
    2    6   26     -0.07      0.00
    3    6   26      0.76      0.00
    4    6   26      1.89      0.00
    5    6   26      2.10      0.00
    6    6   26      0.89      0.00
    7    6   26     -0.74      0.00
    8    6   26     -1.29      0.00
    9    6   26     -0.45      0.00
  -16    7   26      0.95      0.00
  -15    7   26      1.78      0.00
  -14    7   26      2.00      0.00
  -13    7   26      0.90      0.00
  -12    7   26     -0.97      0.00
  -11    7   26     -2.40      0.00
  -10    7   26     -2.33      0.00
   -9    7   26     -0.62      0.00
   -8    7   26      1.43      0.00
   -7    7   26      2.42      0.00
   -6    7   26      2.23      0.00
   -5    7   26      1.54      0.00
   -4    7   26      0.76      0.00
   -3    7   26      0.01      0.00
   -2    7   26     -0.50      0.00
   -1    7   26     -0.50      0.00
    0    7   26      0.04      0.00
    1    7   26      0.76      0.00
    2    7   26      1.12      0.00
    3    7   26      0.79      0.00
    4    7   26     -0.33      0.00
    5    7   26     -1.98      0.00
    6    7   26     -3.36      0.00
    7    7   26     -3.56      0.00
    8    7   26     -2.40      0.00
    9    7   26     -0.86      0.00
  -15    8   26     -0.22      0.00
  -14    8   26     -0.02      0.00
  -13    8   26     -0.07      0.00
  -12    8   26      0.45      0.00
  -11    8   26      0.83      0.00
  -10    8   26     -0.04      0.00
   -9    8   26     -0.50      0.00
   -8    8   26      1.19      0.00
   -7    8   26      2.55      0.00
   -6    8   26      1.04      0.00
   -5    8   26     -1.21      0.00
   -4    8   26     -1.53      0.00
   -3    8   26     -0.67      0.00
   -2    8   26      0.37      0.00
   -1    8   26      1.93      0.00
    0    8   26      2.84      0.00
    1    8   26      1.52      0.00
    3    8   26     -0.31      0.00
    4    8   26      1.09      0.00
    5    8   26      1.14      0.00
    6    8   26     -0.43      0.00
    7    8   26     -1.69      0.00
    8    8   26     -1.79      0.00
  -14    9   26      1.29      0.00
  -13    9   26      1.84      0.00
  -12    9   26      0.47      0.00
  -11    9   26     -1.14      0.00
  -10    9   26     -0.82      0.00
   -9    9   26      0.69      0.00
   -8    9   26      1.51      0.00
   -7    9   26      1.34      0.00
   -6    9   26      0.65      0.00
   -5    9   26     -0.22      0.00
   -4    9   26     -0.65      0.00
   -3    9   26     -0.31      0.00
   -2    9   26      0.16      0.00
   -1    9   26      0.24      0.00
    0    9   26      0.33      0.00
    1    9   26      0.79      0.00
    2    9   26      1.28      0.00
    3    9   26      1.36      0.00
    4    9   26      1.06      0.00
    5    9   26      0.64      0.00
    6    9   26      0.31      0.00
    7    9   26      0.44      0.00
  -13   10   26      0.86      0.00
  -12   10   26      0.63      0.00
  -11   10   26     -0.47      0.00
  -10   10   26     -1.01      0.00
   -9   10   26     -0.46      0.00
   -8   10   26      0.09      0.00
   -7   10   26     -0.16      0.00
   -6   10   26     -0.41      0.00
   -5   10   26     -0.26      0.00
   -4   10   26     -1.05      0.00
   -3   10   26     -2.59      0.00
   -2   10   26     -2.02      0.00
   -1   10   26      1.08      0.00
    0   10   26      2.95      0.00
    1   10   26      2.03      0.00
    2   10   26      1.06      0.00
    3   10   26      1.24      0.00
    4   10   26      0.67      0.00
    5   10   26     -1.01      0.00
    6   10   26     -1.97      0.00
  -12   11   26      0.12      0.00
  -11   11   26      0.41      0.00
  -10   11   26      0.65      0.00
   -9   11   26      0.17      0.00
   -8   11   26     -0.98      0.00
   -7   11   26     -1.94      0.00
   -6   11   26     -2.31      0.00
   -5   11   26     -1.82      0.00
   -4   11   26     -0.37      0.00
   -3   11   26      0.73      0.00
   -2   11   26      0.61      0.00
   -1   11   26      0.66      0.00
    0   11   26      1.09      0.00
    1   11   26     -0.01      0.00
    2   11   26     -1.92      0.00
    3   11   26     -1.55      0.00
    4   11   26      0.88      0.00
    5   11   26      2.38      0.00
  -11   12   26      0.27      0.00
  -10   12   26      0.20      0.00
   -9   12   26      0.13      0.00
   -8   12   26     -0.42      0.00
   -7   12   26     -0.52      0.00
   -6   12   26      0.98      0.00
   -5   12   26      2.79      0.00
   -4   12   26      2.82      0.00
   -3   12   26      1.16      0.00
   -2   12   26     -0.77      0.00
   -1   12   26     -2.02      0.00
    0   12   26     -2.15      0.00
    1   12   26     -1.30      0.00
    2   12   26     -0.40      0.00
    3   12   26     -0.07      0.00
    4   12   26      0.08      0.00
   -9   13   26      0.17      0.00
   -8   13   26     -0.68      0.00
   -7   13   26     -0.75      0.00
   -6   13   26     -1.11      0.00
   -5   13   26     -1.57      0.00
   -4   13   26     -0.33      0.00
   -3   13   26      2.86      0.00
   -2   13   26      5.24      0.00
   -1   13   26      4.52      0.00
    0   13   26      1.73      0.00
    1   13   26     -0.24      0.00
    2   13   26     -0.01      0.00
   -5   14   26     -0.33      0.00
   -4   14   26      0.37      0.00
   -3   14   26     -0.24      0.00
   -2   14   26     -1.25      0.00
  -17    1   27     -0.91      0.00
  -16    1   27     -1.07      0.00
  -15    1   27     -1.24      0.00
  -14    1   27     -1.49      0.00
  -13    1   27     -1.71      0.00
  -12    1   27     -2.24      0.00
  -11    1   27     -2.89      0.00
  -10    1   27     -2.11      0.00
   -9    1   27      0.78      0.00
   -8    1   27      3.69      0.00
   -7    1   27      3.93      0.00
   -6    1   27      1.76      0.00
   -5    1   27     -0.19      0.00
   -4    1   27     -0.74      0.00
   -3    1   27     -1.15      0.00
   -2    1   27     -1.88      0.00
   -1    1   27     -1.15      0.00
    0    1   27      1.66      0.00
    1    1   27      3.91      0.00
    2    1   27      3.14      0.00
    3    1   27      0.44      0.00
    4    1   27     -1.65      0.00
    5    1   27     -2.61      0.00
    6    1   27     -3.14      0.00
    7    1   27     -2.96      0.00
    8    1   27     -1.86      0.00
    9    1   27     -0.88      0.00
   10    1   27     -0.66      0.00
  -17    2   27      0.15      0.00
  -16    2   27      0.99      0.00
  -15    2   27      1.41      0.00
  -14    2   27      0.33      0.00
  -13    2   27     -0.70      0.00
  -12    2   27      0.05      0.00
  -11    2   27      0.75      0.00
  -10    2   27     -0.14      0.00
   -9    2   27     -0.37      0.00
   -8    2   27      1.04      0.00
   -7    2   27      0.88      0.00
   -6    2   27     -2.08      0.00
   -5    2   27     -4.15      0.00
   -4    2   27     -2.19      0.00
   -3    2   27      2.33      0.00
   -2    2   27      5.23      0.00
   -1    2   27      3.92      0.00
    0    2   27      0.30      0.00
    1    2   27     -1.61      0.00
    2    2   27     -1.14      0.00
    3    2   27     -0.71      0.00
    4    2   27     -0.71      0.00
    5    2   27      0.18      0.00
    6    2   27      1.07      0.00
    7    2   27      0.49      0.00
    8    2   27     -0.35      0.00
    9    2   27      0.03      0.00
   10    2   27      0.71      0.00
  -17    3   27     -1.00      0.00
  -16    3   27     -2.31      0.00
  -15    3   27     -2.58      0.00
  -14    3   27     -0.94      0.00
  -13    3   27      0.84      0.00
  -12    3   27      1.15      0.00
  -11    3   27      0.36      0.00
  -10    3   27     -0.88      0.00
   -9    3   27     -1.99      0.00
   -8    3   27     -2.50      0.00
   -7    3   27     -3.05      0.00
   -6    3   27     -3.60      0.00
   -5    3   27     -2.31      0.00
   -4    3   27      0.37      0.00
   -3    3   27      1.39      0.00
   -2    3   27      0.47      0.00
   -1    3   27     -0.39      0.00
    0    3   27     -1.35      0.00
    1    3   27     -2.70      0.00
    2    3   27     -2.61      0.00
    3    3   27     -1.22      0.00
    4    3   27     -1.30      0.00
    5    3   27     -2.89      0.00
    6    3   27     -3.15      0.00
    7    3   27     -1.31      0.00
    8    3   27      0.63      0.00
    9    3   27      1.11      0.00
   10    3   27      0.60      0.00
  -17    4   27     -0.45      0.00
  -16    4   27     -0.07      0.00
  -15    4   27     -0.58      0.00
  -14    4   27     -0.94      0.00
  -13    4   27      0.46      0.00
  -12    4   27      2.12      0.00
  -11    4   27      1.39      0.00
  -10    4   27     -1.32      0.00
   -9    4   27     -3.18      0.00
   -8    4   27     -2.76      0.00
   -7    4   27     -1.35      0.00
   -6    4   27     -0.66      0.00
   -5    4   27     -0.33      0.00
   -4    4   27      1.11      0.00
   -3    4   27      3.54      0.00
   -2    4   27      5.05      0.00
   -1    4   27      4.40      0.00
    0    4   27      2.70      0.00
    1    4   27      2.32      0.00
    2    4   27      3.67      0.00
    3    4   27      4.30      0.00
    4    4   27      2.71      0.00
    5    4   27      0.91      0.00
    6    4   27      0.68      0.00
    7    4   27      0.80      0.00
    8    4   27      0.39      0.00
    9    4   27      0.59      0.00
  -16    5   27      0.55      0.00
  -15    5   27     -0.14      0.00
  -14    5   27     -0.63      0.00
  -13    5   27     -0.01      0.00
  -12    5   27      1.42      0.00
  -11    5   27      2.40      0.00
  -10    5   27      1.82      0.00
   -9    5   27     -0.17      0.00
   -8    5   27     -2.09      0.00
   -7    5   27     -2.66      0.00
   -6    5   27     -1.81      0.00
   -5    5   27     -0.31      0.00
   -4    5   27      0.50      0.00
   -3    5   27      0.00      0.00
   -2    5   27     -0.63      0.00
   -1    5   27     -0.60      0.00
    0    5   27     -1.15      0.00
    1    5   27     -2.30      0.00
    2    5   27     -1.80      0.00
    3    5   27      0.31      0.00
    4    5   27      1.20      0.00
    5    5   27      0.15      0.00
    6    5   27     -0.93      0.00
    7    5   27     -1.31      0.00
    8    5   27     -1.52      0.00
    9    5   27     -1.31      0.00
  -16    6   27      0.42      0.00
  -15    6   27      0.55      0.00
  -14    6   27     -0.20      0.00
  -13    6   27     -1.10      0.00
  -12    6   27     -1.55      0.00
  -11    6   27     -1.68      0.00
  -10    6   27     -1.49      0.00
   -9    6   27     -0.83      0.00
   -8    6   27      0.00      0.00
   -7    6   27      0.49      0.00
   -6    6   27      0.61      0.00
   -5    6   27      0.93      0.00
   -4    6   27      1.59      0.00
   -3    6   27      1.74      0.00
   -2    6   27      0.95      0.00
   -1    6   27      0.31      0.00
    0    6   27      0.56      0.00
    1    6   27      0.91      0.00
    2    6   27      0.90      0.00
    3    6   27      0.96      0.00
    4    6   27      1.02      0.00
    5    6   27      0.77      0.00
    6    6   27      0.40      0.00
    7    6   27     -0.08      0.00
    8    6   27     -0.54      0.00
    9    6   27     -0.40      0.00
  -15    7   27     -0.47      0.00
  -14    7   27     -0.52      0.00
  -13    7   27     -0.79      0.00
  -12    7   27     -0.18      0.00
  -11    7   27      0.58      0.00
  -10    7   27     -0.31      0.00
   -9    7   27     -1.85      0.00
   -8    7   27     -1.45      0.00
   -7    7   27      0.13      0.00
   -6    7   27     -0.01      0.00
   -5    7   27     -1.59      0.00
   -4    7   27     -1.98      0.00
   -3    7   27     -1.20      0.00
   -2    7   27     -0.79      0.00
   -1    7   27     -0.13      0.00
    0    7   27      1.60      0.00
    1    7   27      2.72      0.00
    2    7   27      2.12      0.00
    3    7   27      1.63      0.00
    4    7   27      2.53      0.00
    5    7   27      3.10      0.00
    6    7   27      1.81      0.00
    7    7   27     -0.25      0.00
    8    7   27     -1.27      0.00
  -15    8   27      0.52      0.00
  -14    8   27      1.17      0.00
  -13    8   27      1.57      0.00
  -12    8   27      0.86      0.00
  -11    8   27     -0.59      0.00
  -10    8   27     -1.17      0.00
   -9    8   27     -0.06      0.00
   -8    8   27      1.65      0.00
   -7    8   27      2.42      0.00
   -6    8   27      1.73      0.00
   -5    8   27      0.38      0.00
   -4    8   27     -0.23      0.00
   -3    8   27      0.37      0.00
   -2    8   27      0.69      0.00
   -1    8   27     -0.41      0.00
    1    8   27     -0.84      0.00
    2    8   27      0.79      0.00
    3    8   27      1.60      0.00
    4    8   27      1.34      0.00
    5    8   27      0.52      0.00
    6    8   27     -0.52      0.00
    7    8   27     -1.15      0.00
  -14    9   27      1.15      0.00
  -13    9   27      0.35      0.00
  -12    9   27     -1.01      0.00
  -11    9   27     -2.60      0.00
  -10    9   27     -3.90      0.00
   -9    9   27     -3.45      0.00
   -8    9   27     -0.86      0.00
   -7    9   27      1.51      0.00
   -6    9   27      1.80      0.00
   -5    9   27      0.85      0.00
   -4    9   27     -0.57      0.00
   -3    9   27     -2.11      0.00
   -2    9   27     -1.65      0.00
   -1    9   27      1.60      0.00
    0    9   27      4.09      0.00
    1    9   27      3.25      0.00
    2    9   27      1.51      0.00
    3    9   27      1.43      0.00
    4    9   27      1.58      0.00
    5    9   27      0.20      0.00
    6    9   27     -1.66      0.00
  -13   10   27      1.32      0.00
  -12   10   27      1.19      0.00
  -11   10   27      0.39      0.00
  -10   10   27     -0.03      0.00
   -9   10   27     -0.02      0.00
   -8   10   27     -0.08      0.00
   -7   10   27     -0.56      0.00
   -6   10   27     -1.63      0.00
   -5   10   27     -2.40      0.00
   -4   10   27     -1.77      0.00
   -3   10   27     -0.66      0.00
   -2   10   27     -0.27      0.00
   -1   10   27      0.36      0.00
    0   10   27      1.77      0.00
    1   10   27      2.14      0.00
    2   10   27      1.05      0.00
    3   10   27      0.64      0.00
    4   10   27      1.49      0.00
    5   10   27      1.79      0.00
  -12   11   27     -0.10      0.00
  -11   11   27     -1.10      0.00
  -10   11   27     -1.58      0.00
   -9   11   27     -1.33      0.00
   -8   11   27     -1.44      0.00
   -7   11   27     -1.59      0.00
   -6   11   27     -0.69      0.00
   -5   11   27      0.17      0.00
   -4   11   27     -0.94      0.00
   -3   11   27     -3.20      0.00
   -2   11   27     -3.97      0.00
   -1   11   27     -2.93      0.00
    0   11   27     -1.98      0.00
    1   11   27     -1.75      0.00
    2   11   27     -1.35      0.00
    3   11   27     -0.72      0.00
    4   11   27     -0.53      0.00
  -10   12   27     -0.18      0.00
   -9   12   27     -1.36      0.00
   -8   12   27     -2.48      0.00
   -7   12   27     -2.85      0.00
   -6   12   27     -2.78      0.00
   -5   12   27     -2.64      0.00
   -4   12   27     -2.05      0.00
   -3   12   27     -0.95      0.00
   -2   12   27      0.14      0.00
   -1   12   27      1.06      0.00
    0   12   27      1.42      0.00
    1   12   27      0.79      0.00
    2   12   27      0.15      0.00
    3   12   27      0.55      0.00
   -7   13   27      0.00      0.00
   -6   13   27     -0.35      0.00
   -5   13   27      0.89      0.00
   -4   13   27      1.95      0.00
   -3   13   27      0.95      0.00
   -2   13   27     -1.32      0.00
   -1   13   27     -2.53      0.00
    0   13   27     -2.05      0.00
  -17    0   28     -0.16      0.00
  -16    0   28     -0.34      0.00
  -15    0   28     -1.13      0.00
  -14    0   28     -1.88      0.00
  -13    0   28     -1.39      0.00
  -12    0   28     -0.71      0.00
  -11    0   28     -1.04      0.00
  -10    0   28     -1.09      0.00
   -9    0   28      0.24      0.00
   -8    0   28      1.90      0.00
   -7    0   28      2.81      0.00
   -6    0   28      2.78      0.00
   -5    0   28      1.53      0.00
   -4    0   28     -1.03      0.00
   -3    0   28     -4.08      0.00
   -2    0   28     -6.01      0.00
   -1    0   28     -4.96      0.00
    0    0   28     -0.76      0.00
    1    0   28      3.54      0.00
    2    0   28      4.74      0.00
    3    0   28      3.26      0.00
    4    0   28      1.67      0.00
    5    0   28      0.90      0.00
    6    0   28      0.32      0.00
    7    0   28     -0.14      0.00
    8    0   28     -0.20      0.00
    9    0   28     -0.14      0.00
  -17    1   28      0.86      0.00
  -16    1   28      2.12      0.00
  -15    1   28      2.36      0.00
  -14    1   28     -0.03      0.00
  -13    1   28     -3.08      0.00
  -12    1   28     -3.61      0.00
  -11    1   28     -2.23      0.00
  -10    1   28     -0.89      0.00
   -9    1   28      0.94      0.00
   -8    1   28      3.42      0.00
   -7    1   28      4.02      0.00
   -6    1   28      1.68      0.00
   -5    1   28     -1.05      0.00
   -4    1   28     -1.45      0.00
   -3    1   28      0.51      0.00
   -2    1   28      2.69      0.00
   -1    1   28      3.08      0.00
    0    1   28      1.95      0.00
    1    1   28      0.98      0.00
    2    1   28      0.59      0.00
    3    1   28      0.19      0.00
    4    1   28      0.36      0.00
    5    1   28      1.66      0.00
    6    1   28      2.86      0.00
    7    1   28      2.67      0.00
    8    1   28      1.74      0.00
    9    1   28      1.15      0.00
  -17    2   28     -1.14      0.00
  -16    2   28     -1.75      0.00
  -15    2   28     -1.19      0.00
  -14    2   28      0.57      0.00
  -13    2   28      1.78      0.00
  -12    2   28      1.47      0.00
  -11    2   28      0.55      0.00
  -10    2   28      0.27      0.00
   -9    2   28      1.21      0.00
   -8    2   28      2.74      0.00
   -7    2   28      2.99      0.00
   -6    2   28      1.38      0.00
   -5    2   28      0.17      0.00
   -4    2   28      0.57      0.00
   -3    2   28      0.54      0.00
   -2    2   28     -0.81      0.00
   -1    2   28     -1.42      0.00
    0    2   28     -0.37      0.00
    1    2   28      0.71      0.00
    2    2   28      0.67      0.00
    3    2   28     -0.05      0.00
    4    2   28     -1.01      0.00
    5    2   28     -2.11      0.00
    6    2   28     -2.88      0.00
    7    2   28     -2.63      0.00
    8    2   28     -1.46      0.00
    9    2   28     -0.55      0.00
  -16    3   28     -2.38      0.00
  -15    3   28     -2.69      0.00
  -14    3   28     -3.00      0.00
  -13    3   28     -1.93      0.00
  -12    3   28      0.30      0.00
  -11    3   28      1.04      0.00
  -10    3   28     -0.32      0.00
   -9    3   28     -0.88      0.00
   -8    3   28      0.66      0.00
   -7    3   28      1.58      0.00
   -6    3   28     -0.11      0.00
   -5    3   28     -2.55      0.00
   -4    3   28     -2.99      0.00
   -3    3   28     -1.17      0.00
   -2    3   28      0.81      0.00
   -1    3   28      0.94      0.00
    0    3   28     -0.27      0.00
    1    3   28     -0.46      0.00
    2    3   28      0.72      0.00
    3    3   28      0.93      0.00
    4    3   28     -0.55      0.00
    5    3   28     -1.60      0.00
    6    3   28     -1.35      0.00
    7    3   28     -1.23      0.00
    8    3   28     -1.61      0.00
    9    3   28     -1.34      0.00
  -16    4   28     -1.34      0.00
  -15    4   28     -2.08      0.00
  -14    4   28     -1.65      0.00
  -13    4   28     -0.24      0.00
  -12    4   28      1.44      0.00
  -11    4   28      2.67      0.00
  -10    4   28      2.58      0.00
   -9    4   28      1.24      0.00
   -8    4   28     -0.37      0.00
   -7    4   28     -1.92      0.00
   -6    4   28     -2.87      0.00
   -5    4   28     -1.93      0.00
   -4    4   28      0.18      0.00
   -3    4   28      1.24      0.00
   -2    4   28      1.51      0.00
   -1    4   28      1.90      0.00
    0    4   28      0.91      0.00
    1    4   28     -1.38      0.00
    2    4   28     -1.59      0.00
    3    4   28      0.57      0.00
    4    4   28      1.22      0.00
    5    4   28     -0.70      0.00
    6    4   28     -2.19      0.00
    7    4   28     -1.75      0.00
    8    4   28     -0.64      0.00
    9    4   28     -0.02      0.00
  -16    5   28     -0.11      0.00
  -15    5   28     -1.14      0.00
  -14    5   28     -1.90      0.00
  -13    5   28     -1.01      0.00
  -12    5   28      0.66      0.00
  -11    5   28      1.23      0.00
  -10    5   28      0.56      0.00
   -9    5   28     -0.05      0.00
   -8    5   28     -0.02      0.00
   -7    5   28     -0.08      0.00
   -6    5   28     -0.71      0.00
   -5    5   28     -0.94      0.00
   -4    5   28     -0.02      0.00
   -3    5   28      1.04      0.00
   -2    5   28      1.39      0.00
   -1    5   28      1.50      0.00
    0    5   28      1.45      0.00
    1    5   28      1.03      0.00
    2    5   28      1.01      0.00
    3    5   28      1.38      0.00
    4    5   28      0.71      0.00
    5    5   28     -0.65      0.00
    6    5   28     -0.90      0.00
    7    5   28     -0.33      0.00
    8    5   28     -0.30      0.00
  -15    6   28      1.15      0.00
  -14    6   28      0.74      0.00
  -13    6   28      0.79      0.00
  -12    6   28      1.75      0.00
  -11    6   28      2.48      0.00
  -10    6   28      1.34      0.00
   -9    6   28     -1.28      0.00
   -8    6   28     -2.81      0.00
   -7    6   28     -1.91      0.00
   -6    6   28     -0.09      0.00
   -5    6   28      1.20      0.00
   -4    6   28      1.99      0.00
   -3    6   28      1.93      0.00
   -2    6   28      0.77      0.00
   -1    6   28     -0.10      0.00
    0    6   28      0.24      0.00
    1    6   28      0.66      0.00
    2    6   28      0.39      0.00
    3    6   28      0.29      0.00
    4    6   28      0.73      0.00
    5    6   28      1.15      0.00
    6    6   28      1.16      0.00
    7    6   28      0.58      0.00
    8    6   28     -0.24      0.00
  -15    7   28     -0.02      0.00
  -14    7   28     -0.24      0.00
  -13    7   28     -0.22      0.00
  -12    7   28     -0.07      0.00
  -11    7   28     -0.26      0.00
  -10    7   28     -0.56      0.00
   -9    7   28     -0.49      0.00
   -8    7   28     -0.42      0.00
   -7    7   28     -0.80      0.00
   -6    7   28     -1.35      0.00
   -5    7   28     -1.54      0.00
   -4    7   28     -1.07      0.00
   -3    7   28     -0.41      0.00
   -2    7   28     -0.65      0.00
   -1    7   28     -1.88      0.00
    0    7   28     -2.48      0.00
    1    7   28     -1.48      0.00
    2    7   28      0.08      0.00
    3    7   28      0.94      0.00
    4    7   28      1.02      0.00
    5    7   28      0.64      0.00
    6    7   28     -0.13      0.00
    7    7   28     -1.16      0.00
  -14    8   28      0.86      0.00
  -13    8   28     -0.54      0.00
  -12    8   28     -1.29      0.00
  -11    8   28     -1.34      0.00
  -10    8   28     -2.24      0.00
   -9    8   28     -3.17      0.00
   -8    8   28     -1.74      0.00
   -7    8   28      1.03      0.00
   -6    8   28      1.95      0.00
   -5    8   28      0.88      0.00
   -4    8   28     -0.41      0.00
   -3    8   28     -1.65      0.00
   -2    8   28     -2.48      0.00
   -1    8   28     -1.36      0.00
    0    8   28      1.05      0.00
    1    8   28      1.84      0.00
    2    8   28      0.69      0.00
    3    8   28      0.19      0.00
    4    8   28      1.09      0.00
    5    8   28      1.35      0.00
    6    8   28      0.11      0.00
  -13    9   28      0.25      0.00
  -12    9   28      0.92      0.00
  -11    9   28      0.62      0.00
  -10    9   28     -0.44      0.00
   -9    9   28     -0.98      0.00
   -8    9   28     -0.13      0.00
   -7    9   28      0.99      0.00
   -6    9   28      0.47      0.00
   -5    9   28     -1.11      0.00
   -4    9   28     -1.01      0.00
   -3    9   28      0.84      0.00
   -2    9   28      1.30      0.00
   -1    9   28     -0.51      0.00
    0    9   28     -1.91      0.00
    1    9   28     -1.48      0.00
    2    9   28     -0.53      0.00
    3    9   28      0.28      0.00
    4    9   28      1.18      0.00
    5    9   28      1.44      0.00
    6    9   28      0.54      0.00
  -12   10   28      0.03      0.00
  -11   10   28     -1.32      0.00
  -10   10   28     -1.98      0.00
   -9   10   28     -1.19      0.00
   -8   10   28      0.30      0.00
   -7   10   28      1.55      0.00
   -6   10   28      2.45      0.00
   -5   10   28      2.50      0.00
   -4   10   28      0.70      0.00
   -3   10   28     -1.72      0.00
   -2   10   28     -1.63      0.00
   -1   10   28      1.03      0.00
    0   10   28      2.75      0.00
    1   10   28      2.18      0.00
    2   10   28      1.46      0.00
    3   10   28      1.68      0.00
    4   10   28      1.70      0.00
  -11   11   28     -0.71      0.00
  -10   11   28     -1.40      0.00
   -9   11   28     -1.91      0.00
   -8   11   28     -2.38      0.00
   -7   11   28     -2.92      0.00
   -6   11   28     -3.45      0.00
   -5   11   28     -3.46      0.00
   -4   11   28     -2.94      0.00
   -3   11   28     -2.87      0.00
   -2   11   28     -2.98      0.00
   -1   11   28     -1.37      0.00
    0   11   28      1.33      0.00
    1   11   28      2.05      0.00
    2   11   28      0.66      0.00
    3   11   28     -0.14      0.00
   -9   12   28      1.17      0.00
   -8   12   28      1.04      0.00
   -7   12   28      0.28      0.00
   -6   12   28      0.47      0.00
   -5   12   28      1.95      0.00
   -4   12   28      2.95      0.00
   -3   12   28      2.07      0.00
   -2   12   28      0.19      0.00
   -1   12   28     -0.89      0.00
    0   12   28     -0.92      0.00
    1   12   28     -0.97      0.00
   -5   13   28     -1.45      0.00
   -4   13   28     -2.64      0.00
   -3   13   28     -2.26      0.00
  -16    1   29     -1.04      0.00
  -15    1   29     -1.25      0.00
  -14    1   29     -0.57      0.00
  -13    1   29      0.91      0.00
  -12    1   29      1.48      0.00
  -11    1   29      0.48      0.00
  -10    1   29     -0.67      0.00
   -9    1   29     -1.01      0.00
   -8    1   29     -0.62      0.00
   -7    1   29      0.55      0.00
   -6    1   29      2.16      0.00
   -5    1   29      3.09      0.00
   -4    1   29      2.47      0.00
   -3    1   29      0.37      0.00
   -2    1   29     -2.05      0.00
   -1    1   29     -2.72      0.00
    0    1   29     -0.75      0.00
    1    1   29      1.91      0.00
    2    1   29      2.83      0.00
    3    1   29      1.98      0.00
    4    1   29      0.89      0.00
    5    1   29      0.24      0.00
    6    1   29     -0.26      0.00
    7    1   29     -0.70      0.00
    8    1   29     -0.77      0.00
  -16    2   29      0.57      0.00
  -15    2   29      1.30      0.00
  -14    2   29     -0.48      0.00
  -13    2   29     -2.53      0.00
  -12    2   29     -1.97      0.00
  -11    2   29     -0.47      0.00
  -10    2   29     -0.11      0.00
   -9    2   29      0.86      0.00
   -8    2   29      3.46      0.00
   -7    2   29      4.94      0.00
   -6    2   29      3.27      0.00
   -5    2   29      0.07      0.00
   -4    2   29     -2.05      0.00
   -3    2   29     -1.91      0.00
   -2    2   29     -0.40      0.00
   -1    2   29      0.57      0.00
    0    2   29      0.57      0.00
    1    2   29      0.66      0.00
    2    2   29      0.73      0.00
    3    2   29     -0.20      0.00
    4    2   29     -1.19      0.00
    5    2   29     -0.46      0.00
    6    2   29      1.24      0.00
    7    2   29      1.73      0.00
    8    2   29      0.81      0.00
  -16    3   29     -2.15      0.00
  -15    3   29     -1.55      0.00
  -14    3   29     -0.14      0.00
  -13    3   29      0.27      0.00
  -12    3   29     -0.26      0.00
  -11    3   29     -0.54      0.00
  -10    3   29     -0.52      0.00
   -9    3   29     -0.21      0.00
   -8    3   29      0.46      0.00
   -7    3   29     -0.03      0.00
   -6    3   29     -2.19      0.00
   -5    3   29     -3.22      0.00
   -4    3   29     -1.62      0.00
   -3    3   29      0.22      0.00
   -2    3   29      0.75      0.00
   -1    3   29      0.89      0.00
    0    3   29      0.47      0.00
    1    3   29     -1.07      0.00
    2    3   29     -2.20      0.00
    3    3   29     -1.77      0.00
    4    3   29     -1.13      0.00
    5    3   29     -1.39      0.00
    6    3   29     -1.81      0.00
    7    3   29     -1.28      0.00
    8    3   29      0.14      0.00
  -16    4   29     -2.60      0.00
  -15    4   29     -4.35      0.00
  -14    4   29     -4.92      0.00
  -13    4   29     -2.98      0.00
  -12    4   29      0.13      0.00
  -11    4   29      1.58      0.00
  -10    4   29      0.94      0.00
   -9    4   29      0.63      0.00
   -8    4   29      1.91      0.00
   -7    4   29      2.67      0.00
   -6    4   29      1.03      0.00
   -5    4   29     -1.45      0.00
   -4    4   29     -2.42      0.00
   -3    4   29     -2.01      0.00
   -2    4   29     -1.36      0.00
   -1    4   29     -0.82      0.00
    0    4   29     -0.60      0.00
    1    4   29     -0.40      0.00
    2    4   29      0.57      0.00
    3    4   29      1.65      0.00
    4    4   29      1.25      0.00
    5    4   29      0.00      0.00
    6    4   29     -0.21      0.00
    7    4   29      0.42      0.00
    8    4   29      0.63      0.00
  -15    5   29     -0.59      0.00
  -14    5   29     -1.59      0.00
  -13    5   29     -1.43      0.00
  -12    5   29      0.00      0.00
  -11    5   29      1.54      0.00
  -10    5   29      1.82      0.00
   -9    5   29      0.76      0.00
   -8    5   29     -0.25      0.00
   -7    5   29     -0.35      0.00
   -6    5   29      0.08      0.00
   -5    5   29      0.71      0.00
   -4    5   29      1.14      0.00
   -3    5   29      0.60      0.00
   -2    5   29     -0.36      0.00
   -1    5   29     -0.59      0.00
    0    5   29     -0.85      0.00
    1    5   29     -1.96      0.00
    2    5   29     -2.42      0.00
    3    5   29     -1.44      0.00
    4    5   29     -0.87      0.00
    5    5   29     -1.44      0.00
    6    5   29     -1.62      0.00
    7    5   29     -1.05      0.00
  -15    6   29      0.11      0.00
  -14    6   29     -0.40      0.00
  -13    6   29     -0.01      0.00
  -12    6   29      0.89      0.00
  -11    6   29      1.25      0.00
  -10    6   29      1.24      0.00
   -9    6   29      1.53      0.00
   -8    6   29      1.61      0.00
   -7    6   29      0.72      0.00
   -6    6   29     -0.55      0.00
   -5    6   29     -0.97      0.00
   -4    6   29     -0.59      0.00
   -3    6   29     -0.66      0.00
   -2    6   29     -1.43      0.00
   -1    6   29     -1.99      0.00
    0    6   29     -2.12      0.00
    1    6   29     -2.24      0.00
    2    6   29     -1.98      0.00
    3    6   29     -1.24      0.00
    4    6   29     -1.07      0.00
    5    6   29     -1.48      0.00
    6    6   29     -1.30      0.00
    7    6   29     -0.69      0.00
  -14    7   29      0.37      0.00
  -13    7   29     -0.30      0.00
  -12    7   29      0.08      0.00
  -11    7   29      1.18      0.00
  -10    7   29      0.76      0.00
   -9    7   29     -1.37      0.00
   -8    7   29     -2.31      0.00
   -7    7   29     -0.94      0.00
   -6    7   29      0.32      0.00
   -5    7   29      0.12      0.00
   -4    7   29     -0.57      0.00
   -3    7   29     -1.79      0.00
   -2    7   29     -3.62      0.00
   -1    7   29     -3.60      0.00
    0    7   29     -0.62      0.00
    1    7   29      2.06      0.00
    2    7   29      2.00      0.00
    3    7   29      1.10      0.00
    4    7   29      1.39      0.00
    5    7   29      2.11      0.00
    6    7   29      2.10      0.00
  -13    8   29      0.43      0.00
  -12    8   29      2.55      0.00
  -11    8   29      3.85      0.00
  -10    8   29      2.86      0.00
   -9    8   29      0.56      0.00
   -8    8   29     -0.75      0.00
   -7    8   29     -0.40      0.00
   -6    8   29     -0.17      0.00
   -5    8   29     -0.99      0.00
   -4    8   29     -0.83      0.00
   -3    8   29      1.13      0.00
   -2    8   29      1.62      0.00
   -1    8   29     -1.13      0.00
    0    8   29     -3.55      0.00
    1    8   29     -2.77      0.00
    2    8   29     -0.78      0.00
    3    8   29      0.13      0.00
    4    8   29      0.52      0.00
    5    8   29      0.98      0.00
    6    8   29      0.95      0.00
  -12    9   29     -0.68      0.00
  -11    9   29     -0.98      0.00
  -10    9   29     -1.63      0.00
   -9    9   29     -2.10      0.00
   -8    9   29     -1.28      0.00
   -7    9   29      0.68      0.00
   -6    9   29      2.51      0.00
   -5    9   29      3.03      0.00
   -4    9   29      1.58      0.00
   -3    9   29     -1.06      0.00
   -2    9   29     -2.34      0.00
   -1    9   29     -1.10      0.00
    0    9   29      0.73      0.00
    1    9   29      1.36      0.00
    2    9   29      1.48      0.00
    3    9   29      2.23      0.00
    4    9   29      3.15      0.00
    5    9   29      3.06      0.00
  -11   10   29     -0.17      0.00
  -10   10   29     -1.10      0.00
   -9   10   29     -1.91      0.00
   -8   10   29     -1.48      0.00
   -7   10   29     -0.52      0.00
   -6   10   29     -0.61      0.00
   -5   10   29     -1.14      0.00
   -4   10   29     -0.60      0.00
   -3   10   29     -0.08      0.00
   -2   10   29     -1.24      0.00
   -1   10   29     -2.43      0.00
    0   10   29     -1.70      0.00
    1   10   29     -0.52      0.00
    2   10   29     -0.42      0.00
    3   10   29     -0.18      0.00
  -10   11   29     -0.10      0.00
   -9   11   29      0.33      0.00
   -8   11   29      0.13      0.00
   -7   11   29     -0.57      0.00
   -6   11   29     -0.41      0.00
   -5   11   29      0.81      0.00
   -4   11   29      1.61      0.00
   -3   11   29      1.29      0.00
   -2   11   29      0.84      0.00
   -1   11   29      0.79      0.00
    0   11   29      0.26      0.00
    1   11   29     -1.01      0.00
    2   11   29     -1.92      0.00
   -7   12   29     -2.09      0.00
   -6   12   29     -2.12      0.00
   -5   12   29     -2.59      0.00
   -4   12   29     -3.75      0.00
   -3   12   29     -4.58      0.00
   -2   12   29     -3.95      0.00
   -1   12   29     -1.91      0.00
  -16    0   30     -0.52      0.00
  -15    0   30     -1.33      0.00
  -14    0   30     -0.73      0.00
  -13    0   30      1.75      0.00
  -12    0   30      3.05      0.00
  -11    0   30      1.64      0.00
  -10    0   30     -0.66      0.00
   -9    0   30     -3.09      0.00
   -8    0   30     -5.48      0.00
   -7    0   30     -5.31      0.00
   -6    0   30     -1.33      0.00
   -5    0   30      3.03      0.00
   -4    0   30      4.04      0.00
   -3    0   30      1.75      0.00
   -2    0   30     -1.56      0.00
   -1    0   30     -3.64      0.00
    0    0   30     -3.29      0.00
    1    0   30     -1.23      0.00
    2    0   30      0.76      0.00
    3    0   30      1.70      0.00
    4    0   30      1.81      0.00
    5    0   30      1.59      0.00
    6    0   30      1.19      0.00
    7    0   30      0.42      0.00
    8    0   30     -0.47      0.00
  -16    1   30      1.19      0.00
  -15    1   30      2.02      0.00
  -14    1   30      0.40      0.00
  -13    1   30     -1.82      0.00
  -12    1   30     -1.99      0.00
  -11    1   30     -1.10      0.00
  -10    1   30     -0.89      0.00
   -9    1   30     -0.58      0.00
   -8    1   30      0.65      0.00
   -7    1   30      1.79      0.00
   -6    1   30      1.96      0.00
   -5    1   30      1.09      0.00
   -4    1   30     -0.44      0.00
   -3    1   30     -1.49      0.00
   -2    1   30     -1.15      0.00
   -1    1   30     -0.16      0.00
    0    1   30      0.40      0.00
    1    1   30      0.50      0.00
    2    1   30      0.25      0.00
    3    1   30     -0.45      0.00
    4    1   30     -0.76      0.00
    5    1   30      0.36      0.00
    6    1   30      2.31      0.00
    7    1   30      3.35      0.00
    8    1   30      2.78      0.00
  -16    2   30     -0.50      0.00
  -15    2   30      0.31      0.00
  -14    2   30      1.49      0.00
  -13    2   30      1.59      0.00
  -12    2   30      0.43      0.00
  -11    2   30     -0.77      0.00
  -10    2   30     -1.20      0.00
   -9    2   30     -0.74      0.00
   -8    2   30      0.52      0.00
   -7    2   30      1.68      0.00
   -6    2   30      1.80      0.00
   -5    2   30      1.70      0.00
   -4    2   30      2.40      0.00
   -3    2   30      3.08      0.00
   -2    2   30      2.86      0.00
   -1    2   30      2.56      0.00
    0    2   30      2.76      0.00
    1    2   30      2.54      0.00
    2    2   30      1.35      0.00
    3    2   30      0.00      0.00
    4    2   30     -0.61      0.00
    5    2   30     -0.49      0.00
    6    2   30     -0.28      0.00
    7    2   30     -0.17      0.00
    8    2   30      0.19      0.00
  -15    3   30     -1.66      0.00
  -14    3   30     -2.48      0.00
  -13    3   30     -2.07      0.00
  -12    3   30      0.11      0.00
  -11    3   30      1.50      0.00
  -10    3   30      0.56      0.00
   -9    3   30     -0.22      0.00
   -8    3   30      1.27      0.00
   -7    3   30      3.01      0.00
   -6    3   30      2.43      0.00
   -5    3   30      0.16      0.00
   -4    3   30     -1.81      0.00
   -3    3   30     -2.80      0.00
   -2    3   30     -3.15      0.00
   -1    3   30     -3.11      0.00
    0    3   30     -2.58      0.00
    1    3   30     -1.51      0.00
    2    3   30     -0.47      0.00
    3    3   30     -0.45      0.00
    4    3   30     -1.31      0.00
    5    3   30     -1.67      0.00
    6    3   30     -1.03      0.00
    7    3   30     -0.50      0.00
  -15    4   30     -1.52      0.00
  -14    4   30     -1.62      0.00
  -13    4   30     -1.90      0.00
  -12    4   30     -1.69      0.00
  -11    4   30     -0.62      0.00
  -10    4   30      0.33      0.00
   -9    4   30      0.78      0.00
   -8    4   30      1.23      0.00
   -7    4   30      1.08      0.00
   -6    4   30     -0.23      0.00
   -5    4   30     -1.05      0.00
   -4    4   30     -0.27      0.00
   -3    4   30      0.81      0.00
   -2    4   30      1.52      0.00
   -1    4   30      2.41      0.00
    0    4   30      2.51      0.00
    1    4   30      0.95      0.00
    2    4   30     -0.45      0.00
    3    4   30     -0.18      0.00
    4    4   30      0.44      0.00
    5    4   30      0.15      0.00
    6    4   30     -0.43      0.00
    7    4   30     -0.55      0.00
  -15    5   30     -2.13      0.00
  -14    5   30     -3.03      0.00
  -13    5   30     -2.10      0.00
  -12    5   30     -0.17      0.00
  -11    5   30      0.78      0.00
  -10    5   30      0.63      0.00
   -9    5   30      1.01      0.00
   -8    5   30      2.08      0.00
   -7    5   30      1.69      0.00
   -6    5   30     -0.80      0.00
   -5    5   30     -2.81      0.00
   -4    5   30     -2.60      0.00
   -3    5   30     -1.46      0.00
   -2    5   30     -0.42      0.00
   -1    5   30      0.80      0.00
    0    5   30      1.20      0.00
    1    5   30      0.00      0.00
    2    5   30     -0.98      0.00
    3    5   30     -0.55      0.00
    4    5   30     -0.54      0.00
    5    5   30     -1.78      0.00
    6    5   30     -2.44      0.00
    7    5   30     -1.79      0.00
  -14    6   30     -0.22      0.00
  -13    6   30     -0.59      0.00
  -12    6   30      0.29      0.00
  -11    6   30      1.83      0.00
  -10    6   30      2.39      0.00
   -9    6   30      1.49      0.00
   -8    6   30      0.94      0.00
   -7    6   30      1.70      0.00
   -6    6   30      2.15      0.00
   -5    6   30      1.43      0.00
   -4    6   30      0.47      0.00
   -3    6   30     -0.80      0.00
   -2    6   30     -2.41      0.00
   -1    6   30     -2.40      0.00
    0    6   30     -0.42      0.00
    1    6   30      0.74      0.00
    2    6   30     -0.01      0.00
    3    6   30     -0.82      0.00
    4    6   30     -0.87      0.00
    5    6   30     -0.62      0.00
    6    6   30      0.09      0.00
  -13    7   30      0.62      0.00
  -12    7   30      1.69      0.00
  -11    7   30      2.14      0.00
  -10    7   30      1.32      0.00
   -9    7   30     -0.07      0.00
   -8    7   30     -0.87      0.00
   -7    7   30     -0.43      0.00
   -6    7   30      0.56      0.00
   -5    7   30      0.97      0.00
   -4    7   30      1.09      0.00
   -3    7   30      1.44      0.00
   -2    7   30      0.90      0.00
   -1    7   30     -1.16      0.00
    0    7   30     -2.82      0.00
    1    7   30     -2.57      0.00
    2    7   30     -1.68      0.00
    3    7   30     -1.72      0.00
    4    7   30     -2.36      0.00
    5    7   30     -2.38      0.00
  -13    8   30      0.66      0.00
  -12    8   30      0.68      0.00
  -11    8   30      0.95      0.00
  -10    8   30      0.21      0.00
   -9    8   30     -1.86      0.00
   -8    8   30     -3.33      0.00
   -7    8   30     -2.78      0.00
   -6    8   30     -1.20      0.00
   -5    8   30     -0.15      0.00
   -4    8   30     -0.58      0.00
   -3    8   30     -2.70      0.00
   -2    8   30     -4.86      0.00
   -1    8   30     -4.35      0.00
    0    8   30     -1.16      0.00
    1    8   30      1.58      0.00
    2    8   30      2.00      0.00
    3    8   30      1.40      0.00
    4    8   30      1.31      0.00
  -12    9   30      0.71      0.00
  -11    9   30      2.65      0.00
  -10    9   30      1.94      0.00
   -9    9   30     -0.94      0.00
   -8    9   30     -2.21      0.00
   -7    9   30     -0.56      0.00
   -6    9   30      0.82      0.00
   -5    9   30      0.09      0.00
   -4    9   30     -0.26      0.00
   -3    9   30      0.64      0.00
   -2    9   30     -0.35      0.00
   -1    9   30     -3.78      0.00
    0    9   30     -5.68      0.00
    1    9   30     -4.62      0.00
    2    9   30     -3.23      0.00
    3    9   30     -2.48      0.00
  -10   10   30      1.25      0.00
   -9   10   30      0.46      0.00
   -8   10   30     -0.76      0.00
   -7   10   30     -1.13      0.00
   -6   10   30      0.18      0.00
   -5   10   30      2.14      0.00
   -4   10   30      2.91      0.00
   -3   10   30      2.51      0.00
   -2   10   30      2.26      0.00
   -1   10   30      2.23      0.00
    0   10   30      1.59      0.00
    1   10   30      0.76      0.00
    2   10   30      0.66      0.00
   -8   11   30     -0.74      0.00
   -7   11   30     -1.05      0.00
   -6   11   30     -1.52      0.00
   -5   11   30     -1.66      0.00
   -4   11   30     -1.61      0.00
   -3   11   30     -2.30      0.00
   -2   11   30     -3.43      0.00
   -1   11   30     -3.20      0.00
    0   11   30     -1.38      0.00
  -15    1   31     -2.14      0.00
  -14    1   31     -1.71      0.00
  -13    1   31     -0.14      0.00
  -12    1   31      0.39      0.00
  -11    1   31     -0.43      0.00
  -10    1   31     -1.03      0.00
   -9    1   31     -1.73      0.00
   -8    1   31     -3.19      0.00
   -7    1   31     -3.51      0.00
   -6    1   31     -1.15      0.00
   -5    1   31      2.15      0.00
   -4    1   31      4.01      0.00
   -3    1   31      4.02      0.00
   -2    1   31      2.90      0.00
   -1    1   31      1.53      0.00
    0    1   31      0.66      0.00
    1    1   31      0.42      0.00
    2    1   31      0.43      0.00
    3    1   31      0.32      0.00
    4    1   31      0.04      0.00
    5    1   31     -0.10      0.00
    6    1   31     -0.06      0.00
    7    1   31     -0.13      0.00
  -15    2   31      1.77      0.00
  -14    2   31      0.50      0.00
  -13    2   31     -0.83      0.00
  -12    2   31     -0.18      0.00
  -11    2   31      0.47      0.00
  -10    2   31     -0.85      0.00
   -9    2   31     -2.31      0.00
   -8    2   31     -1.90      0.00
   -7    2   31     -0.07      0.00
   -6    2   31      2.00      0.00
   -5    2   31      3.22      0.00
   -4    2   31      2.64      0.00
   -3    2   31      0.86      0.00
   -2    2   31     -0.51      0.00
   -1    2   31     -0.89      0.00
    0    2   31     -0.70      0.00
    1    2   31     -0.27      0.00
    2    2   31     -0.20      0.00
    3    2   31     -1.13      0.00
    4    2   31     -2.34      0.00
    5    2   31     -2.16      0.00
    6    2   31     -0.50      0.00
    7    2   31      0.86      0.00
  -15    3   31      1.37      0.00
  -14    3   31      2.47      0.00
  -13    3   31      1.64      0.00
  -12    3   31     -0.18      0.00
  -11    3   31     -1.31      0.00
  -10    3   31     -1.75      0.00
   -9    3   31     -1.65      0.00
   -8    3   31     -0.60      0.00
   -7    3   31      0.28      0.00
   -6    3   31     -0.42      0.00
   -5    3   31     -1.45      0.00
   -4    3   31     -1.07      0.00
   -3    3   31      0.13      0.00
   -2    3   31      1.16      0.00
   -1    3   31      2.18      0.00
    0    3   31      2.81      0.00
    1    3   31      1.95      0.00
    2    3   31     -0.16      0.00
    3    3   31     -1.97      0.00
    4    3   31     -2.44      0.00
    5    3   31     -1.74      0.00
    6    3   31     -0.75      0.00
  -14    4   31     -2.46      0.00
  -13    4   31     -1.82      0.00
  -12    4   31      0.10      0.00
  -11    4   31      1.04      0.00
  -10    4   31     -0.24      0.00
   -9    4   31     -1.39      0.00
   -8    4   31     -0.26      0.00
   -7    4   31      1.15      0.00
   -6    4   31      0.40      0.00
   -5    4   31     -0.96      0.00
   -4    4   31     -0.61      0.00
   -3    4   31      0.53      0.00
   -2    4   31      1.03      0.00
   -1    4   31      1.18      0.00
    0    4   31      1.11      0.00
    1    4   31      0.43      0.00
    2    4   31     -0.10      0.00
    3    4   31      0.16      0.00
    4    4   31      0.36      0.00
    5    4   31     -0.06      0.00
    6    4   31     -0.29      0.00
  -14    5   31     -3.55      0.00
  -13    5   31     -4.43      0.00
  -12    5   31     -3.58      0.00
  -11    5   31     -1.28      0.00
  -10    5   31      0.70      0.00
   -9    5   31      1.43      0.00
   -8    5   31      1.94      0.00
   -7    5   31      2.43      0.00
   -6    5   31      1.57      0.00
   -5    5   31     -0.27      0.00
   -4    5   31     -1.34      0.00
   -3    5   31     -1.77      0.00
   -2    5   31     -2.18      0.00
   -1    5   31     -1.65      0.00
    0    5   31     -0.43      0.00
    1    5   31     -0.39      0.00
    2    5   31     -1.27      0.00
    3    5   31     -1.22      0.00
    4    5   31     -0.54      0.00
    5    5   31     -0.47      0.00
    6    5   31     -0.60      0.00
  -13    6   31     -1.19      0.00
  -12    6   31     -1.18      0.00
  -11    6   31     -1.49      0.00
  -10    6   31     -1.82      0.00
   -9    6   31     -0.98      0.00
   -8    6   31      0.82      0.00
   -7    6   31      2.12      0.00
   -6    6   31      2.35      0.00
   -5    6   31      2.36      0.00
   -4    6   31      2.66      0.00
   -3    6   31      2.71      0.00
   -2    6   31      2.07      0.00
   -1    6   31      0.92      0.00
    0    6   31     -0.74      0.00
    1    6   31     -2.70      0.00
    2    6   31     -3.84      0.00
    3    6   31     -3.68      0.00
    4    6   31     -3.29      0.00
    5    6   31     -3.13      0.00
  -13    7   31      0.64      0.00
  -12    7   31      0.32      0.00
  -11    7   31      0.37      0.00
  -10    7   31      0.29      0.00
   -9    7   31     -0.39      0.00
   -8    7   31     -0.87      0.00
   -7    7   31     -0.71      0.00
   -6    7   31     -0.74      0.00
   -5    7   31     -1.16      0.00
   -4    7   31     -1.64      0.00
   -3    7   31     -3.01      0.00
   -2    7   31     -4.87      0.00
   -1    7   31     -4.24      0.00
    0    7   31     -0.68      0.00
    1    7   31      1.97      0.00
    2    7   31      1.58      0.00
    3    7   31      0.19      0.00
    4    7   31     -0.44      0.00
  -12    8   31      1.75      0.00
  -11    8   31      3.76      0.00
  -10    8   31      3.31      0.00
   -9    8   31      0.07      0.00
   -8    8   31     -2.30      0.00
   -7    8   31     -1.02      0.00
   -6    8   31      1.27      0.00
   -5    8   31      1.08      0.00
   -4    8   31      0.03      0.00
   -3    8   31      0.64      0.00
   -2    8   31      0.79      0.00
   -1    8   31     -1.38      0.00
    0    8   31     -2.99      0.00
    1    8   31     -2.09      0.00
    2    8   31     -1.18      0.00
    3    8   31     -1.81      0.00
  -10    9   31      2.44      0.00
   -9    9   31      0.18      0.00
   -8    9   31     -3.01      0.00
   -7    9   31     -4.36      0.00
   -6    9   31     -2.68      0.00
   -5    9   31      0.02      0.00
   -4    9   31      1.03      0.00
   -3    9   31      0.27      0.00
   -2    9   31     -0.49      0.00
   -1    9   31     -0.38      0.00
    0    9   31      0.34      0.00
    1    9   31      1.33      0.00
    2    9   31      2.03      0.00
   -9   10   31     -0.23      0.00
   -8   10   31     -0.74      0.00
   -7   10   31      0.39      0.00
   -6   10   31      1.23      0.00
   -5   10   31      0.85      0.00
   -4   10   31      0.37      0.00
   -3   10   31     -0.23      0.00
   -2   10   31     -2.15      0.00
   -1   10   31     -4.20      0.00
    0   10   31     -3.89      0.00
   -5   11   31     -0.10      0.00
   -4   11   31      2.44      0.00
   -3   11   31      3.51      0.00
  -15    0   32     -3.40      0.00
  -14    0   32     -3.91      0.00
  -13    0   32     -2.06      0.00
  -12    0   32     -0.81      0.00
  -11    0   32     -0.70      0.00
  -10    0   32      0.19      0.00
   -9    0   32      0.36      0.00
   -8    0   32     -2.49      0.00
   -7    0   32     -5.36      0.00
   -6    0   32     -4.35      0.00
   -5    0   32     -0.81      0.00
   -4    0   32      1.85      0.00
   -3    0   32      2.71      0.00
   -2    0   32      2.32      0.00
   -1    0   32      0.96      0.00
    0    0   32     -0.69      0.00
    1    0   32     -1.42      0.00
    2    0   32     -0.63      0.00
    3    0   32      0.75      0.00
    4    0   32      1.27      0.00
    5    0   32      0.74      0.00
    6    0   32     -0.10      0.00
  -14    1   32      0.16      0.00
  -13    1   32     -0.98      0.00
  -12    1   32     -0.90      0.00
  -11    1   32     -0.73      0.00
  -10    1   32     -1.45      0.00
   -9    1   32     -2.50      0.00
   -8    1   32     -3.42      0.00
   -7    1   32     -3.65      0.00
   -6    1   32     -2.19      0.00
   -5    1   32      0.20      0.00
   -4    1   32      1.07      0.00
   -3    1   32     -0.09      0.00
   -2    1   32     -1.47      0.00
   -1    1   32     -2.04      0.00
    0    1   32     -2.20      0.00
    1    1   32     -2.11      0.00
    2    1   32     -1.62      0.00
    3    1   32     -1.12      0.00
    4    1   32     -0.94      0.00
    5    1   32     -0.58      0.00
    6    1   32      0.37      0.00
  -14    2   32      0.79      0.00
  -13    2   32      1.27      0.00
  -12    2   32      0.53      0.00
  -11    2   32     -0.41      0.00
  -10    2   32     -0.56      0.00
   -9    2   32     -0.25      0.00
   -8    2   32     -0.02      0.00
   -7    2   32      0.17      0.00
   -6    2   32      0.38      0.00
   -5    2   32      0.45      0.00
   -4    2   32      0.52      0.00
   -3    2   32      0.91      0.00
   -2    2   32      1.76      0.00
   -1    2   32      2.75      0.00
    0    2   32      3.18      0.00
    1    2   32      2.44      0.00
    2    2   32      0.72      0.00
    3    2   32     -1.10      0.00
    4    2   32     -2.04      0.00
    5    2   32     -1.54      0.00
    6    2   32     -0.19      0.00
  -14    3   32     -0.61      0.00
  -13    3   32     -0.81      0.00
  -12    3   32      0.73      0.00
  -11    3   32      1.75      0.00
  -10    3   32      0.08      0.00
   -9    3   32     -2.37      0.00
   -8    3   32     -2.71      0.00
   -7    3   32     -1.32      0.00
   -6    3   32     -0.06      0.00
   -5    3   32      0.70      0.00
   -4    3   32      1.18      0.00
   -3    3   32      0.91      0.00
   -2    3   32     -0.07      0.00
   -1    3   32     -0.82      0.00
    0    3   32     -0.84      0.00
    1    3   32     -0.58      0.00
    2    3   32     -0.67      0.00
    3    3   32     -1.42      0.00
    4    3   32     -2.55      0.00
    5    3   32     -3.02      0.00
  -14    4   32     -0.13      0.00
  -13    4   32     -0.92      0.00
  -12    4   32     -1.25      0.00
  -11    4   32     -0.25      0.00
  -10    4   32      0.77      0.00
   -9    4   32      0.97      0.00
   -8    4   32      1.44      0.00
   -7    4   32      2.25      0.00
   -6    4   32      1.80      0.00
   -5    4   32      0.16      0.00
   -4    4   32     -1.01      0.00
   -3    4   32     -1.55      0.00
   -2    4   32     -2.01      0.00
   -1    4   32     -1.59      0.00
    0    4   32     -0.07      0.00
    1    4   32      0.93      0.00
    2    4   32      0.59      0.00
    3    4   32     -0.10      0.00
    4    4   32     -0.32      0.00
    5    4   32     -0.25      0.00
  -13    5   32     -2.00      0.00
  -12    5   32     -1.76      0.00
  -11    5   32     -1.93      0.00
  -10    5   32     -3.17      0.00
   -9    5   32     -3.69      0.00
   -8    5   32     -2.20      0.00
   -7    5   32     -0.54      0.00
   -6    5   32     -0.40      0.00
   -5    5   32     -0.24      0.00
   -4    5   32      1.48      0.00
   -3    5   32      3.47      0.00
   -2    5   32      4.36      0.00
   -1    5   32      4.41      0.00
    0    5   32      3.48      0.00
    1    5   32      1.33      0.00
    2    5   32     -0.49      0.00
    3    5   32     -0.62      0.00
    4    5   32     -0.09      0.00
    5    5   32     -0.24      0.00
  -13    6   32     -1.23      0.00
  -12    6   32     -1.20      0.00
  -11    6   32     -0.23      0.00
  -10    6   32      0.70      0.00
   -9    6   32      0.93      0.00
   -8    6   32      1.19      0.00
   -7    6   32      1.30      0.00
   -6    6   32     -0.07      0.00
   -5    6   32     -1.98      0.00
   -4    6   32     -2.25      0.00
   -3    6   32     -1.74      0.00
   -2    6   32     -1.82      0.00
   -1    6   32     -0.87      0.00
    0    6   32      1.48      0.00
    1    6   32      2.25      0.00
    2    6   32      0.77      0.00
    3    6   32     -0.26      0.00
    4    6   32     -0.18      0.00
  -12    7   32     -1.21      0.00
  -11    7   32     -0.72      0.00
  -10    7   32     -0.56      0.00
   -9    7   32     -0.93      0.00
   -8    7   32     -0.64      0.00
   -7    7   32      1.42      0.00
   -6    7   32      3.76      0.00
   -5    7   32      4.12      0.00
   -4    7   32      3.19      0.00
   -3    7   32      2.87      0.00
   -2    7   32      2.49      0.00
   -1    7   32      0.80      0.00
    0    7   32     -1.01      0.00
    1    7   32     -1.62      0.00
    2    7   32     -1.74      0.00
    3    7   32     -2.08      0.00
  -11    8   32     -0.24      0.00
  -10    8   32     -0.96      0.00
   -9    8   32     -2.04      0.00
   -8    8   32     -3.80      0.00
   -7    8   32     -5.03      0.00
   -6    8   32     -4.29      0.00
   -5    8   32     -1.88      0.00
   -4    8   32      0.10      0.00
   -3    8   32      0.08      0.00
   -2    8   32     -0.97      0.00
   -1    8   32     -0.82      0.00
    0    8   32      0.89      0.00
    1    8   32      2.38      0.00
    2    8   32      2.31      0.00
   -9    9   32     -0.80      0.00
   -8    9   32     -2.75      0.00
   -7    9   32     -1.25      0.00
   -6    9   32      0.98      0.00
   -5    9   32      0.54      0.00
   -4    9   32     -0.98      0.00
   -3    9   32     -1.22      0.00
   -2    9   32     -1.66      0.00
   -1    9   32     -3.22      0.00
    0    9   32     -3.46      0.00
   -7   10   32     -4.56      0.00
   -6   10   32     -3.40      0.00
   -5   10   32     -0.84      0.00
   -4   10   32      0.85      0.00
   -3   10   32      1.48      0.00
   -2   10   32      1.58      0.00
  -14    1   33     -2.56      0.00
  -13    1   33     -1.09      0.00
  -12    1   33     -0.35      0.00
  -11    1   33     -0.23      0.00
  -10    1   33      1.14      0.00
   -9    1   33      2.41      0.00
   -8    1   33      1.00      0.00
   -7    1   33     -1.63      0.00
   -6    1   33     -2.45      0.00
   -5    1   33     -1.60      0.00
   -4    1   33     -0.73      0.00
   -3    1   33      0.10      0.00
   -2    1   33      1.23      0.00
   -1    1   33      1.87      0.00
    0    1   33      1.26      0.00
    1    1   33      0.05      0.00
    2    1   33     -0.51      0.00
    3    1   33     -0.28      0.00
    4    1   33     -0.09      0.00
    5    1   33     -0.15      0.00
  -14    2   33     -2.15      0.00
  -13    2   33     -3.04      0.00
  -12    2   33     -1.90      0.00
  -11    2   33     -0.55      0.00
  -10    2   33     -0.72      0.00
   -9    2   33     -1.90      0.00
   -8    2   33     -3.30      0.00
   -7    2   33     -4.13      0.00
   -6    2   33     -2.90      0.00
   -5    2   33      0.22      0.00
   -4    2   33      2.61      0.00
   -3    2   33      2.69      0.00
   -2    2   33      1.60      0.00
   -1    2   33      0.75      0.00
    0    2   33      0.23      0.00
    1    2   33     -0.11      0.00
    2    2   33     -0.10      0.00
    3    2   33     -0.19      0.00
    4    2   33     -0.97      0.00
    5    2   33     -1.78      0.00
  -13    3   33      2.36      0.00
  -12    3   33      1.44      0.00
  -11    3   33      0.69      0.00
  -10    3   33      0.18      0.00
   -9    3   33     -0.35      0.00
   -8    3   33     -0.46      0.00
   -7    3   33     -0.02      0.00
   -6    3   33      0.20      0.00
   -5    3   33     -0.35      0.00
   -4    3   33     -1.36      0.00
   -3    3   33     -2.32      0.00
   -2    3   33     -2.72      0.00
   -1    3   33     -2.11      0.00
    0    3   33     -0.73      0.00
    1    3   33      0.15      0.00
    2    3   33     -0.42      0.00
    3    3   33     -1.99      0.00
    4    3   33     -3.20      0.00
  -13    4   33      0.73      0.00
  -12    4   33      1.85      0.00
  -11    4   33      2.47      0.00
  -10    4   33      0.56      0.00
   -9    4   33     -2.18      0.00
   -8    4   33     -2.64      0.00
   -7    4   33     -1.43      0.00
   -6    4   33     -0.95      0.00
   -5    4   33     -0.89      0.00
   -4    4   33      0.15      0.00
   -3    4   33      1.52      0.00
   -2    4   33      2.20      0.00
   -1    4   33      2.53      0.00
    0    4   33      2.68      0.00
    1    4   33      2.10      0.00
    2    4   33      0.94      0.00
    3    4   33     -0.09      0.00
    4    4   33     -0.67      0.00
  -12    5   33     -2.15      0.00
  -11    5   33     -0.21      0.00
  -10    5   33      1.48      0.00
   -9    5   33      1.48      0.00
   -8    5   33      1.33      0.00
   -7    5   33      1.84      0.00
   -6    5   33      1.16      0.00
   -5    5   33     -0.86      0.00
   -4    5   33     -1.91      0.00
   -3    5   33     -1.93      0.00
   -2    5   33     -2.36      0.00
   -1    5   33     -2.14      0.00
    0    5   33     -0.28      0.00
    1    5   33      1.13      0.00
    2    5   33      0.78      0.00
    3    5   33      0.23      0.00
  -12    6   33     -2.96      0.00
  -11    6   33     -2.87      0.00
  -10    6   33     -2.77      0.00
   -9    6   33     -2.33      0.00
   -8    6   33     -0.92      0.00
   -7    6   33      1.18      0.00
   -6    6   33      2.77      0.00
   -5    6   33      3.26      0.00
   -4    6   33      3.30      0.00
   -3    6   33      3.29      0.00
   -2    6   33      2.67      0.00
   -1    6   33      1.14      0.00
    0    6   33     -0.72      0.00
    1    6   33     -2.17      0.00
    2    6   33     -2.67      0.00
    3    6   33     -1.96      0.00
  -11    7   33     -2.15      0.00
  -10    7   33     -2.68      0.00
   -9    7   33     -2.08      0.00
   -8    7   33     -1.03      0.00
   -7    7   33     -0.73      0.00
   -6    7   33     -1.14      0.00
   -5    7   33     -0.58      0.00
   -4    7   33      1.30      0.00
   -3    7   33      2.03      0.00
   -2    7   33      0.66      0.00
   -1    7   33     -0.21      0.00
    0    7   33      0.60      0.00
    1    7   33      0.89      0.00
    2    7   33     -0.17      0.00
   -9    8   33     -0.65      0.00
   -8    8   33     -2.02      0.00
   -7    8   33     -0.72      0.00
   -6    8   33      1.54      0.00
   -5    8   33      1.31      0.00
   -4    8   33     -0.27      0.00
   -3    8   33     -0.30      0.00
   -2    8   33      0.24      0.00
   -1    8   33     -0.31      0.00
    0    8   33     -0.47      0.00
   -7    9   33     -5.52      0.00
   -6    9   33     -4.91      0.00
   -5    9   33     -2.12      0.00
   -4    9   33      0.00      0.00
   -3    9   33      0.82      0.00
   -2    9   33      1.22      0.00
  -13    0   34     -0.76      0.00
  -12    0   34     -0.33      0.00
  -11    0   34     -0.62      0.00
  -10    0   34      0.89      0.00
   -9    0   34      2.78      0.00
   -8    0   34      1.73      0.00
   -7    0   34     -1.09      0.00
   -6    0   34     -2.33      0.00
   -5    0   34     -1.88      0.00
   -4    0   34     -1.16      0.00
   -3    0   34     -0.03      0.00
   -2    0   34      1.70      0.00
   -1    0   34      2.73      0.00
    0    0   34      1.99      0.00
    1    0   34      0.36      0.00
    2    0   34     -0.42      0.00
    3    0   34      0.02      0.00
    4    0   34      0.57      0.00
  -13    1   34     -2.78      0.00
  -12    1   34     -2.72      0.00
  -11    1   34     -2.15      0.00
  -10    1   34     -1.48      0.00
   -9    1   34     -1.11      0.00
   -8    1   34     -2.27      0.00
   -7    1   34     -4.56      0.00
   -6    1   34     -5.24      0.00
   -5    1   34     -3.25      0.00
   -4    1   34     -0.93      0.00
   -3    1   34     -0.32      0.00
   -2    1   34     -0.82      0.00
   -1    1   34     -1.28      0.00
    0    1   34     -1.55      0.00
    1    1   34     -1.56      0.00
    2    1   34     -0.77      0.00
    3    1   34      0.50      0.00
    4    1   34      1.05      0.00
  -13    2   34      1.57      0.00
  -12    2   34      1.31      0.00
  -11    2   34      0.26      0.00
  -10    2   34     -0.01      0.00
   -9    2   34      0.39      0.00
   -8    2   34     -0.03      0.00
   -7    2   34     -1.02      0.00
   -6    2   34     -1.07      0.00
   -5    2   34     -0.38      0.00
   -4    2   34     -0.26      0.00
   -3    2   34     -0.68      0.00
   -2    2   34     -0.65      0.00
   -1    2   34     -0.17      0.00
    0    2   34     -0.08      0.00
    1    2   34     -0.59      0.00
    2    2   34     -1.03      0.00
    3    2   34     -1.09      0.00
  -12    3   34      0.64      0.00
  -11    3   34      2.63      0.00
  -10    3   34      2.31      0.00
   -9    3   34      0.31      0.00
   -8    3   34     -1.43      0.00
   -7    3   34     -2.57      0.00
   -6    3   34     -3.32      0.00
   -5    3   34     -3.27      0.00
   -4    3   34     -2.52      0.00
   -3    3   34     -1.82      0.00
   -2    3   34     -1.10      0.00
   -1    3   34     -0.05      0.00
    0    3   34      0.75      0.00
    1    3   34      0.71      0.00
    2    3   34      0.19      0.00
    3    3   34     -0.47      0.00
  -12    4   34      0.39      0.00
  -11    4   34      1.85      0.00
  -10    4   34      3.13      0.00
   -9    4   34      2.70      0.00
   -8    4   34      1.79      0.00
   -7    4   34      1.90      0.00
   -6    4   34      2.05      0.00
   -5    4   34      1.04      0.00
   -4    4   34     -0.49      0.00
   -3    4   34     -2.06      0.00
   -2    4   34     -3.79      0.00
   -1    4   34     -4.50      0.00
    0    4   34     -3.01      0.00
    1    4   34     -0.71      0.00
    2    4   34      0.27      0.00
    3    4   34     -0.11      0.00
  -11    5   34      0.44      0.00
  -10    5   34      0.17      0.00
   -9    5   34     -0.84      0.00
   -8    5   34     -0.76      0.00
   -7    5   34      0.35      0.00
   -6    5   34      0.85      0.00
   -5    5   34      0.46      0.00
   -4    5   34      0.25      0.00
   -3    5   34      0.47      0.00
   -2    5   34      0.64      0.00
   -1    5   34      0.71      0.00
    0    5   34      0.81      0.00
    1    5   34      0.83      0.00
    2    5   34      0.64      0.00
  -10    6   34     -0.53      0.00
   -9    6   34     -1.12      0.00
   -8    6   34     -1.00      0.00
   -7    6   34     -0.28      0.00
   -6    6   34     -0.58      0.00
   -5    6   34     -1.13      0.00
   -4    6   34      0.03      0.00
   -3    6   34      1.53      0.00
   -2    6   34      1.33      0.00
   -1    6   34      1.12      0.00
    0    6   34      2.28      0.00
    1    6   34      2.63      0.00
   -9    7   34      0.42      0.00
   -8    7   34      0.06      0.00
   -7    7   34      0.97      0.00
   -6    7   34      2.37      0.00
   -5    7   34      2.10      0.00
   -4    7   34      0.82      0.00
   -3    7   34      0.49      0.00
   -2    7   34      0.51      0.00
   -1    7   34     -0.27      0.00
    0    7   34     -0.86      0.00
   -7    8   34     -2.37      0.00
   -6    8   34     -2.63      0.00
   -5    8   34     -0.65      0.00
   -4    8   34      2.12      0.00
   -3    8   34      3.28      0.00
   -2    8   34      2.51      0.00
  -12    1   35      1.75      0.00
  -11    1   35      0.23      0.00
  -10    1   35     -0.01      0.00
   -9    1   35      0.91      0.00
   -8    1   35      0.49      0.00
   -7    1   35     -1.08      0.00
   -6    1   35     -1.58      0.00
   -5    1   35     -1.01      0.00
   -4    1   35     -0.70      0.00
   -3    1   35     -0.45      0.00
   -2    1   35      0.44      0.00
   -1    1   35      1.24      0.00
    0    1   35      0.79      0.00
    1    1   35     -0.60      0.00
    2    1   35     -1.48      0.00
  -11    2   35     -0.65      0.00
  -10    2   35      0.54      0.00
   -9    2   35      1.25      0.00
   -8    2   35      0.42      0.00
   -7    2   35     -2.14      0.00
   -6    2   35     -4.16      0.00
   -5    2   35     -3.75      0.00
   -4    2   35     -2.13      0.00
   -3    2   35     -1.08      0.00
   -2    2   35     -0.31      0.00
   -1    2   35      0.75      0.00
    0    2   35      1.23      0.00
    1    2   35      0.76      0.00
    2    2   35      0.55      0.00
  -11    3   35     -0.45      0.00
  -10    3   35     -0.64      0.00
   -9    3   35     -0.94      0.00
   -8    3   35     -1.76      0.00
   -7    3   35     -2.21      0.00
   -6    3   35     -1.14      0.00
   -5    3   35      0.83      0.00
   -4    3   35      1.95      0.00
   -3    3   35      1.36      0.00
   -2    3   35     -0.33      0.00
   -1    3   35     -1.79      0.00
    0    3   35     -2.16      0.00
    1    3   35     -1.71      0.00
    2    3   35     -1.12      0.00
  -11    4   35      3.84      0.00
  -10    4   35      3.40      0.00
   -9    4   35      1.37      0.00
   -8    4   35     -0.08      0.00
   -7    4   35     -0.61      0.00
   -6    4   35     -1.34      0.00
   -5    4   35     -2.35      0.00
   -4    4   35     -2.89      0.00
   -3    4   35     -2.72      0.00
   -2    4   35     -1.83      0.00
   -1    4   35     -0.49      0.00
    0    4   35      0.55      0.00
    1    4   35      0.88      0.00
  -10    5   35      2.66      0.00
   -9    5   35      1.73      0.00
   -8    5   35      0.47      0.00
   -7    5   35      0.80      0.00
   -6    5   35      1.21      0.00
   -5    5   35      0.48      0.00
   -4    5   35     -0.04      0.00
   -3    5   35     -0.15      0.00
   -2    5   35     -0.94      0.00
   -1    5   35     -1.30      0.00
    0    5   35      0.16      0.00
   -9    6   35      1.30      0.00
   -8    6   35      0.84      0.00
   -7    6   35      1.06      0.00
   -6    6   35      1.54      0.00
   -5    6   35      0.85      0.00
   -4    6   35     -0.54      0.00
   -3    6   35     -1.16      0.00
   -2    6   35     -1.19      0.00
   -1    6   35     -1.43      0.00
   -6    7   35      0.42      0.00
   -5    7   35      0.81      0.00
   -4    7   35      2.58      0.00
   -3    7   35      3.50      0.00
  -10    0   36     -0.58      0.00
   -9    0   36     -0.08      0.00
   -8    0   36     -0.06      0.00
   -7    0   36     -0.36      0.00
   -6    0   36      0.20      0.00
   -5    0   36      0.96      0.00
   -4    0   36      1.02      0.00
   -3    0   36      1.25      0.00
   -2    0   36      2.33      0.00
   -1    0   36      3.23      0.00
    0    0   36      2.74      0.00
    1    0   36      1.10      0.00
  -10    1   36     -1.56      0.00
   -9    1   36     -0.10      0.00
   -8    1   36      0.33      0.00
   -7    1   36     -1.25      0.00
   -6    1   36     -3.19      0.00
   -5    1   36     -3.66      0.00
   -4    1   36     -3.00      0.00
   -3    1   36     -2.33      0.00
   -2    1   36     -1.63      0.00
   -1    1   36     -0.61      0.00
    0    1   36      0.09      0.00
    1    1   36      0.03      0.00
  -10    2   36     -2.71      0.00
   -9    2   36     -2.38      0.00
   -8    2   36     -2.43      0.00
   -7    2   36     -3.10      0.00
   -6    2   36     -2.28      0.00
   -5    2   36      0.34      0.00
   -4    2   36      2.49      0.00
   -3    2   36      2.76      0.00
   -2    2   36      1.82      0.00
   -1    2   36      0.66      0.00
    0    2   36     -0.39      0.00
   -9    3   36      0.92      0.00
   -8    3   36      0.22      0.00
   -7    3   36     -1.10      0.00
   -6    3   36     -2.74      0.00
   -5    3   36     -3.62      0.00
   -4    3   36     -3.73      0.00
   -3    3   36     -3.51      0.00
   -2    3   36     -2.47      0.00
   -1    3   36     -0.65      0.00
    0    3   36      0.39      0.00
   -9    4   36      1.21      0.00
   -8    4   36     -0.43      0.00
   -7    4   36     -1.17      0.00
   -6    4   36     -0.58      0.00
   -5    4   36      0.26      0.00
   -4    4   36      0.63      0.00
   -3    4   36      0.11      0.00
   -2    4   36     -1.43      0.00
   -1    4   36     -2.70      0.00
   -7    5   36      1.73      0.00
   -6    5   36      1.50      0.00
   -5    5   36      0.58      0.00
   -4    5   36     -0.87      0.00
   -3    5   36     -1.81      0.00
   -2    5   36     -1.91      0.00
   -8    1   37     -1.27      0.00
   -7    1   37     -1.70      0.00
   -6    1   37     -1.22      0.00
   -5    1   37     -0.02      0.00
   -4    1   37      0.68      0.00
   -3    1   37      0.84      0.00
   -2    1   37      1.01      0.00
   -8    2   37      2.08      0.00
   -7    2   37      1.16      0.00
   -6    2   37     -0.93      0.00
   -5    2   37     -2.39      0.00
   -4    2   37     -2.91      0.00
   -3    2   37     -2.95      0.00
   -2    2   37     -2.00      0.00
   -7    3   37     -2.36      0.00
   -6    3   37     -1.99      0.00
   -5    3   37      0.13      0.00
   -4    3   37      2.31      0.00
   -3    3   37      2.81      0.00
    1    0    0    300.98      0.00
    2    0    0    129.35      0.00
    1    1    0     45.00      0.00
    0    2    0     49.61      0.00
   20    3    0      1.65      0.00
   19    7    0      0.04      0.00
   18    9    0     -1.39      0.00
   16   10    0      1.03      0.00
   16   12    0      0.19      0.00
   13   15    0     -2.25      0.00
   10   17    0     -1.14      0.00
    8   18    0      0.91      0.00
    3   19    0      1.42      0.00
    5   19    0     -0.35      0.00
   -2    1    1     13.48      0.00
   -1    1    1    119.61      0.00
    0    1    1    190.07      0.00
    1    1    1    149.95      0.00
    0    2    1     63.44      0.00
   20    2    1      1.05      0.00
   20    3    1     -1.03      0.00
  -20    4    1     -1.07      0.00
   18    5    1      2.71      0.00
  -18    7    1      4.64      0.00
  -16   10    1      0.33      0.00
   16   10    1      4.79      0.00
  -17   11    1     -0.59      0.00
   16   12    1      1.66      0.00
   15   13    1      2.37      0.00
   14   14    1      3.10      0.00
   12   15    1      3.09      0.00
   13   15    1      2.35      0.00
  -12   16    1      3.12      0.00
  -11   16    1      1.60      0.00
   10   17    1      1.25      0.00
    8   18    1     -0.46      0.00
   -5   19    1      0.19      0.00
    4   19    1     -1.04      0.00
    5   19    1     -1.18      0.00
   -2    0    2    -15.15      0.00
   -1    0    2     80.46      0.00
    0    0    2    166.28      0.00
    1    0    2    147.24      0.00
   20    0    2     -2.55      0.00
   -1    1    2     56.85      0.00
    0    1    2    109.80      0.00
    1    1    2    135.46      0.00
   20    1    2     -1.40      0.00
   18    5    2      2.27      0.00
   19    6    2      0.13      0.00
  -16   10    2      1.36      0.00
   16   10    2     -4.73      0.00
  -17   11    2      1.34      0.00
   15   13    2      2.99      0.00
   14   14    2      2.46      0.00
   12   15    2     -0.53      0.00
  -12   16    2     -2.06      0.00
    3   18    2      0.77      0.00
   -5   19    2      1.89      0.00
   -3   19    2      1.38      0.00
    4   19    2      3.76      0.00
   -1    1    3    -58.38      0.00
    0    1    3      2.81      0.00
  -20    5    3     -1.28      0.00
   18    8    3     -0.19      0.00
  -16   10    3      0.05      0.00
   16   10    3      4.22      0.00
   17   10    3      2.94      0.00
   12   15    3      0.93      0.00
  -12   16    3      1.06      0.00
   -5   19    3      2.25      0.00
  -14    0    4      0.17      0.00
   -1    0    4    -82.67      0.00
    0    0    4    -28.60      0.00
  -20    5    4     -1.20      0.00
   19    5    4      0.21      0.00
  -19    8    4     -2.75      0.00
  -12   16    4     -0.92      0.00
   11   16    4     -1.48      0.00
   -5   19    4     -1.51      0.00
   -4   19    4     -0.27      0.00
    4   19    4      2.08      0.00
   19    4    5     -2.36      0.00
  -19    5    5     -0.04      0.00
  -19    8    5     -1.48      0.00
  -15    8    5      0.20      0.00
  -18   10    5     -1.86      0.00
   16   11    5     -2.03      0.00
  -13   15    5      0.33      0.00
  -12   16    5     -0.39      0.00
   10   16    5      0.78      0.00
    9   17    5     -0.31      0.00
    7   18    5     -2.16      0.00
   -5   19    5      1.69      0.00
   -4   19    5      0.46      0.00
  -20    3    6      1.22      0.00
   19    3    6     -1.46      0.00
  -19    5    6      1.01      0.00
   17    5    6     -0.28      0.00
  -19    8    6      0.04      0.00
   17    9    6      0.88      0.00
  -18   10    6     -0.44      0.00
   15   12    6     -2.99      0.00
   14   13    6     -0.51      0.00
   13   14    6     -2.64      0.00
  -13   15    6     -1.30      0.00
   12   15    6      1.39      0.00
  -12   16    6      2.51      0.00
    5   18    6      2.74      0.00
   -5   19    6     -2.85      0.00
   -4   19    6     -1.40      0.00
   -3   19    6      0.81      0.00
    2   19    6     -2.00      0.00
    3   19    6     -0.90      0.00
   19    1    7      1.09      0.00
  -19    5    7     -0.01      0.00
   17    5    7     -1.89      0.00
   18    6    7     -0.88      0.00
  -17    7    7      2.64      0.00
  -18   10    7      0.18      0.00
  -12   16    7     -2.62      0.00
   10   16    7     -1.63      0.00
   -8   18    7      1.00      0.00
    6   18    7     -3.11      0.00
   -4   19    7     -0.34      0.00
   -3   19    7     -1.52      0.00
    2   19    7     -0.72      0.00
  -19    5    8      3.79      0.00
   17    5    8      1.43      0.00
   18    5    8      0.57      0.00
  -20    6    8     -1.97      0.00
  -15    8    8     -0.76      0.00
   17    8    8      2.39      0.00
  -18   10    8      2.43      0.00
  -17   10    8      1.50      0.00
  -12   16    8      1.82      0.00
    9   16    8      2.43      0.00
   10   16    8      1.89      0.00
    8   17    8      0.25      0.00
   -8   18    8      0.50      0.00
    4   18    8      0.20      0.00
   -4   19    8     -0.27      0.00
   -3   19    8      0.95      0.00
    1   19    8     -1.54      0.00
    2   19    8     -0.81      0.00
   18    3    9     -0.56      0.00
   18    4    9      1.04      0.00
  -19    5    9     -1.63      0.00
  -20    6    9      0.27      0.00
  -15    8    9     -2.23      0.00
  -18   10    9     -0.21      0.00
   11   15    9      2.21      0.00
  -12   16    9     -1.32      0.00
  -10   17    9      1.17      0.00
    3   18    9      0.32      0.00
    4   18    9     -0.18      0.00
   -3   19    9      0.59      0.00
   -2   19    9     -0.35      0.00
   -1   19    9     -0.51      0.00
    0   19    9     -0.01      0.00
    1   19    9     -0.27      0.00
   18    3   10     -0.99      0.00
  -19    5   10      4.23      0.00
   16    5   10      2.78      0.00
  -20    6   10     -1.84      0.00
  -15    8   10     -0.43      0.00
  -18   10   10      0.77      0.00
    9   16   10      0.39      0.00
  -10   17   10     -0.74      0.00
    2   18   10      0.11      0.00
    3   18   10     -2.13      0.00
   -1   19   10     -0.98      0.00
  -19    5   11     -0.18      0.00
   17    6   11      0.93      0.00
  -19    8   11     -2.30      0.00
  -15    8   11      1.09      0.00
  -18   10   11      0.25      0.00
   15   10   11      0.10      0.00
   -7   18   11      0.80      0.00
    4   18   11      2.47      0.00
   17    0   12     -0.77      0.00
  -19    5   12      1.11      0.00
   17    5   12     -0.16      0.00
  -19    8   12     -1.09      0.00
  -15    8   12     -0.93      0.00
   14   11   12      0.06      0.00
   13   12   12      0.82      0.00
   11   14   12      1.02      0.00
  -13   15   12     -0.29      0.00
    3   18   12     -0.69      0.00
   17    3   13      0.04      0.00
  -19    5   13      1.48      0.00
  -19    8   13      0.29      0.00
  -17   11   13      0.12      0.00
   -9   17   13     -1.07      0.00
   -6   18   13      0.01      0.00
    2   18   13      0.82      0.00
   17    0   14     -0.02      0.00
   17    1   14     -1.58      0.00
  -20    5   14     -0.06      0.00
   16    6   14     -0.61      0.00
   15    8   14     -0.09      0.00
  -17   11   14     -0.54      0.00
  -16   12   14      1.47      0.00
  -14   14   14     -0.36      0.00
  -11   16   14     -1.00      0.00
    7   16   14     -0.98      0.00
    5   17   14      1.38      0.00
   -5   18   14     -0.68      0.00
   -2   18   14      0.52      0.00
    1   18   14     -1.11      0.00
  -20    5   15     -0.36      0.00
  -16   12   15     -1.06      0.00
  -15   13   15      1.56      0.00
   11   13   15      0.87      0.00
   -8   17   15     -0.98      0.00
    4   17   15     -1.27      0.00
   -3   18   15      1.46      0.00
   -2   18   15      0.19      0.00
   -1   18   15     -0.60      0.00
  -17    0   16      1.60      0.00
   16    3   16      0.80      0.00
  -19    7   16     -1.61      0.00
  -18    9   16     -0.48      0.00
   13   10   16      0.97      0.00
  -12   15   16      0.44      0.00
    6   16   16     -0.63      0.00
    3   17   16     -0.60      0.00
   12    3   17      0.41      0.00
  -20    4   17      0.53      0.00
   15    5   17      1.50      0.00
  -19    7   17      1.02      0.00
   11   12   17     -1.14      0.00
   10   13   17     -0.86      0.00
    8   14   17      1.29      0.00
    7   15   17     -0.44      0.00
    5   16   17     -0.17      0.00
   -7   17   17     -0.21      0.00
    2   17   17     -0.03      0.00
  -20    3   18     -0.85      0.00
   15    4   18      0.28      0.00
  -17   10   18     -2.65      0.00
  -13   14   18     -0.19      0.00
    7   14   18     -1.06      0.00
    8   14   18     -0.97      0.00
   -9   16   18      0.05      0.00
   -6   17   18     -0.03      0.00
   -5   17   18     -0.39      0.00
    1   17   18      0.25      0.00
   15    1   19     -0.01      0.00
  -20    2   19     -3.59      0.00
   13    4   19      2.41      0.00
  -19    6   19     -0.61      0.00
  -18    8   19     -1.23      0.00
   13    8   19     -1.09      0.00
  -16   11   19     -1.70      0.00
  -15   12   19     -1.44      0.00
  -14   13   19     -2.62      0.00
   -4   17   19      0.42      0.00
   -3   17   19     -0.26      0.00
   -2   17   19      0.16      0.00
  -20    0   20     -0.57      0.00
  -20    1   20     -2.32      0.00
   14    4   20     -0.61      0.00
   13    7   20     -0.31      0.00
   11   10   20      0.58      0.00
    8   13   20      1.49      0.00
  -12   14   20     -0.07      0.00
    5   15   20     -0.83      0.00
    2   16   20     -1.11      0.00
   14    1   21      1.97      0.00
   14    2   21     -0.30      0.00
  -19    5   21      0.44      0.00
   12    5   21     -1.36      0.00
  -17    9   21      1.05      0.00
  -13   13   21      0.48      0.00
    6   14   21      0.54      0.00
    4   15   21     -2.06      0.00
   -6   16   21     -0.04      0.00
  -19    4   22      1.34      0.00
   13    4   22     -1.72      0.00
   11    5   22     -3.37      0.00
   10   10   22     -1.25      0.00
  -15   11   22      1.07      0.00
    9   11   22     -1.16      0.00
  -14   12   22      2.08      0.00
    8   12   22      0.52      0.00
  -11   14   22      0.03      0.00
    5   14   22     -0.34      0.00
   -4   16   22      1.31      0.00
   -3   16   22      1.25      0.00
   -2   16   22      0.64      0.00
   13    1   23      1.41      0.00
  -19    3   23     -1.41      0.00
  -18    6   23      2.51      0.00
   10    6   23      1.46      0.00
  -17    8   23     -1.48      0.00
   10    9   23     -0.33      0.00
  -12   13   23      0.11      0.00
  -10   14   23      0.43      0.00
    4   14   23      4.21      0.00
    1   15   23      0.51      0.00
  -19    0   24      3.91      0.00
  -19    1   24      0.26      0.00
   12    4   24     -0.04      0.00
  -18    5   24      0.82      0.00
    9    6   24      0.58      0.00
   10    6   24      0.25      0.00
   10    8   24      0.50      0.00
  -16    9   24      0.34      0.00
  -15   10   24     -2.18      0.00
  -14   11   24     -0.48      0.00
  -13   12   24      1.32      0.00
    5   13   24      1.14      0.00
    3   14   24     -1.74      0.00
   -6   15   24      0.12      0.00
   -5   15   24     -0.65      0.00
   -1   15   24      2.20      0.00
  -18    4   25     -1.09      0.00
   11    5   25     -0.65      0.00
   10    7   25      0.81      0.00
    4   13   25     -1.06      0.00
   -8   14   25      0.03      0.00
   11    2   26     -1.31      0.00
  -18    3   26     -0.75      0.00
   11    3   26      0.74      0.00
  -17    6   26      0.06      0.00
    2    8   26     -0.41      0.00
  -15    9   26      0.19      0.00
    8    9   26      1.16      0.00
  -14   10   26      0.24      0.00
    7   10   26     -1.44      0.00
  -13   11   26     -0.15      0.00
    6   11   26      2.11      0.00
   -6   14   26     -0.80      0.00
   -1   14   26     -1.10      0.00
   10    4   27      1.42      0.00
  -17    5   27      0.57      0.00
  -16    7   27     -0.91      0.00
    0    8   27     -1.51      0.00
    8    8   27     -0.73      0.00
    7    9   27     -2.12      0.00
    6   10   27      0.89      0.00
    5   11   27     -0.71      0.00
   -8   13   27      1.20      0.00
    1   13   27     -1.30      0.00
  -17    3   28     -2.01      0.00
  -16    6   28      1.03      0.00
    7    8   28     -1.14      0.00
    5   10   28      0.86      0.00
    2   12   28     -1.26      0.00
   -6   13   28     -0.77      0.00
   -2   13   28     -0.58      0.00
   -1   13   28      0.36      0.00
  -17    1   29     -0.72      0.00
    9    1   29     -0.54      0.00
    9    2   29     -0.08      0.00
  -16    5   29      0.34      0.00
    8    5   29     -0.68      0.00
    7    7   29      1.27      0.00
  -14    8   29     -0.60      0.00
  -13    9   29     -0.34      0.00
  -12   10   29      0.02      0.00
    4   10   29      0.92      0.00
   -8   12   29     -1.71      0.00
    0   12   29     -0.01      0.00
  -16    3   30     -1.18      0.00
    8    3   30     -0.73      0.00
  -14    7   30      0.17      0.00
    6    7   30     -1.46      0.00
    5    8   30      1.48      0.00
    4    9   30     -1.22      0.00
  -11   10   30      1.19      0.00
   -9   11   30     -0.68      0.00
    1   11   30      0.00      0.00
   -5   12   30      0.28      0.00
   -4   12   30      2.72      0.00
   -3   12   30      3.57      0.00
    7    3   31     -0.19      0.00
  -15    4   31     -1.68      0.00
  -14    6   31     -0.62      0.00
    5    7   31     -0.47      0.00
    4    8   31     -2.32      0.00
  -11    9   31      2.62      0.00
    3    9   31      1.82      0.00
    1   10   31     -1.87      0.00
   -7   11   31     -2.49      0.00
   -6   11   31     -2.21      0.00
   -2   11   31      2.68      0.00
  -15    1   32      1.17      0.00
  -15    2   32     -0.40      0.00
    6    3   32     -2.24      0.00
  -14    5   32     -1.31      0.00
  -10    9   32      1.88      0.00
    1    9   32     -1.84      0.00
   -8   10   32     -2.69      0.00
   -1   10   32      0.97      0.00
  -14    3   33      2.34      0.00
    5    3   33     -3.02      0.00
  -13    5   33     -2.33      0.00
    4    5   33      0.28      0.00
  -10    8   33      0.70      0.00
    1    8   33      0.53      0.00
   -8    9   33     -2.90      0.00
   -1    9   33      1.22      0.00
    4    2   34     -0.99      0.00
  -13    3   34     -1.25      0.00
  -12    5   34     -0.43      0.00
  -11    6   34     -0.40      0.00
    2    6   34      1.20      0.00
  -10    7   34      0.41      0.00
   -8    8   34     -1.29      0.00
   -1    8   34      1.27      0.00
    3    1   35     -1.21      0.00
  -12    2   35     -2.06      0.00
  -12    3   35      0.02      0.00
    2    4   35      0.69      0.00
    1    5   35      1.65      0.00
    0    6   35     -1.42      0.00
   -8    7   35     -0.18      0.00
   -7    7   35      0.64      0.00
   -2    7   35      2.08      0.00
  -11    0   36      0.18      0.00
  -11    1   36     -2.23      0.00
  -11    2   36     -1.64      0.00
    1    2   36     -1.15      0.00
  -10    3   36      1.45      0.00
    0    4   36     -2.39      0.00
   -8    5   36      2.07      0.00
   -1    5   36     -1.68      0.00
   -6    6   36      0.34      0.00
   -5    6   36      0.05      0.00
   -4    6   36      0.50      0.00
   -3    6   36      1.21      0.00
   -9    1   37     -1.09      0.00
   -1    1   37      1.10      0.00
   -9    2   37      1.18      0.00
   -1    2   37     -0.07      0.00
   -8    3   37     -1.55      0.00
   -2    3   37      1.67      0.00
   -7    4   37     -0.73      0.00
   -6    4   37     -0.75      0.00
   -5    4   37     -0.40      0.00
   -4    4   37     -0.22      0.00
   -3    4   37     -0.43      0.00
    0    0    0      0.00      0.00
# SQUEEZE RESULTS (Version = 150216)
# Note: Data are Listed for all Voids in the P1 Unit Cell
# i.e. Centre of Gravity, Solvent Accessible Volume,
# Recovered number of Electrons in the Void and
# Details about the Squeezed Material
loop_
  _platon_squeeze_void_nr
  _platon_squeeze_void_average_x
  _platon_squeeze_void_average_y
  _platon_squeeze_void_average_z
  _platon_squeeze_void_volume
  _platon_squeeze_void_count_electrons
  _platon_squeeze_void_content
   1  0.000  0.000  0.000       529       183 ' '
   2  0.000  0.500  0.500       529       183 ' '
# Missing Reflections Below sin(th)/lambda = 0.25
loop_
  _platon_missing_refln_index_h
  _platon_missing_refln_index_k
  _platon_missing_refln_index_l
  _platon_missing_refln_theta
    1    0    0     1.307
    2    0    0     2.615
    1    1    0     1.881
    0    2    0     2.706
   -2    1    1     2.875
   -1    1    1     1.897
    0    1    1     1.534
    1    1    1     2.127
    0    2    1     2.802
   -2    0    2     2.660
   -1    0    2     1.695
    0    0    2     1.446
    1    0    2     2.174
   -1    1    2     2.169
    0    1    2     1.981
    1    1    2     2.561
   -1    1    3     2.619
    0    1    3     2.557
   -1    0    4     2.869
    0    0    4     2.893
_platon_squeeze_void_probe_radius                  1.20
_platon_squeeze_details
)
TITL PD81       P 21/c       R = 0.17
CELL   16.0673   15.0517   29.0440     90.00    104.18     90.00
SPGR P21/c
# Solvent Accessible Volume =      1059
# Electrons Found in S.A.V. =       364
# Note: Atoms in Void as Cxxx and Qxxx all others
C101 0.886 0.890 0.117 !       5.86 eA-3
C102 0.931 0.440 0.334 !       5.43 eA-3
C103 0.198 0.582 0.484 !       5.07 eA-3
C104 0.026 0.199 0.451 !       2.86 eA-3
C105 0.093 0.832 0.025 !       2.45 eA-3
C106 0.921 0.418 0.471 !       1.99 eA-3
C107 0.904 0.418 0.500 !       1.88 eA-3
C108 0.033 0.446 0.346 !       1.86 eA-3
Q109 0.160 0.683 0.076 !       1.78 eA-3
C110 0.937 0.295 0.451 !       1.76 eA-3
C111 0.892 0.109 0.055 !       1.70 eA-3
C112 0.862 0.368 0.475 !       1.69 eA-3
C113 0.934 0.965 0.126 !       1.69 eA-3
C114 0.121 0.578 0.475 !       1.68 eA-3
C115 0.976 0.033 0.038 !       1.64 eA-3
Q116 0.856 0.927 0.436 !       1.64 eA-3
C117 0.151 0.622 0.434 !       1.64 eA-3
C118 0.993 0.751 0.083 !       1.63 eA-3
C119 0.953 0.015 0.077 !       1.42 eA-3
Q120 0.930 0.202 0.405 !       1.39 eA-3
Q121 0.610 0.625 0.055 !       1.29 eA-3
C122 0.062 0.546 0.454 !       1.20 eA-3
C123 0.015 0.998 0.467 !       1.20 eA-3
C124 0.128 0.570 0.424 !       1.17 eA-3
Q125 0.931 0.942 0.461 !       1.16 eA-3
C126 0.075 0.537 0.391 !       1.15 eA-3
C127 0.009 0.294 0.394 !       1.14 eA-3
C128 0.041 0.266 0.405 !       1.09 eA-3
Q129 0.766 0.097 0.176 !       1.03 eA-3
Q130 0.375 0.028 0.249 !       1.03 eA-3
C131 0.036 0.435 0.391 !       0.98 eA-3
Q132 0.845 0.559 0.171 !       0.96 eA-3
C133 0.071 0.630 0.459 !       0.96 eA-3
C134 1.002 0.483 0.369 !       0.95 eA-3
Q135 0.260 0.019 0.288 !       0.95 eA-3
Q136 0.437 0.781 0.461 !       0.91 eA-3
Q137 0.344 0.688 0.212 !       0.91 eA-3
C138 0.120 0.907 0.140 !       0.91 eA-3
Q139 0.989 0.455 0.024 !       0.91 eA-3
Q140 0.986 0.651 0.408 !       0.90 eA-3
C141 1.002 0.879 0.109 !       0.88 eA-3
Q142 0.682 0.501 0.229 !       0.86 eA-3
Q143 0.598 0.357 0.210 !       0.82 eA-3
Q144 0.575 0.527 0.219 !       0.81 eA-3
Q145 0.117 0.423-0.001 !       0.79 eA-3
Q146 0.286 0.885 0.414 !       0.78 eA-3
C147 0.999 0.980 0.096 !       0.78 eA-3
Q148 0.345 0.579 0.433 !       0.77 eA-3
Q149 0.483 0.047 0.282 !       0.76 eA-3
Q150 0.034 0.997 0.366 !       0.76 eA-3
Q151 0.346 0.887 0.445 !       0.74 eA-3
Q152 0.368 0.671 0.407 !       0.73 eA-3
Q153 0.160 0.045 0.389 !       0.73 eA-3
Q154 0.698 0.452 0.079 !       0.72 eA-3
Q155 0.753 0.644 0.172 !       0.71 eA-3
Q156 0.279 0.052 0.303 !       0.71 eA-3
Q157 0.883 0.251 0.455 !       0.71 eA-3
C158 0.062 0.655 0.486 !       0.70 eA-3
Q159 0.287 0.596 0.353 !       0.69 eA-3
Q160 0.604 0.118 0.102 !       0.69 eA-3
Q161 0.265 0.059 0.366 !       0.69 eA-3
C162 0.964 0.404 0.501 !       0.69 eA-3
Q163 0.875 0.501 0.309 !       0.69 eA-3
C164 0.866 0.170 0.090 !       0.67 eA-3
C165 0.829 0.965 0.082 !       0.66 eA-3
Q166 0.108 0.623 0.390 !       0.65 eA-3
Q167 0.108 0.918 0.336 !       0.65 eA-3
C168 0.998 0.477 0.450 !       0.64 eA-3
Q169 0.274 0.713 0.212 !       0.64 eA-3
Q170 0.282 0.430 0.041 !       0.63 eA-3
Q171 0.406 0.060 0.320 !       0.63 eA-3
C172 0.953 0.858 0.181 !       0.62 eA-3
C173 0.019 0.986 0.015 !       0.61 eA-3
Q174 0.891 0.670 0.372 !       0.61 eA-3
Q175 0.898 0.514 0.141 !       0.61 eA-3
C176 0.902 0.189 0.028 !       0.60 eA-3
Q177 0.747 0.048 0.320 !       0.60 eA-3
C178 0.108 0.752 0.133 !       0.60 eA-3
Q179 0.942 0.190 0.500 !       0.60 eA-3
Q180 0.456 0.362 0.321 !       0.59 eA-3
Q181 0.752 0.096 0.127 !       0.59 eA-3
Q182 0.140 0.596 0.094 !       0.59 eA-3
Q183 0.081 0.969 0.257 !       0.59 eA-3
Q184 0.578 0.438 0.211 !       0.59 eA-3
Q185 0.299 0.843 0.458 !       0.58 eA-3
Q186 0.713 0.322 0.350 !       0.58 eA-3
Q187 0.728 0.870 0.007 !       0.57 eA-3
Q188 0.306 0.393 0.062 !       0.57 eA-3
Q189 0.457 0.658 0.093 !       0.57 eA-3
Q190 0.830 0.373 0.374 !       0.57 eA-3
Q191 0.385 0.671 0.232 !       0.57 eA-3
Q192 0.070 0.144 0.470 !       0.57 eA-3
C193 0.998 0.866 0.077 !       0.57 eA-3
Q194 0.218 0.096 0.392 !       0.56 eA-3
C195 0.805 0.297 0.463 !       0.56 eA-3
Q196 0.831 0.678 0.460 !       0.56 eA-3
Q197 0.751 0.094 0.259 !       0.56 eA-3
Q198 0.081 0.451 0.107 !       0.56 eA-3
C199 0.937 0.360 0.406 !       0.56 eA-3
)
;
_shelx_fab_checksum              94347
loop_
_space_group_symop_operation_xyz
'x, y, z'
'-x, y+1/2, -z+1/2'
'-x, -y, -z'
'x, -y-1/2, z-1/2'
loop_
_atom_site_label
_atom_site_type_symbol
_atom_site_fract_x
_atom_site_fract_y
_atom_site_fract_z
_atom_site_U_iso_or_equiv
_atom_site_adp_type
_atom_site_occupancy
_atom_site_site_symmetry_order
_atom_site_calc_flag
_atom_site_refinement_flags_posn
_atom_site_refinement_flags_adp
_atom_site_refinement_flags_occupancy
_atom_site_disorder_assembly
_atom_site_disorder_group
Fe1 Fe 0.37363(5) 0.47530(4) 0.77720(3) 0.0334(2) Uani 1 1 d . . . . .
N1 N 0.4292(3) 0.5949(2) 0.80207(15) 0.0371(10) Uani 1 1 d . . . . .
N2 N 0.4584(3) 0.4163(2) 0.83268(14) 0.0339(9) Uani 1 1 d . . . . .
N3 N 0.3718(3) 0.3567(2) 0.74222(15) 0.0351(9) Uani 1 1 d . . . . .
N4 N 0.3385(3) 0.5348(2) 0.71205(15) 0.0389(10) Uani 1 1 d . . . . .
C1 C 0.3995(3) 0.6769(3) 0.7836(2) 0.0393(12) Uani 1 1 d . . . . .
C2 C 0.4352(4) 0.7442(3) 0.8172(2) 0.0469(14) Uani 1 1 d . . . . .
H2 H 0.422908 0.805929 0.813958 0.056 Uiso 1 1 calc R U . . .
C3 C 0.4895(4) 0.7050(3) 0.8544(2) 0.0461(14) Uani 1 1 d . . . . .
H3 H 0.524561 0.733949 0.881364 0.055 Uiso 1 1 calc R U . . .
C4 C 0.4843(3) 0.6110(3) 0.84560(18) 0.0375(12) Uani 1 1 d . . . . .
C5 C 0.5257(4) 0.5477(3) 0.87788(18) 0.0406(12) Uani 1 1 d . . . . .
C6 C 0.5114(3) 0.4555(3) 0.87179(18) 0.0375(11) Uani 1 1 d . . . . .
C7 C 0.5465(4) 0.3911(3) 0.9063(2) 0.0493(14) Uani 1 1 d . . . . .
H7 H 0.585949 0.401469 0.936055 0.059 Uiso 1 1 calc R U . . .
C8 C 0.5131(4) 0.3113(3) 0.8890(2) 0.0479(14) Uani 1 1 d . . . . .
H8 H 0.523837 0.255535 0.904641 0.057 Uiso 1 1 calc R U . . .
C9 C 0.4595(3) 0.3272(3) 0.84335(18) 0.0353(11) Uani 1 1 d . . . . .
C10 C 0.4195(3) 0.2605(3) 0.81224(18) 0.0355(11) Uani 1 1 d . . . . .
C11 C 0.3832(3) 0.2750(3) 0.76403(19) 0.0377(12) Uani 1 1 d . . . . .
C12 C 0.3545(4) 0.2064(3) 0.7296(2) 0.0468(14) Uani 1 1 d . . . . .
H12 H 0.353511 0.144519 0.735929 0.056 Uiso 1 1 calc R U . . .
C13 C 0.3291(4) 0.2454(3) 0.6868(2) 0.0473(14) Uani 1 1 d . . . . .
H13 H 0.309292 0.216209 0.657112 0.057 Uiso 1 1 calc R U . . .
C14 C 0.3377(3) 0.3394(3) 0.69444(19) 0.0394(12) Uani 1 1 d . . . . .
C15 C 0.3113(3) 0.4033(3) 0.65958(18) 0.0398(12) Uani 1 1 d . . . . .
C16 C 0.3099(3) 0.4950(3) 0.66819(19) 0.0395(12) Uani 1 1 d . . . . .
C17 C 0.2783(4) 0.5610(4) 0.6327(2) 0.0545(15) Uani 1 1 d . . . . .
H17 H 0.256887 0.550890 0.599613 0.065 Uiso 1 1 calc R U . . .
C18 C 0.2846(4) 0.6405(3) 0.6551(2) 0.0521(15) Uani 1 1 d . . . . .
H18 H 0.266842 0.696315 0.640687 0.063 Uiso 1 1 calc R U . . .
C19 C 0.3227(3) 0.6251(3) 0.7042(2) 0.0406(12) Uani 1 1 d . . . . .
C20 C 0.3470(3) 0.6915(3) 0.7385(2) 0.0396(12) Uani 1 1 d . . . . .
C21 C 0.4211(3) 0.1684(3) 0.83094(19) 0.0392(12) Uani 1 1 d . . . . .
C22 C 0.3722(4) 0.1471(3) 0.8628(2) 0.0502(15) Uani 1 1 d . . . . .
H22 H 0.339280 0.192228 0.872820 0.060 Uiso 1 1 calc R U . . .
C23 C 0.3703(4) 0.0612(3) 0.8805(2) 0.0547(16) Uani 1 1 d . . . . .
H23 H 0.335213 0.047367 0.901489 0.066 Uiso 1 1 calc R U . . .
C24 C 0.4205(4) -0.0035(3) 0.8667(2) 0.0480(14) Uani 1 1 d . . . . .
C25 C 0.4703(4) 0.0163(3) 0.8357(2) 0.0497(14) Uani 1 1 d . . . . .
H25 H 0.504579 -0.028719 0.826723 0.060 Uiso 1 1 calc R U . . .
C26 C 0.4708(4) 0.1009(3) 0.8176(2) 0.0488(14) Uani 1 1 d . . . . .
H26 H 0.505077 0.113624 0.796002 0.059 Uiso 1 1 calc R U . . .
O27 O 0.4268(3) -0.0899(2) 0.88336(15) 0.0645(12) Uani 1 1 d . . . . .
C28 C 0.3538(6) -0.1227(5) 0.8989(3) 0.0915(16) Uani 1 1 d . . . . .
H28A H 0.365970 -0.184086 0.910845 0.110 Uiso 1 1 calc R U . . .
H28B H 0.345858 -0.085531 0.925614 0.110 Uiso 1 1 calc R U . . .
C29 C 0.2775(7) -0.1225(5) 0.8630(3) 0.0915(16) Uani 1 1 d . . . . .
C30 C 0.2167(7) -0.1207(5) 0.8318(3) 0.0915(16) Uani 1 1 d . . . . .
H30 H 0.166899 -0.119254 0.806233 0.110 Uiso 1 1 calc R U . . .
C31 C 0.3191(3) 0.7844(3) 0.72406(19) 0.0390(12) Uani 1 1 d . . . . .
C32 C 0.2328(4) 0.8066(3) 0.7134(2) 0.0550(16) Uani 1 1 d . . . . .
H32 H 0.191774 0.762328 0.715584 0.066 Uiso 1 1 calc R U . . .
C33 C 0.2052(4) 0.8909(3) 0.6999(2) 0.0566(16) Uani 1 1 d . . . . .
H33 H 0.146031 0.905390 0.694245 0.068 Uiso 1 1 calc R U . . .
C34 C 0.2638(3) 0.9546(3) 0.6946(2) 0.0416(12) Uani 1 1 d . . . . .
C35 C 0.3495(3) 0.9338(3) 0.7041(2) 0.0412(12) Uani 1 1 d . . . . .
H35 H 0.389582 0.978196 0.700675 0.049 Uiso 1 1 calc R U . . .
C36 C 0.3782(3) 0.8499(3) 0.71849(19) 0.0390(12) Uani 1 1 d . . . . .
H36 H 0.437626 0.836180 0.724635 0.047 Uiso 1 1 calc R U . . .
O37 O 0.2425(2) 1.0404(2) 0.67866(16) 0.0510(10) Uani 1 1 d . . . . .
C38 C 0.1638(4) 1.0749(3) 0.6863(3) 0.0597(17) Uani 1 1 d . . . . .
H38A H 0.151435 1.133106 0.670266 0.072 Uiso 1 1 calc R U . . .
H38B H 0.116231 1.033960 0.671955 0.072 Uiso 1 1 calc R U . . .
C39 C 0.1674(6) 1.0853(5) 0.7358(3) 0.082(2) Uani 1 1 d . . . . .
C40 C 0.1734(9) 1.0958(8) 0.7759(5) 0.143(5) Uani 1 1 d . . . . .
H40 H 0.178319 1.104375 0.808817 0.172 Uiso 1 1 calc R U . . .
C41 C 0.5868(4) 0.5770(3) 0.92290(19) 0.0478(14) Uani 1 1 d . . . . .
C42 C 0.6738(4) 0.5762(3) 0.9271(2) 0.0503(14) Uani 1 1 d . . . . .
H42 H 0.695756 0.557614 0.901144 0.060 Uiso 1 1 calc R U . . .
C43 C 0.7302(5) 0.6024(4) 0.9695(3) 0.0689(19) Uani 1 1 d . . . . .
C44 C 0.6969(6) 0.6328(5) 1.0060(3) 0.086(3) Uani 1 1 d . . . . .
H44 H 0.735209 0.653863 1.034171 0.103 Uiso 1 1 calc R U . . .
C45 C 0.6117(6) 0.6337(5) 1.0032(2) 0.084(3) Uani 1 1 d . . . . .
H45 H 0.590751 0.653599 1.029289 0.101 Uiso 1 1 calc R U . . .
C46 C 0.5540(5) 0.6047(4) 0.9609(2) 0.0614(18) Uani 1 1 d . . . . .
O47 O 0.8171(4) 0.5993(4) 0.9769(2) 0.105(2) Uani 1 1 d . . . . .
C48 C 0.8605(10) 0.5375(16) 0.9374(6) 0.344(14) Uani 1 1 d D . . . .
H48A H 0.844052 0.569832 0.906837 0.413 Uiso 1 1 calc R U . . .
H48B H 0.923517 0.544322 0.948795 0.413 Uiso 1 1 calc R U . . .
C49 C 0.8458(10) 0.4380(16) 0.9244(6) 0.344(14) Uani 1 1 d D . . . .
C50 C 0.8159(9) 0.3615(16) 0.9226(6) 0.344(14) Uani 1 1 d D . . . .
H50 H 0.793022 0.303086 0.921219 0.413 Uiso 1 1 calc R U . . .
N51 N 0.469(3) 0.597(3) 0.9616(10) 0.063(5) Uani 0.523(3) 1 d D . P A 1
H51 H 0.449273 0.542014 0.958264 0.075 Uiso 0.523(3) 1 calc R U P A 1
C52 C 0.4105(5) 0.6581(4) 0.9665(2) 0.0770(16) Uani 0.523(3) 1 d D . P A 1
O53 O 0.428(4) 0.723(3) 0.9964(15) 0.081(6) Uani 0.523(3) 1 d D . P A 1
N51B N 0.460(3) 0.602(3) 0.9490(12) 0.063(5) Uani 0.477(3) 1 d D . P A 2
H51B H 0.434681 0.560785 0.928970 0.075 Uiso 0.477(3) 1 calc R U P A 2
C52B C 0.4105(5) 0.6581(4) 0.9665(2) 0.0770(16) Uani 0.477(3) 1 d D . P A 2
O53B O 0.444(4) 0.728(3) 0.9850(16) 0.081(6) Uani 0.477(3) 1 d D . P A 2
C54 C 0.3224(8) 0.6299(8) 0.9456(4) 0.0719(12) Uani 0.523(3) 1 d D . P A 1
C55 C 0.2587(7) 0.6871(8) 0.9513(4) 0.0719(12) Uani 0.523(3) 1 d D . P A 1
H55 H 0.273648 0.742343 0.967008 0.086 Uiso 0.523(3) 1 calc R U P A 1
C56 C 0.1725(8) 0.6646(7) 0.9342(4) 0.0719(12) Uani 0.523(3) 1 d D . P A 1
H56 H 0.128784 0.704284 0.938165 0.086 Uiso 0.523(3) 1 calc R U P A 1
C57 C 0.1507(8) 0.5832(7) 0.9112(4) 0.0719(12) Uani 0.523(3) 1 d D . P A 1
H57 H 0.092033 0.567719 0.899519 0.086 Uiso 0.523(3) 1 calc R U P A 1
C58 C 0.2138(8) 0.5253(8) 0.9052(4) 0.0719(12) Uani 0.523(3) 1 d D . P A 1
C59 C 0.2993(8) 0.5495(8) 0.9223(4) 0.0719(12) Uani 0.523(3) 1 d D . P A 1
H59 H 0.343000 0.510089 0.918107 0.086 Uiso 0.523(3) 1 calc R U P A 1
C54B C 0.3143(10) 0.6432(12) 0.9515(5) 0.0719(12) Uani 0.477(3) 1 d D . P A 2
C55B C 0.2613(9) 0.6623(10) 0.9811(5) 0.0719(12) Uani 0.477(3) 1 d D . P A 2
H55B H 0.283228 0.690368 1.010878 0.086 Uiso 0.477(3) 1 calc R U P A 2
C56B C 0.1744(9) 0.6393(10) 0.9660(5) 0.0719(12) Uani 0.477(3) 1 d D . P A 2
H56B H 0.139807 0.640052 0.988269 0.086 Uiso 0.477(3) 1 calc R U P A 2
C57B C 0.1376(10) 0.6154(11) 0.9193(5) 0.0719(12) Uani 0.477(3) 1 d D . P A 2
H57B H 0.077800 0.603679 0.908838 0.086 Uiso 0.477(3) 1 calc R U P A 2
C58B C 0.1903(9) 0.6093(10) 0.8886(5) 0.0719(12) Uani 0.477(3) 1 d D . P A 2
C59B C 0.2788(9) 0.6215(10) 0.9047(5) 0.0719(12) Uani 0.477(3) 1 d D . P A 2
H59B H 0.314672 0.614923 0.883356 0.086 Uiso 0.477(3) 1 calc R U P A 2
C60 C 0.1908(8) 0.4349(9) 0.8823(4) 0.0576(17) Uani 0.523(3) 1 d . . P A 1
H60A H 0.152279 0.404888 0.899258 0.069 Uiso 0.523(3) 1 calc R U P A 1
H60B H 0.244163 0.399353 0.887799 0.069 Uiso 0.523(3) 1 calc R U P A 1
C61 C 0.1467(8) 0.4317(10) 0.8277(4) 0.0576(17) Uani 0.523(3) 1 d . . P A 1
C60B C 0.1497(9) 0.5871(9) 0.8372(4) 0.0576(17) Uani 0.477(3) 1 d . . P A 2
H60C H 0.184295 0.616181 0.817546 0.069 Uiso 0.477(3) 1 calc R U P A 2
H60D H 0.092075 0.614790 0.828694 0.069 Uiso 0.477(3) 1 calc R U P A 2
C61B C 0.1391(9) 0.4880(11) 0.8223(5) 0.0576(17) Uani 0.477(3) 1 d . . P A 2
C63 C 0.0562(8) 0.4663(10) 0.8194(5) 0.069(3) Uani 0.523(3) 1 d D . P A 1
O64 O 0.0320(6) 0.5286(8) 0.7883(4) 0.096(2) Uani 0.523(3) 1 d D . P A 1
O65 O 0.0061(7) 0.4457(14) 0.8415(5) 0.096(2) Uani 0.523(3) 1 d D . P A 1
C63B C 0.1001(8) 0.4340(11) 0.8575(5) 0.069(3) Uani 0.477(3) 1 d D . P A 2
O64B O 0.1412(7) 0.3699(9) 0.8813(4) 0.096(2) Uani 0.477(3) 1 d D . P A 2
O65B O 0.0259(8) 0.4427(16) 0.8573(6) 0.096(2) Uani 0.477(3) 1 d D . P A 2
C66 C 0.2059(7) 0.4815(7) 0.8010(4) 0.041(2) Uani 0.523(3) 1 d D . P A 1
O67 O 0.1793(5) 0.5444(5) 0.7753(3) 0.0596(12) Uani 0.523(3) 1 d D . P A 1
O68 O 0.2809(5) 0.4526(6) 0.8079(3) 0.0596(12) Uani 0.523(3) 1 d D . P A 1
C66B C 0.2277(8) 0.4535(7) 0.8180(4) 0.041(2) Uani 0.477(3) 1 d D . P A 2
O67B O 0.2617(5) 0.3898(6) 0.8423(3) 0.0596(12) Uani 0.477(3) 1 d D . P A 2
O68B O 0.2598(6) 0.4910(6) 0.7876(3) 0.0596(12) Uani 0.477(3) 1 d D . P A 2
C71 C 0.2735(4) 0.3738(3) 0.6094(2) 0.0464(13) Uani 1 1 d . . . . .
C72 C 0.3234(4) 0.3785(3) 0.57649(19) 0.0458(13) Uani 1 1 d . . . . .
H72 H 0.381323 0.398056 0.585960 0.055 Uiso 1 1 calc R U . . .
C73 C 0.2874(5) 0.3542(4) 0.5293(2) 0.0563(16) Uani 1 1 d . . . . .
C74 C 0.2031(5) 0.3238(4) 0.5168(2) 0.0645(18) Uani 1 1 d . . . . .
H74 H 0.178606 0.306701 0.484878 0.077 Uiso 1 1 calc R U . . .
C75 C 0.1548(5) 0.3179(5) 0.5491(3) 0.0701(19) Uani 1 1 d . . . . .
H75 H 0.097633 0.296256 0.539866 0.084 Uiso 1 1 calc R U . . .
C76 C 0.1898(4) 0.3440(4) 0.5960(2) 0.0597(16) Uani 1 1 d . . . . .
O77 O 0.3307(3) 0.3576(3) 0.49414(14) 0.0643(12) Uani 1 1 d . . . . .
C78 C 0.4131(5) 0.3963(4) 0.5059(2) 0.0609(17) Uani 1 1 d . . . . .
H78A H 0.441111 0.386981 0.479488 0.073 Uiso 1 1 calc R U . . .
H78B H 0.448548 0.366913 0.534519 0.073 Uiso 1 1 calc R U . . .
C79 C 0.4082(5) 0.4920(4) 0.5150(2) 0.0684(19) Uani 1 1 d . . . . .
C80 C 0.4025(6) 0.5682(5) 0.5217(3) 0.087(3) Uani 1 1 d . . . . .
H80 H 0.397915 0.629978 0.527216 0.104 Uiso 1 1 calc R U . . .
N81 N 0.1367(18) 0.347(4) 0.6247(10) 0.073(6) Uani 0.523(3) 1 d D . P A 1
H81 H 0.144499 0.396397 0.641764 0.088 Uiso 0.523(3) 1 calc R U P A 1
C82 C 0.0751(4) 0.2974(5) 0.6348(3) 0.0711(19) Uani 0.523(3) 1 d D . P A 1
O83 O 0.0484(9) 0.2314(7) 0.6110(3) 0.0770(16) Uani 0.523(3) 1 d D . P A 1
N81B N 0.150(2) 0.337(4) 0.6379(12) 0.073(6) Uani 0.477(3) 1 d D . P A 2
H81B H 0.177745 0.360581 0.665190 0.088 Uiso 0.477(3) 1 calc R U P A 2
C82B C 0.0751(4) 0.2974(5) 0.6348(3) 0.0711(19) Uani 0.477(3) 1 d D . P A 2
O83B O 0.0309(9) 0.2574(7) 0.5950(4) 0.0770(16) Uani 0.477(3) 1 d D . P A 2
C84 C 0.0470(9) 0.2993(8) 0.6811(5) 0.0622(15) Uani 0.523(3) 1 d D . P A 1
C85 C -0.0341(8) 0.2698(7) 0.6814(4) 0.0622(15) Uani 0.523(3) 1 d D . P A 1
H85 H -0.073834 0.255233 0.652327 0.075 Uiso 0.523(3) 1 calc R U P A 1
C86 C -0.0576(8) 0.2614(7) 0.7239(4) 0.0622(15) Uani 0.523(3) 1 d D . P A 1
H86 H -0.113723 0.240964 0.723368 0.075 Uiso 0.523(3) 1 calc R U P A 1
C87 C -0.0022(7) 0.2816(7) 0.7671(4) 0.0622(15) Uani 0.523(3) 1 d D . P A 1
H87 H -0.019917 0.275177 0.795846 0.075 Uiso 0.523(3) 1 calc R U P A 1
C88 C 0.0793(7) 0.3114(7) 0.7676(4) 0.0622(15) Uani 0.523(3) 1 d D . P A 1
C89 C 0.1027(7) 0.3197(7) 0.7246(4) 0.0622(15) Uani 0.523(3) 1 d D . P A 1
H89 H 0.158818 0.340116 0.724967 0.075 Uiso 0.523(3) 1 calc R U P A 1
C84B C 0.0542(9) 0.3118(10) 0.6784(5) 0.061(5) Uani 0.477(3) 1 d D . P A 2
C85B C 0.0108(11) 0.2459(10) 0.6946(7) 0.092(6) Uani 0.477(3) 1 d D . P A 2
H85B H -0.006489 0.193948 0.676164 0.110 Uiso 0.477(3) 1 calc R U P A 2
C86B C -0.0078(12) 0.2555(13) 0.7386(7) 0.104(7) Uani 0.477(3) 1 d D . P A 2
H86B H -0.032702 0.207703 0.751867 0.125 Uiso 0.477(3) 1 calc R U P A 2
C87B C 0.0099(10) 0.3346(12) 0.7628(6) 0.092(6) Uani 0.477(3) 1 d D . P A 2
H87B H -0.008942 0.343176 0.791046 0.110 Uiso 0.477(3) 1 calc R U P A 2
C88B C 0.0544(8) 0.4019(9) 0.7469(4) 0.057(3) Uani 0.477(3) 1 d D . P A 2
C89B C 0.0780(8) 0.3902(9) 0.7044(4) 0.059(3) Uani 0.477(3) 1 d D . P A 2
H89B H 0.109940 0.434748 0.693057 0.071 Uiso 0.477(3) 1 calc R U P A 2
C90 C 0.1409(7) 0.3324(7) 0.8144(4) 0.048(3) Uani 0.523(3) 1 d . . P A 1
H90A H 0.198822 0.311375 0.813403 0.058 Uiso 0.523(3) 1 calc R U P A 1
H90B H 0.123257 0.298899 0.839785 0.058 Uiso 0.523(3) 1 calc R U P A 1
C90B C 0.0764(8) 0.4900(11) 0.7724(5) 0.064(4) Uani 0.477(3) 1 d . . P A 2
H90C H 0.022151 0.517729 0.775536 0.077 Uiso 0.477(3) 1 calc R U P A 2
H90D H 0.101178 0.529312 0.751905 0.077 Uiso 0.477(3) 1 calc R U P A 2
loop_
_atom_site_aniso_label
_atom_site_aniso_U_11
_atom_site_aniso_U_22
_atom_site_aniso_U_33
_atom_site_aniso_U_23
_atom_site_aniso_U_13
_atom_site_aniso_U_12
Fe1 0.0372(4) 0.0201(3) 0.0482(4) -0.0076(3) 0.0205(3) -0.0052(3)
N1 0.047(3) 0.0215(17) 0.048(2) -0.0082(17) 0.022(2) -0.0018(17)
N2 0.043(2) 0.0213(17) 0.042(2) -0.0087(16) 0.020(2) -0.0104(16)
N3 0.036(2) 0.0277(18) 0.047(2) -0.0064(17) 0.0193(19) -0.0090(17)
N4 0.044(3) 0.0227(18) 0.053(3) -0.0051(18) 0.018(2) -0.0005(17)
C1 0.041(3) 0.024(2) 0.061(3) -0.006(2) 0.027(3) -0.001(2)
C2 0.065(4) 0.024(2) 0.056(3) -0.011(2) 0.023(3) -0.007(2)
C3 0.059(4) 0.030(2) 0.052(3) -0.016(2) 0.019(3) -0.010(2)
C4 0.051(3) 0.025(2) 0.042(3) -0.010(2) 0.020(2) -0.007(2)
C5 0.053(3) 0.028(2) 0.045(3) -0.014(2) 0.021(3) -0.010(2)
C6 0.051(3) 0.027(2) 0.040(3) -0.003(2) 0.022(2) -0.006(2)
C7 0.068(4) 0.037(3) 0.044(3) -0.004(2) 0.018(3) -0.013(3)
C8 0.067(4) 0.029(2) 0.049(3) 0.002(2) 0.016(3) -0.006(2)
C9 0.043(3) 0.025(2) 0.045(3) -0.004(2) 0.022(2) -0.005(2)
C10 0.037(3) 0.026(2) 0.050(3) -0.006(2) 0.023(2) -0.006(2)
C11 0.045(3) 0.021(2) 0.054(3) -0.008(2) 0.026(3) -0.008(2)
C12 0.056(4) 0.027(2) 0.061(4) -0.014(2) 0.023(3) -0.015(2)
C13 0.059(4) 0.031(2) 0.054(3) -0.015(2) 0.018(3) -0.014(2)
C14 0.043(3) 0.027(2) 0.052(3) -0.008(2) 0.018(3) -0.007(2)
C15 0.041(3) 0.033(2) 0.046(3) -0.010(2) 0.012(2) -0.005(2)
C16 0.040(3) 0.033(2) 0.046(3) -0.005(2) 0.012(2) 0.000(2)
C17 0.063(4) 0.046(3) 0.053(3) -0.005(3) 0.011(3) 0.008(3)
C18 0.057(4) 0.032(3) 0.067(4) 0.000(3) 0.014(3) 0.012(3)
C19 0.036(3) 0.030(2) 0.058(3) -0.004(2) 0.016(3) 0.000(2)
C20 0.038(3) 0.027(2) 0.061(3) -0.005(2) 0.026(3) 0.000(2)
C21 0.051(3) 0.021(2) 0.050(3) -0.003(2) 0.022(3) -0.008(2)
C22 0.071(4) 0.030(2) 0.061(4) -0.009(2) 0.038(3) -0.003(3)
C23 0.084(5) 0.030(2) 0.060(4) -0.005(2) 0.037(3) -0.015(3)
C24 0.073(4) 0.024(2) 0.048(3) -0.003(2) 0.015(3) -0.011(2)
C25 0.057(4) 0.027(2) 0.069(4) -0.011(2) 0.022(3) -0.002(2)
C26 0.053(4) 0.032(2) 0.070(4) -0.002(3) 0.032(3) -0.003(2)
O27 0.106(4) 0.0236(17) 0.067(3) 0.0030(17) 0.028(3) -0.009(2)
C28 0.131(5) 0.057(2) 0.075(3) 0.002(3) 0.005(3) -0.017(3)
C29 0.131(5) 0.057(2) 0.075(3) 0.002(3) 0.005(3) -0.017(3)
C30 0.131(5) 0.057(2) 0.075(3) 0.002(3) 0.005(3) -0.017(3)
C31 0.041(3) 0.026(2) 0.056(3) -0.005(2) 0.022(3) -0.001(2)
C32 0.045(3) 0.026(2) 0.101(5) -0.007(3) 0.032(3) -0.002(2)
C33 0.035(3) 0.032(3) 0.106(5) 0.000(3) 0.025(3) -0.002(2)
C34 0.040(3) 0.027(2) 0.060(3) -0.005(2) 0.017(3) 0.000(2)
C35 0.039(3) 0.028(2) 0.062(3) 0.000(2) 0.022(3) -0.006(2)
C36 0.032(3) 0.033(2) 0.058(3) 0.002(2) 0.022(2) 0.002(2)
O37 0.041(2) 0.0234(16) 0.091(3) 0.0008(17) 0.020(2) 0.0034(15)
C38 0.051(4) 0.029(3) 0.096(5) 0.005(3) 0.011(3) 0.008(2)
C39 0.099(6) 0.059(4) 0.092(6) -0.002(4) 0.034(5) 0.032(4)
C40 0.194(13) 0.129(9) 0.118(9) -0.013(7) 0.060(9) 0.064(9)
C41 0.073(4) 0.028(2) 0.042(3) -0.006(2) 0.014(3) -0.016(3)
C42 0.063(4) 0.036(3) 0.048(3) -0.002(2) 0.005(3) -0.013(3)
C43 0.085(6) 0.057(4) 0.062(4) 0.011(3) 0.012(4) -0.015(4)
C44 0.102(7) 0.097(6) 0.048(4) 0.003(4) -0.004(4) -0.050(5)
C45 0.119(7) 0.093(5) 0.041(4) -0.015(4) 0.022(4) -0.050(5)
C46 0.084(5) 0.055(3) 0.050(4) -0.013(3) 0.026(3) -0.032(3)
O47 0.070(4) 0.085(4) 0.135(5) 0.034(4) -0.020(4) -0.017(3)
C48 0.128(8) 0.75(4) 0.134(7) 0.097(15) -0.018(6) -0.226(13)
C49 0.128(8) 0.75(4) 0.134(7) 0.097(15) -0.018(6) -0.226(13)
C50 0.128(8) 0.75(4) 0.134(7) 0.097(15) -0.018(6) -0.226(13)
N51 0.088(8) 0.078(5) 0.031(15) -0.031(11) 0.030(11) -0.036(4)
C52 0.119(5) 0.061(3) 0.049(3) 0.018(2) 0.016(3) -0.013(3)
O53 0.116(18) 0.034(4) 0.097(17) 0.000(9) 0.036(9) -0.009(5)
N51B 0.088(8) 0.078(5) 0.031(15) -0.031(11) 0.030(11) -0.036(4)
C52B 0.119(5) 0.061(3) 0.049(3) 0.018(2) 0.016(3) -0.013(3)
O53B 0.116(18) 0.034(4) 0.097(17) 0.000(9) 0.036(9) -0.009(5)
C54 0.085(3) 0.075(3) 0.060(2) 0.004(2) 0.026(2) 0.016(2)
C55 0.085(3) 0.075(3) 0.060(2) 0.004(2) 0.026(2) 0.016(2)
C56 0.085(3) 0.075(3) 0.060(2) 0.004(2) 0.026(2) 0.016(2)
C57 0.085(3) 0.075(3) 0.060(2) 0.004(2) 0.026(2) 0.016(2)
C58 0.085(3) 0.075(3) 0.060(2) 0.004(2) 0.026(2) 0.016(2)
C59 0.085(3) 0.075(3) 0.060(2) 0.004(2) 0.026(2) 0.016(2)
C54B 0.085(3) 0.075(3) 0.060(2) 0.004(2) 0.026(2) 0.016(2)
C55B 0.085(3) 0.075(3) 0.060(2) 0.004(2) 0.026(2) 0.016(2)
C56B 0.085(3) 0.075(3) 0.060(2) 0.004(2) 0.026(2) 0.016(2)
C57B 0.085(3) 0.075(3) 0.060(2) 0.004(2) 0.026(2) 0.016(2)
C58B 0.085(3) 0.075(3) 0.060(2) 0.004(2) 0.026(2) 0.016(2)
C59B 0.085(3) 0.075(3) 0.060(2) 0.004(2) 0.026(2) 0.016(2)
C60 0.051(4) 0.080(5) 0.045(3) 0.009(3) 0.015(3) 0.017(4)
C61 0.051(4) 0.080(5) 0.045(3) 0.009(3) 0.015(3) 0.017(4)
C60B 0.051(4) 0.080(5) 0.045(3) 0.009(3) 0.015(3) 0.017(4)
C61B 0.051(4) 0.080(5) 0.045(3) 0.009(3) 0.015(3) 0.017(4)
C63 0.045(6) 0.106(8) 0.063(6) 0.008(6) 0.026(5) 0.009(5)
O64 0.049(3) 0.142(4) 0.104(5) 0.051(5) 0.031(3) 0.032(4)
O65 0.049(3) 0.142(4) 0.104(5) 0.051(5) 0.031(3) 0.032(4)
C63B 0.045(6) 0.106(8) 0.063(6) 0.008(6) 0.026(5) 0.009(5)
O64B 0.049(3) 0.142(4) 0.104(5) 0.051(5) 0.031(3) 0.032(4)
O65B 0.049(3) 0.142(4) 0.104(5) 0.051(5) 0.031(3) 0.032(4)
C66 0.044(6) 0.038(6) 0.041(6) 0.023(4) 0.008(5) 0.018(4)
O67 0.043(3) 0.067(3) 0.075(3) 0.017(2) 0.027(2) 0.010(2)
O68 0.043(3) 0.067(3) 0.075(3) 0.017(2) 0.027(2) 0.010(2)
C66B 0.044(6) 0.038(6) 0.041(6) 0.023(4) 0.008(5) 0.018(4)
O67B 0.043(3) 0.067(3) 0.075(3) 0.017(2) 0.027(2) 0.010(2)
O68B 0.043(3) 0.067(3) 0.075(3) 0.017(2) 0.027(2) 0.010(2)
C71 0.052(4) 0.037(3) 0.047(3) -0.009(2) 0.006(3) -0.004(2)
C72 0.061(4) 0.029(2) 0.042(3) 0.001(2) 0.003(3) -0.002(2)
C73 0.081(5) 0.040(3) 0.043(3) 0.001(3) 0.007(3) 0.005(3)
C74 0.073(5) 0.064(4) 0.048(4) -0.013(3) -0.001(3) -0.001(4)
C75 0.053(4) 0.081(5) 0.069(5) -0.024(4) 0.001(4) -0.010(3)
C76 0.057(4) 0.065(4) 0.054(4) -0.017(3) 0.007(3) -0.005(3)
O77 0.090(4) 0.056(2) 0.044(2) -0.0017(19) 0.011(2) -0.005(2)
C78 0.092(5) 0.045(3) 0.051(4) 0.007(3) 0.028(4) -0.004(3)
C79 0.100(6) 0.052(4) 0.057(4) 0.014(3) 0.026(4) -0.005(4)
C80 0.138(8) 0.055(4) 0.075(5) 0.011(4) 0.037(5) 0.002(4)
N81 0.038(9) 0.133(12) 0.041(15) -0.033(12) -0.005(8) -0.025(10)
C82 0.063(5) 0.070(4) 0.071(5) -0.001(4) -0.001(4) 0.002(4)
O83 0.119(5) 0.061(3) 0.049(3) 0.018(2) 0.016(3) -0.013(3)
N81B 0.038(9) 0.133(12) 0.041(15) -0.033(12) -0.005(8) -0.025(10)
C82B 0.063(5) 0.070(4) 0.071(5) -0.001(4) -0.001(4) 0.002(4)
O83B 0.119(5) 0.061(3) 0.049(3) 0.018(2) 0.016(3) -0.013(3)
C84 0.049(3) 0.062(3) 0.077(4) -0.008(3) 0.018(3) -0.003(3)
C85 0.049(3) 0.062(3) 0.077(4) -0.008(3) 0.018(3) -0.003(3)
C86 0.049(3) 0.062(3) 0.077(4) -0.008(3) 0.018(3) -0.003(3)
C87 0.049(3) 0.062(3) 0.077(4) -0.008(3) 0.018(3) -0.003(3)
C88 0.049(3) 0.062(3) 0.077(4) -0.008(3) 0.018(3) -0.003(3)
C89 0.049(3) 0.062(3) 0.077(4) -0.008(3) 0.018(3) -0.003(3)
C84B 0.036(8) 0.076(11) 0.067(9) 0.010(8) 0.005(7) 0.041(8)
C85B 0.064(11) 0.083(12) 0.133(17) 0.044(11) 0.033(11) 0.045(10)
C86B 0.067(12) 0.128(19) 0.126(19) 0.035(15) 0.036(14) 0.050(12)
C87B 0.066(11) 0.124(16) 0.102(14) 0.041(13) 0.051(10) 0.062(11)
C88B 0.036(7) 0.075(9) 0.063(8) 0.018(7) 0.015(6) 0.032(6)
C89B 0.050(8) 0.073(9) 0.054(8) 0.020(7) 0.013(6) 0.027(7)
C90 0.043(6) 0.044(5) 0.061(7) 0.016(5) 0.016(5) 0.009(5)
C90B 0.026(6) 0.109(11) 0.059(8) 0.009(8) 0.017(6) 0.035(7)
loop_
_atom_type_symbol
_atom_type_description
_atom_type_scat_dispersion_real
_atom_type_scat_dispersion_imag
_atom_type_scat_source
C C 0.0033 0.0016 'International Tables Vol C Tables 4.2.6.8 and 6.1.1.4'
H H 0.0000 0.0000 'International Tables Vol C Tables 4.2.6.8 and 6.1.1.4'
Fe Fe 0.3463 0.8444 'International Tables Vol C Tables 4.2.6.8 and 6.1.1.4'
N N 0.0061 0.0033 'International Tables Vol C Tables 4.2.6.8 and 6.1.1.4'
O O 0.0106 0.0060 'International Tables Vol C Tables 4.2.6.8 and 6.1.1.4'
loop_
_geom_angle_atom_site_label_1
_geom_angle_atom_site_label_2
_geom_angle_atom_site_label_3
_geom_angle
O68 Fe1 N2 90.0(3)
O68B Fe1 N2 113.7(3)
O68 Fe1 N4 115.7(3)
O68B Fe1 N4 91.9(3)
N2 Fe1 N4 154.29(16)
O68 Fe1 N3 98.9(3)
O68B Fe1 N3 106.5(3)
N2 Fe1 N3 86.46(16)
N4 Fe1 N3 87.44(16)
O68 Fe1 N1 107.9(3)
O68B Fe1 N1 100.5(3)
N2 Fe1 N1 87.43(16)
N4 Fe1 N1 86.52(16)
N3 Fe1 N1 152.45(16)
C4 N1 C1 106.4(4)
C4 N1 Fe1 127.0(3)
C1 N1 Fe1 124.4(4)
C6 N2 C9 105.2(4)
C6 N2 Fe1 128.6(3)
C9 N2 Fe1 124.8(3)
C11 N3 C14 105.6(4)
C11 N3 Fe1 124.5(3)
C14 N3 Fe1 127.9(3)
C16 N4 C19 105.5(4)
C16 N4 Fe1 128.2(3)
C19 N4 Fe1 125.3(3)
N1 C1 C20 125.3(4)
N1 C1 C2 109.0(5)
C20 C1 C2 125.6(5)
C3 C2 C1 108.1(5)
C3 C2 H2 125.9
C1 C2 H2 125.9
C2 C3 C4 106.9(5)
C2 C3 H3 126.6
C4 C3 H3 126.6
N1 C4 C5 126.5(4)
N1 C4 C3 109.5(5)
C5 C4 C3 123.9(5)
C4 C5 C6 123.7(5)
C4 C5 C41 119.4(4)
C6 C5 C41 116.9(5)
N2 C6 C7 110.6(4)
N2 C6 C5 125.1(5)
C7 C6 C5 124.2(5)
C8 C7 C6 106.9(5)
C8 C7 H7 126.6
C6 C7 H7 126.6
C7 C8 C9 107.0(5)
C7 C8 H8 126.5
C9 C8 H8 126.5
N2 C9 C10 125.2(5)
N2 C9 C8 110.3(4)
C10 C9 C8 124.3(4)
C9 C10 C11 123.4(4)
C9 C10 C21 118.0(5)
C11 C10 C21 118.5(4)
N3 C11 C10 125.2(4)
N3 C11 C12 109.9(5)
C10 C11 C12 124.9(4)
C13 C12 C11 107.7(4)
C13 C12 H12 126.2
C11 C12 H12 126.2
C12 C13 C14 106.9(5)
C12 C13 H13 126.5
C14 C13 H13 126.5
N3 C14 C15 125.2(4)
N3 C14 C13 109.9(5)
C15 C14 C13 124.8(5)
C14 C15 C16 124.6(5)
C14 C15 C71 118.8(4)
C16 C15 C71 116.4(5)
N4 C16 C15 125.1(5)
N4 C16 C17 110.0(4)
C15 C16 C17 124.9(5)
C18 C17 C16 107.2(5)
C18 C17 H17 126.4
C16 C17 H17 126.4
C17 C18 C19 107.4(5)
C17 C18 H18 126.3
C19 C18 H18 126.3
N4 C19 C20 125.1(5)
N4 C19 C18 109.8(4)
C20 C19 C18 124.9(5)
C1 C20 C19 123.8(5)
C1 C20 C31 118.9(4)
C19 C20 C31 117.2(5)
C22 C21 C26 118.0(4)
C22 C21 C10 119.8(4)
C26 C21 C10 122.2(4)
C23 C22 C21 121.8(5)
C23 C22 H22 119.1
C21 C22 H22 119.1
C24 C23 C22 118.6(5)
C24 C23 H23 120.7
C22 C23 H23 120.7
C25 C24 C23 120.7(5)
C25 C24 O27 115.4(5)
C23 C24 O27 123.9(5)
C24 C25 C26 120.6(5)
C24 C25 H25 119.7
C26 C25 H25 119.7
C25 C26 C21 120.3(5)
C25 C26 H26 119.8
C21 C26 H26 119.8
C24 O27 C28 115.8(5)
C29 C28 O27 113.4(7)
C29 C28 H28A 108.9
O27 C28 H28A 108.9
C29 C28 H28B 108.9
O27 C28 H28B 108.9
H28A C28 H28B 107.7
C30 C29 C28 176.5(11)
C29 C30 H30 180.0
C32 C31 C36 118.3(5)
C32 C31 C20 120.1(4)
C36 C31 C20 121.5(5)
C33 C32 C31 121.5(5)
C33 C32 H32 119.2
C31 C32 H32 119.2
C32 C33 C34 119.7(5)
C32 C33 H33 120.2
C34 C33 H33 120.2
C35 C34 C33 119.8(5)
C35 C34 O37 115.7(4)
C33 C34 O37 124.5(5)
C34 C35 C36 121.1(5)
C34 C35 H35 119.5
C36 C35 H35 119.5
C35 C36 C31 119.5(5)
C35 C36 H36 120.2
C31 C36 H36 120.2
C34 O37 C38 116.1(4)
C39 C38 O37 112.0(6)
C39 C38 H38A 109.2
O37 C38 H38A 109.2
C39 C38 H38B 109.2
O37 C38 H38B 109.2
H38A C38 H38B 107.9
C40 C39 C38 177.2(12)
C39 C40 H40 180.0
C42 C41 C46 120.3(6)
C42 C41 C5 120.8(5)
C46 C41 C5 118.9(6)
C41 C42 C43 120.2(6)
C41 C42 H42 119.9
C43 C42 H42 119.9
O47 C43 C44 117.8(7)
O47 C43 C42 123.2(7)
C44 C43 C42 118.9(8)
C45 C44 C43 122.4(7)
C45 C44 H44 118.8
C43 C44 H44 118.8
C44 C45 C46 119.2(7)
C44 C45 H45 120.4
C46 C45 H45 120.4
N51 C46 C41 123.6(13)
N51 C46 C45 117.1(13)
C41 C46 C45 118.9(7)
C41 C46 N51B 111.8(12)
C45 C46 N51B 129.3(13)
C43 O47 C48 118.3(7)
C49 C48 O47 127.8(12)
C49 C48 H48A 105.4
O47 C48 H48A 105.4
C49 C48 H48B 105.4
O47 C48 H48B 105.4
H48A C48 H48B 106.0
C50 C49 C48 160.0(18)
C49 C50 H50 180.0
C52 N51 C46 131(4)
C52 N51 H51 114.3
C46 N51 H51 114.3
O53 C52 N51 123(4)
O53 C52 C54 122(3)
N51 C52 C54 113(3)
C52B N51B C46 125(4)
C52B N51B H51B 117.7
C46 N51B H51B 117.7
O53B C52B N51B 117(4)
O53B C52B C54B 124(3)
N51B C52B C54B 117(3)
C55 C54 C59 118.9(12)
C55 C54 C52 116.1(10)
C59 C54 C52 124.9(10)
C54 C55 C56 120.5(12)
C54 C55 H55 119.8
C56 C55 H55 119.8
C57 C56 C55 119.6(11)
C57 C56 H56 120.2
C55 C56 H56 120.2
C58 C57 C56 120.6(12)
C58 C57 H57 119.7
C56 C57 H57 119.7
C57 C58 C59 118.7(12)
C57 C58 C60 120.9(11)
C59 C58 C60 120.3(10)
C54 C59 C58 121.7(11)
C54 C59 H59 119.1
C58 C59 H59 119.1
C59B C54B C55B 119.5(14)
C59B C54B C52B 117.7(11)
C55B C54B C52B 122.1(12)
C54B C55B C56B 118.3(13)
C54B C55B H55B 120.8
C56B C55B H55B 120.8
C57B C56B C55B 121.5(13)
C57B C56B H56B 119.2
C55B C56B H56B 119.2
C58B C57B C56B 117.9(14)
C58B C57B H57B 121.0
C56B C57B H57B 121.0
C57B C58B C59B 120.8(13)
C57B C58B C60B 118.0(13)
C59B C58B C60B 121.2(12)
C54B C59B C58B 120.3(13)
C54B C59B H59B 119.9
C58B C59B H59B 119.9
C58 C60 C61 118.1(10)
C58 C60 H60A 107.8
C61 C60 H60A 107.8
C58 C60 H60B 107.8
C61 C60 H60B 107.8
H60A C60 H60B 107.1
C63 C61 C90 107.4(11)
C63 C61 C60 109.3(10)
C90 C61 C60 105.5(10)
C63 C61 C66 115.9(10)
C90 C61 C66 110.4(9)
C60 C61 C66 107.9(11)
C58B C60B C61B 118.6(11)
C58B C60B H60C 107.7
C61B C60B H60C 107.7
C58B C60B H60D 107.7
C61B C60B H60D 107.7
H60C C60B H60D 107.1
C90B C61B C63B 110.5(12)
C90B C61B C66B 109.4(10)
C63B C61B C66B 113.8(11)
C90B C61B C60B 104.1(11)
C63B C61B C60B 110.8(11)
C66B C61B C60B 107.8(11)
O65 C63 O64 116.1(12)
O65 C63 C61 125.3(12)
O64 C63 C61 118.4(11)
O65B C63B O64B 117.9(14)
O65B C63B C61B 120.1(13)
O64B C63B C61B 121.0(11)
O67 C66 O68 123.2(10)
O67 C66 C61 120.9(9)
O68 C66 C61 115.8(9)
C66 O68 Fe1 133.0(8)
O67B C66B O68B 123.3(11)
O67B C66B C61B 120.1(10)
O68B C66B C61B 116.6(10)
C66B O68B Fe1 128.1(8)
C76 C71 C72 120.5(5)
C76 C71 C15 120.3(5)
C72 C71 C15 119.1(5)
C71 C72 C73 119.3(6)
C71 C72 H72 120.3
C73 C72 H72 120.3
O77 C73 C74 117.3(5)
O77 C73 C72 123.8(6)
C74 C73 C72 118.9(6)
C75 C74 C73 121.7(6)
C75 C74 H74 119.1
C73 C74 H74 119.1
C74 C75 C76 119.6(6)
C74 C75 H75 120.2
C76 C75 H75 120.2
N81 C76 C71 122.7(11)
N81 C76 C75 117.1(11)
C71 C76 C75 119.9(6)
C71 C76 N81B 111.6(9)
C75 C76 N81B 128.4(10)
C73 O77 C78 117.0(5)
O77 C78 C79 111.1(6)
O77 C78 H78A 109.4
C79 C78 H78A 109.4
O77 C78 H78B 109.4
C79 C78 H78B 109.4
H78A C78 H78B 108.0
C80 C79 C78 178.6(10)
C79 C80 H80 180.0
C76 N81 C82 138(4)
C76 N81 H81 111.1
C82 N81 H81 111.1
O83 C82 N81 121(2)
O83 C82 C84 112.1(8)
N81 C82 C84 125.6(19)
C82B N81B C76 122(3)
C82B N81B H81B 119.0
C76 N81B H81B 119.0
N81B C82B O83B 123(2)
N81B C82B C84B 106(2)
O83B C82B C84B 130.7(10)
C85 C84 C89 117.8(12)
C85 C84 C82 118.9(10)
C89 C84 C82 122.8(10)
C84 C85 C86 119.9(12)
C84 C85 H85 120.1
C86 C85 H85 120.1
C87 C86 C85 122.4(12)
C87 C86 H86 118.8
C85 C86 H86 118.8
C88 C87 C86 118.5(11)
C88 C87 H87 120.7
C86 C87 H87 120.7
C87 C88 C89 118.9(11)
C87 C88 C90 119.3(9)
C89 C88 C90 121.9(9)
C84 C89 C88 122.5(11)
C84 C89 H89 118.7
C88 C89 H89 118.7
C85B C84B C89B 121.4(13)
C85B C84B C82B 117.2(13)
C89B C84B C82B 121.4(12)
C84B C85B C86B 119.1(16)
C84B C85B H85B 120.4
C86B C85B H85B 120.4
C87B C86B C85B 119.8(17)
C87B C86B H86B 120.1
C85B C86B H86B 120.1
C86B C87B C88B 121.5(14)
C86B C87B H87B 119.3
C88B C87B H87B 119.3
C87B C88B C89B 118.7(13)
C87B C88B C90B 123.7(12)
C89B C88B C90B 117.6(12)
C88B C89B C84B 119.2(12)
C88B C89B H89B 120.4
C84B C89B H89B 120.4
C88 C90 C61 114.6(9)
C88 C90 H90A 108.6
C61 C90 H90A 108.6
C88 C90 H90B 108.6
C61 C90 H90B 108.6
H90A C90 H90B 107.6
C88B C90B C61B 117.4(12)
C88B C90B H90C 108.0
C61B C90B H90C 108.0
C88B C90B H90D 108.0
C61B C90B H90D 108.0
H90C C90B H90D 107.2
loop_
_geom_bond_atom_site_label_1
_geom_bond_atom_site_label_2
_geom_bond_distance
Fe1 O68 1.945(8)
Fe1 O68B 1.940(9)
Fe1 N2 2.041(4)
Fe1 N4 2.044(4)
Fe1 N3 2.050(4)
Fe1 N1 2.060(4)
N1 C4 1.376(7)
N1 C1 1.383(6)
N2 C6 1.375(6)
N2 C9 1.375(6)
N3 C11 1.375(6)
N3 C14 1.386(7)
N4 C16 1.381(7)
N4 C19 1.391(6)
C1 C20 1.391(8)
C1 C2 1.427(7)
C2 C3 1.347(8)
C2 H2 0.9500
C3 C4 1.437(6)
C3 H3 0.9500
C4 C5 1.387(7)
C5 C6 1.411(6)
C5 C41 1.497(8)
C6 C7 1.410(8)
C7 C8 1.360(7)
C7 H7 0.9500
C8 C9 1.414(8)
C8 H8 0.9500
C9 C10 1.397(7)
C10 C11 1.396(7)
C10 C21 1.488(6)
C11 C12 1.432(7)
C12 C13 1.346(8)
C12 H12 0.9500
C13 C14 1.434(6)
C13 H13 0.9500
C14 C15 1.386(7)
C15 C16 1.403(7)
C15 C71 1.502(7)
C16 C17 1.433(8)
C17 C18 1.353(8)
C17 H17 0.9500
C18 C19 1.429(8)
C18 H18 0.9500
C19 C20 1.397(7)
C20 C31 1.497(7)
C21 C22 1.390(7)
C21 C26 1.404(7)
C22 C23 1.393(7)
C22 H22 0.9500
C23 C24 1.385(8)
C23 H23 0.9500
C24 C25 1.374(8)
C24 O27 1.383(6)
C25 C26 1.379(7)
C25 H25 0.9500
C26 H26 0.9500
O27 C28 1.442(10)
C28 C29 1.402(12)
C28 H28A 0.9900
C28 H28B 0.9900
C29 C30 1.158(11)
C30 H30 0.9500
C31 C32 1.386(8)
C31 C36 1.405(7)
C32 C33 1.369(8)
C32 H32 0.9500
C33 C34 1.380(7)
C33 H33 0.9500
C34 C35 1.371(7)
C34 O37 1.386(6)
C35 C36 1.375(7)
C35 H35 0.9500
C36 H36 0.9500
O37 C38 1.434(7)
C38 C39 1.432(11)
C38 H38A 0.9900
C38 H38B 0.9900
C39 C40 1.155(13)
C40 H40 0.9500
C41 C42 1.373(9)
C41 C46 1.399(8)
C42 C43 1.395(9)
C42 H42 0.9500
C43 O47 1.361(9)
C43 C44 1.376(11)
C44 C45 1.352(12)
C44 H44 0.9500
C45 C46 1.414(9)
C45 H45 0.9500
C46 N51 1.38(5)
C46 N51B 1.46(5)
O47 C48 1.75(2)
C48 C49 1.549(17)
C48 H48A 0.9900
C48 H48B 0.9900
C49 C50 1.244(15)
C50 H50 0.9500
N51 C52 1.350(9)
N51 H51 0.8800
C52 O53 1.29(3)
C52 C54 1.459(15)
N51B C52B 1.347(10)
N51B H51B 0.8800
C52B O53B 1.24(3)
C52B C54B 1.515(17)
C54 C55 1.380(8)
C54 C59 1.391(9)
C55 C56 1.394(9)
C55 H55 0.9500
C56 C57 1.399(9)
C56 H56 0.9500
C57 C58 1.380(9)
C57 H57 0.9500
C58 C59 1.390(9)
C58 C60 1.519(18)
C59 H59 0.9500
C54B C59B 1.378(15)
C54B C55B 1.379(15)
C55B C56B 1.402(15)
C55B H55B 0.9500
C56B C57B 1.388(15)
C56B H56B 0.9500
C57B C58B 1.375(15)
C57B H57B 0.9500
C58B C59B 1.396(15)
C58B C60B 1.514(18)
C59B H59B 0.9500
C60 C61 1.571(16)
C60 H60A 0.9900
C60 H60B 0.9900
C61 C63 1.507(17)
C61 C90 1.541(18)
C61 C66 1.558(17)
C60B C61B 1.55(2)
C60B H60C 0.9900
C60B H60D 0.9900
C61B C90B 1.549(19)
C61B C63B 1.553(19)
C61B C66B 1.548(18)
C63 O65 1.188(13)
C63 O64 1.293(14)
C63B O65B 1.198(13)
C63B O64B 1.275(14)
C66 O67 1.216(10)
C66 O68 1.251(11)
C66B O67B 1.235(11)
C66B O68B 1.260(12)
C71 C76 1.380(8)
C71 C72 1.392(8)
C72 C73 1.400(8)
C72 H72 0.9500
C73 O77 1.370(7)
C73 C74 1.391(9)
C74 C75 1.359(9)
C74 H74 0.9500
C75 C76 1.396(9)
C75 H75 0.9500
C76 N81 1.33(4)
C76 N81B 1.51(4)
O77 C78 1.409(8)
C78 C79 1.470(9)
C78 H78A 0.9900
C78 H78B 0.9900
C79 C80 1.170(9)
C80 H80 0.9500
N81 C82 1.332(9)
N81 H81 0.8800
C82 O83 1.226(12)
C82 C84 1.522(16)
N81B C82B 1.333(9)
N81B H81B 0.8800
C82B O83B 1.342(14)
C82B C84B 1.404(16)
C84 C85 1.379(9)
C84 C89 1.390(9)
C85 C86 1.382(9)
C85 H85 0.9500
C86 C87 1.383(9)
C86 H86 0.9500
C87 C88 1.382(9)
C87 H87 0.9500
C88 C89 1.396(8)
C88 C90 1.507(16)
C89 H89 0.9500
C84B C85B 1.363(15)
C84B C89B 1.403(15)
C85B C86B 1.387(17)
C85B H85B 0.9500
C86B C87B 1.377(17)
C86B H86B 0.9500
C87B C88B 1.383(16)
C87B H87B 0.9500
C88B C89B 1.390(14)
C88B C90B 1.52(2)
C89B H89B 0.9500
C90 H90A 0.9900
C90 H90B 0.9900
C90B H90C 0.9900
C90B H90D 0.9900
loop_
_geom_torsion_atom_site_label_1
_geom_torsion_atom_site_label_2
_geom_torsion_atom_site_label_3
_geom_torsion_atom_site_label_4
_geom_torsion
C4 N1 C1 C20 175.0(5)
Fe1 N1 C1 C20 -20.8(7)
C4 N1 C1 C2 -1.7(5)
Fe1 N1 C1 C2 162.5(3)
N1 C1 C2 C3 3.3(6)
C20 C1 C2 C3 -173.4(5)
C1 C2 C3 C4 -3.4(6)
C1 N1 C4 C5 176.3(5)
Fe1 N1 C4 C5 12.7(7)
C1 N1 C4 C3 -0.3(5)
Fe1 N1 C4 C3 -164.0(3)
C2 C3 C4 N1 2.4(6)
C2 C3 C4 C5 -174.4(5)
N1 C4 C5 C6 -5.1(8)
C3 C4 C5 C6 171.1(5)
N1 C4 C5 C41 177.3(5)
C3 C4 C5 C41 -6.5(8)
C9 N2 C6 C7 1.0(5)
Fe1 N2 C6 C7 167.8(4)
C9 N2 C6 C5 -176.0(5)
Fe1 N2 C6 C5 -9.2(7)
C4 C5 C6 N2 3.1(8)
C41 C5 C6 N2 -179.2(5)
C4 C5 C6 C7 -173.5(5)
C41 C5 C6 C7 4.1(8)
N2 C6 C7 C8 -1.6(6)
C5 C6 C7 C8 175.4(5)
C6 C7 C8 C9 1.5(6)
C6 N2 C9 C10 -174.9(5)
Fe1 N2 C9 C10 17.7(7)
C6 N2 C9 C8 0.0(5)
Fe1 N2 C9 C8 -167.5(3)
C7 C8 C9 N2 -1.0(6)
C7 C8 C9 C10 174.0(5)
N2 C9 C10 C11 9.1(8)
C8 C9 C10 C11 -165.1(5)
N2 C9 C10 C21 -175.0(4)
C8 C9 C10 C21 10.8(7)
C14 N3 C11 C10 177.2(5)
Fe1 N3 C11 C10 -18.1(7)
C14 N3 C11 C12 -1.0(6)
Fe1 N3 C11 C12 163.6(3)
C9 C10 C11 N3 -8.7(8)
C21 C10 C11 N3 175.4(4)
C9 C10 C11 C12 169.2(5)
C21 C10 C11 C12 -6.6(8)
N3 C11 C12 C13 2.5(6)
C10 C11 C12 C13 -175.7(5)
C11 C12 C13 C14 -2.9(6)
C11 N3 C14 C15 175.9(5)
Fe1 N3 C14 C15 11.9(7)
C11 N3 C14 C13 -0.8(6)
Fe1 N3 C14 C13 -164.7(3)
C12 C13 C14 N3 2.4(6)
C12 C13 C14 C15 -174.3(5)
N3 C14 C15 C16 -4.6(9)
C13 C14 C15 C16 171.6(5)
N3 C14 C15 C71 -178.5(5)
C13 C14 C15 C71 -2.3(8)
C19 N4 C16 C15 -178.3(5)
Fe1 N4 C16 C15 -9.9(8)
C19 N4 C16 C17 1.6(6)
Fe1 N4 C16 C17 170.0(4)
C14 C15 C16 N4 3.5(9)
C71 C15 C16 N4 177.5(5)
C14 C15 C16 C17 -176.4(5)
C71 C15 C16 C17 -2.4(8)
N4 C16 C17 C18 -2.3(7)
C15 C16 C17 C18 177.6(5)
C16 C17 C18 C19 2.0(7)
C16 N4 C19 C20 -175.5(5)
Fe1 N4 C19 C20 15.6(7)
C16 N4 C19 C18 -0.4(6)
Fe1 N4 C19 C18 -169.2(4)
C17 C18 C19 N4 -1.0(7)
C17 C18 C19 C20 174.1(5)
N1 C1 C20 C19 -5.3(8)
C2 C1 C20 C19 170.9(5)
N1 C1 C20 C31 179.1(4)
C2 C1 C20 C31 -4.8(8)
N4 C19 C20 C1 8.2(8)
C18 C19 C20 C1 -166.2(5)
N4 C19 C20 C31 -176.1(5)
C18 C19 C20 C31 9.5(8)
C9 C10 C21 C22 70.7(7)
C11 C10 C21 C22 -113.2(6)
C9 C10 C21 C26 -109.2(6)
C11 C10 C21 C26 66.9(7)
C26 C21 C22 C23 -1.5(9)
C10 C21 C22 C23 178.6(6)
C21 C22 C23 C24 1.9(10)
C22 C23 C24 C25 -0.9(9)
C22 C23 C24 O27 177.1(6)
C23 C24 C25 C26 -0.3(10)
O27 C24 C25 C26 -178.5(6)
C24 C25 C26 C21 0.6(9)
C22 C21 C26 C25 0.3(9)
C10 C21 C26 C25 -179.9(5)
C25 C24 O27 C28 -155.5(6)
C23 C24 O27 C28 26.4(8)
C24 O27 C28 C29 60.2(8)
C1 C20 C31 C32 -117.4(6)
C19 C20 C31 C32 66.7(7)
C1 C20 C31 C36 66.0(7)
C19 C20 C31 C36 -110.0(6)
C36 C31 C32 C33 -2.9(9)
C20 C31 C32 C33 -179.7(6)
C31 C32 C33 C34 3.0(10)
C32 C33 C34 C35 -1.8(9)
C32 C33 C34 O37 176.5(6)
C33 C34 C35 C36 0.7(9)
O37 C34 C35 C36 -177.7(5)
C34 C35 C36 C31 -0.7(8)
C32 C31 C36 C35 1.8(8)
C20 C31 C36 C35 178.5(5)
C35 C34 O37 C38 -156.1(5)
C33 C34 O37 C38 25.5(8)
C34 O37 C38 C39 65.7(7)
C4 C5 C41 C42 -99.6(6)
C6 C5 C41 C42 82.6(6)
C4 C5 C41 C46 81.0(6)
C6 C5 C41 C46 -96.8(6)
C46 C41 C42 C43 0.3(8)
C5 C41 C42 C43 -179.0(5)
C41 C42 C43 O47 176.9(6)
C41 C42 C43 C44 -2.9(9)
O47 C43 C44 C45 -176.1(7)
C42 C43 C44 C45 3.6(11)
C43 C44 C45 C46 -1.7(12)
C42 C41 C46 N51 -171(2)
C5 C41 C46 N51 8(2)
C42 C41 C46 C45 1.6(9)
C5 C41 C46 C45 -179.0(6)
C42 C41 C46 N51B 179(2)
C5 C41 C46 N51B -1(2)
C44 C45 C46 N51 172(2)
C44 C45 C46 C41 -0.9(11)
C44 C45 C46 N51B -178(3)
C44 C43 O47 C48 165.2(9)
C42 C43 O47 C48 -14.6(11)
C43 O47 C48 C49 -56.4(17)
O47 C48 C49 C50 6(6)
C41 C46 N51 C52 -122(2)
C45 C46 N51 C52 65(3)
C46 N51 C52 O53 -42(4)
C46 N51 C52 C54 155(2)
C41 C46 N51B C52B -148(3)
C45 C46 N51B C52B 29(5)
C46 N51B C52B O53B 17(5)
C46 N51B C52B C54B -178(3)
O53 C52 C54 C55 14(2)
N51 C52 C54 C55 176.8(19)
O53 C52 C54 C59 -164(2)
N51 C52 C54 C59 -1(2)
C59 C54 C55 C56 0.2(3)
C52 C54 C55 C56 -177.6(9)
C54 C55 C56 C57 0.1(3)
C55 C56 C57 C58 -0.1(6)
C56 C57 C58 C59 -0.2(8)
C56 C57 C58 C60 177.1(9)
C55 C54 C59 C58 -0.5(6)
C52 C54 C59 C58 177.0(10)
C57 C58 C59 C54 0.5(8)
C60 C58 C59 C54 -176.8(9)
O53B C52B C54B C59B 123(3)
N51B C52B C54B C59B -41(3)
O53B C52B C54B C55B -48(3)
N51B C52B C54B C55B 148(3)
C59B C54B C55B C56B 15(3)
C52B C54B C55B C56B -174.5(13)
C54B C55B C56B C57B -13(2)
C55B C56B C57B C58B 4(2)
C56B C57B C58B C59B 4(2)
C56B C57B C58B C60B -177.4(14)
C55B C54B C59B C58B -7(3)
C52B C54B C59B C58B -178.3(13)
C57B C58B C59B C54B -2(2)
C60B C58B C59B C54B 178.9(15)
C57 C58 C60 C61 70.0(13)
C59 C58 C60 C61 -112.8(11)
C58 C60 C61 C63 -70.9(15)
C58 C60 C61 C90 174.0(10)
C58 C60 C61 C66 56.0(13)
C57B C58B C60B C61B -88.4(17)
C59B C58B C60B C61B 90.5(17)
C58B C60B C61B C90B 166.0(11)
C58B C60B C61B C63B 47.2(16)
C58B C60B C61B C66B -77.9(14)
C90 C61 C63 O65 68(2)
C60 C61 C63 O65 -46(2)
C66 C61 C63 O65 -168.5(18)
C90 C61 C63 O64 -118.3(14)
C60 C61 C63 O64 127.8(14)
C66 C61 C63 O64 5.7(19)
C90B C61B C63B O65B -42(2)
C66B C61B C63B O65B -165.7(18)
C60B C61B C63B O65B 73(2)
C90B C61B C63B O64B 126.3(16)
C66B C61B C63B O64B 3(2)
C60B C61B C63B O64B -118.9(16)
C63 C61 C66 O67 0.1(18)
C90 C61 C66 O67 122.5(12)
C60 C61 C66 O67 -122.7(12)
C63 C61 C66 O68 -179.9(11)
C90 C61 C66 O68 -57.5(14)
C60 C61 C66 O68 57.2(14)
O67 C66 O68 Fe1 -11(2)
C61 C66 O68 Fe1 168.5(8)
C90B C61B C66B O67B -125.9(14)
C63B C61B C66B O67B -1.8(19)
C60B C61B C66B O67B 121.5(13)
C90B C61B C66B O68B 51.3(17)
C63B C61B C66B O68B 175.4(13)
C60B C61B C66B O68B -61.3(15)
O67B C66B O68B Fe1 -10(2)
C61B C66B O68B Fe1 172.4(9)
C14 C15 C71 C76 77.8(7)
C16 C15 C71 C76 -96.5(6)
C14 C15 C71 C72 -103.5(6)
C16 C15 C71 C72 82.2(6)
C76 C71 C72 C73 1.1(8)
C15 C71 C72 C73 -177.6(5)
C71 C72 C73 O77 179.0(5)
C71 C72 C73 C74 -1.5(8)
O77 C73 C74 C75 -180.0(6)
C72 C73 C74 C75 0.6(9)
C73 C74 C75 C76 0.8(11)
C72 C71 C76 N81 -172(3)
C15 C71 C76 N81 6(3)
C72 C71 C76 C75 0.3(9)
C15 C71 C76 C75 179.0(6)
C72 C71 C76 N81B 175(3)
C15 C71 C76 N81B -6(3)
C74 C75 C76 N81 172(3)
C74 C75 C76 C71 -1.3(10)
C74 C75 C76 N81B -176(3)
C74 C73 O77 C78 174.1(5)
C72 C73 O77 C78 -6.4(8)
C73 O77 C78 C79 -67.5(6)
C71 C76 N81 C82 -142(3)
C75 C76 N81 C82 45(5)
C76 N81 C82 O83 -8(5)
C76 N81 C82 C84 156(3)
C71 C76 N81B C82B -169(4)
C75 C76 N81B C82B 5(6)
C76 N81B C82B O83B 3(6)
C76 N81B C82B C84B -174(4)
O83 C82 C84 C85 -37.8(12)
N81 C82 C84 C85 157(3)
O83 C82 C84 C89 134.5(10)
N81 C82 C84 C89 -31(3)
C89 C84 C85 C86 0.0(3)
C82 C84 C85 C86 172.7(11)
C84 C85 C86 C87 0.0(3)
C85 C86 C87 C88 0.1(6)
C86 C87 C88 C89 -0.1(8)
C86 C87 C88 C90 -179.1(9)
C85 C84 C89 C88 0.0(6)
C82 C84 C89 C88 -172.4(11)
C87 C88 C89 C84 0.1(8)
C90 C88 C89 C84 179.1(9)
N81B C82B C84B C85B -146(3)
O83B C82B C84B C85B 38(2)
N81B C82B C84B C89B 33(3)
O83B C82B C84B C89B -143.3(13)
C89B C84B C85B C86B -2(2)
C82B C84B C85B C86B 177.1(13)
C84B C85B C86B C87B 7(3)
C85B C86B C87B C88B -7(3)
C86B C87B C88B C89B 3(2)
C86B C87B C88B C90B -179.4(14)
C87B C88B C89B C84B 1.6(18)
C90B C88B C89B C84B -176.1(11)
C85B C84B C89B C88B -2(2)
C82B C84B C89B C88B 178.9(11)
C87 C88 C90 C61 -98.1(10)
C89 C88 C90 C61 82.9(11)
C63 C61 C90 C88 47.1(12)
C60 C61 C90 C88 163.6(9)
C66 C61 C90 C88 -80.1(12)
C87B C88B C90B C61B 65.2(16)
C89B C88B C90B C61B -117.1(13)
C63B C61B C90B C88B -62.8(14)
C66B C61B C90B C88B 63.2(15)
C60B C61B C90B C88B 178.2(10)
