#------------------------------------------------------------------------------
#$Date: 2023-07-05 13:31:35 +0300 (Wed, 05 Jul 2023) $
#$Revision: 284935 $
#$URL: file:///home/coder/svn-repositories/cod/cif/7/06/24/7062460.cif $
#------------------------------------------------------------------------------
#
# This file is available in the Crystallography Open Database (COD),
# http://www.crystallography.net/
#
# All data on this site have been placed in the public domain by the
# contributors.
#
data_7062460
loop_
_publ_author_name
'Arif, Waseem'
'Kumar, Ravi'
_publ_section_title
;
 Regioselective 2,3-disubstituted porphyrins: synthesis, spectral,
 structural and electrochemical properties
;
_journal_issue                   22
_journal_name_full               'New Journal of Chemistry'
_journal_page_first              10541
_journal_page_last               10551
_journal_paper_doi               10.1039/D3NJ01288C
_journal_volume                  47
_journal_year                    2023
_chemical_formula_moiety         'C60 H36 Cu N4'
_chemical_formula_sum            'C60 H36 Cu N4'
_chemical_formula_weight         876.47
_space_group_crystal_system      triclinic
_space_group_IT_number           2
_space_group_name_Hall           '-P 1'
_space_group_name_H-M_alt        'P -1'
_atom_sites_solution_hydrogens   mixed
_atom_sites_solution_primary     direct
_audit_creation_date             2023-04-16
_audit_creation_method
;
Olex2 1.5
(compiled 2023.03.06 svn.rbb2c1857 for OlexSys, GUI svn.r6748)
;
_audit_update_record
;
2023-04-16 deposited with the CCDC.	2023-05-02 downloaded from the CCDC.
;
_cell_angle_alpha                66.9110(10)
_cell_angle_beta                 82.2880(10)
_cell_angle_gamma                67.6690(10)
_cell_formula_units_Z            2
_cell_length_a                   11.6718(5)
_cell_length_b                   13.6174(7)
_cell_length_c                   15.3876(7)
_cell_measurement_reflns_used    15338
_cell_measurement_temperature    296(2)
_cell_measurement_theta_max      19.7130
_cell_measurement_theta_min      1.5310
_cell_volume                     2080.75(17)
_computing_cell_refinement       'SAINT V8.40B (?, 2016)'
_computing_data_collection       'Bruker Instrument Service vV6.2.16'
_computing_molecular_graphics    'Olex2 1.5 (Dolomanov et al., 2009)'
_computing_publication_material  'Olex2 1.5 (Dolomanov et al., 2009)'
_computing_structure_refinement  'XL  (Sheldrick, 2008)'
_computing_structure_solution    'SIR2004 (Burla et al.,  2007)'
_diffrn_ambient_temperature      296.15
_diffrn_measured_fraction_theta_full 0.994
_diffrn_measured_fraction_theta_max 0.994
_diffrn_measurement_device_type
'Saxi-CrysAlisPro-abstract goniometer imported SAXI images'
_diffrn_measurement_method       '\w and \f scans'
_diffrn_radiation_type           MoK\a
_diffrn_radiation_wavelength     0.71073
_diffrn_reflns_av_R_equivalents  0.0292
_diffrn_reflns_av_unetI/netI     0.0288
_diffrn_reflns_Laue_measured_fraction_full 0.994
_diffrn_reflns_Laue_measured_fraction_max 0.994
_diffrn_reflns_limit_h_max       13
_diffrn_reflns_limit_h_min       -13
_diffrn_reflns_limit_k_max       16
_diffrn_reflns_limit_k_min       -16
_diffrn_reflns_limit_l_max       17
_diffrn_reflns_limit_l_min       -18
_diffrn_reflns_number            26123
_diffrn_reflns_point_group_measured_fraction_full 0.994
_diffrn_reflns_point_group_measured_fraction_max 0.994
_diffrn_reflns_theta_full        25.000
_diffrn_reflns_theta_max         25.000
_diffrn_reflns_theta_min         2.058
_exptl_absorpt_coefficient_mu    0.574
_exptl_crystal_colour            PURPLE
_exptl_crystal_density_diffrn    1.399
_exptl_crystal_description       BLOCK
_exptl_crystal_F_000             906
_exptl_crystal_recrystallization_method
'Re-crystallisation from solvent: Chloroform and methanol'
_exptl_crystal_size_max          0.31
_exptl_crystal_size_mid          0.21
_exptl_crystal_size_min          0.19
_refine_diff_density_max         0.613
_refine_diff_density_min         -0.401
_refine_diff_density_rms         0.066
_refine_ls_extinction_method     none
_refine_ls_goodness_of_fit_ref   1.050
_refine_ls_hydrogen_treatment    mixed
_refine_ls_matrix_type           full
_refine_ls_number_parameters     698
_refine_ls_number_reflns         7277
_refine_ls_number_restraints     12
_refine_ls_restrained_S_all      1.049
_refine_ls_R_factor_all          0.0491
_refine_ls_R_factor_gt           0.0439
_refine_ls_shift/su_max          0.000
_refine_ls_shift/su_mean         0.000
_refine_ls_structure_factor_coef Fsqd
_refine_ls_weighting_details
'w=1/[\s^2^(Fo^2^)+(0.0565P)^2^+2.5273P] where P=(Fo^2^+2Fc^2^)/3'
_refine_ls_weighting_scheme      calc
_refine_ls_wR_factor_gt          0.1109
_refine_ls_wR_factor_ref         0.1143
_reflns_Friedel_coverage         0.000
_reflns_number_gt                6535
_reflns_number_total             7277
_reflns_threshold_expression     'I > 2\s(I)'
_cod_data_source_file            d3nj01288c2.cif
_cod_data_source_block           shelx
_cod_depositor_comments
'Adding full bibliography for 7062460--7062461.cif.'
_cod_database_code               7062460
_shelx_shelxl_version_number     2019/1
_shelx_space_group_comment
;
The symmetry employed for this shelxl refinement is uniquely defined
by the following loop, which should always be used as a source of
symmetry information in preference to the above space-group names.
They are only intended as comments.
;
_olex2_refinement_description
;
1. Fixed Uiso
 At 1.2 times of:
  All C(H) groups
2. Uiso/Uaniso restraints and constraints
Uanis(C59) \\sim Ueq: with sigma of 0.1 and sigma for terminal atoms of 0.5
Uanis(C58) \\sim Ueq: with sigma of 0.1 and sigma for terminal atoms of 0.4
3.a Aromatic/amide H refined with riding coordinates:
 C17(H17), C18(H18), C23(H23), C37(H37), C50(H50), C57(H57), C58(H58), C49(H49)
;
_smtbx_masks_void_probe_radius   1.2
_smtbx_masks_void_truncation_radius 1.2
_shelx_res_file
;
TITL 27octc_0m_a.res in P-1
    shelx.res
    created by SHELXL-2019/1 at 11:54:42 on 16-Apr-2023
CELL 0.71073 11.6718 13.6174 15.3876 66.911 82.288 67.669
ZERR 2 0.0005 0.0007 0.0007 0.001 0.001 0.001
LATT 1
SFAC C H Cu N
UNIT 120 72 2 8
ISOR 0.1 0.5 C59
ISOR 0.1 0.4 C58

L.S. 20
PLAN  5
TEMP 23
CONF
BOND
LIST 6
MORE -1
BOND $H
ABIN
fmap 2
acta
MERG 2
OMIT -3 50
OMIT 1 0 1
OMIT 0 1 2
OMIT 5 0 1
OMIT -2 0 4
OMIT -2 -1 6
OMIT 1 2 1
OMIT 0 -2 1
OMIT 0 4 2
OMIT 1 0 2
OMIT 2 3 3
OMIT -2 -2 3
OMIT -1 1 4
OMIT -1 1 7
OMIT 0 -1 1
OMIT 3 2 1
OMIT -3 -4 4
OMIT -1 1 5
OMIT 6 2 2
OMIT 3 0 2
OMIT 0 0 7
OMIT -1 7 2
OMIT 3 5 6
OMIT -3 -3 1
OMIT 1 -1 1
OMIT 4 4 6
OMIT 1 1 4
OMIT 0 -4 1
OMIT 3 -3 6
OMIT -1 3 5
OMIT 2 1 3
OMIT -3 6 2
OMIT 2 0 2
OMIT 1 2 7
OMIT 0 2 1
OMIT 2 2 0
OMIT -1 1 2
OMIT 1 3 0
OMIT 0 -1 4
OMIT -3 -1 1
REM <olex2.extras>
REM <HklSrc "%.\\shelx.hkl">
REM </olex2.extras>

WGHT    0.056500    2.527300
FVAR       0.35114
CU    3    0.598922    0.423215    0.355134    11.00000    0.01606    0.01821 =
         0.01298   -0.00174    0.00055   -0.00582
N1    4    0.450788    0.428274    0.435743    11.00000    0.01943    0.01916 =
         0.01611   -0.00288    0.00039   -0.00669
N2    4    0.707507    0.298317    0.466363    11.00000    0.01697    0.01978 =
         0.01606   -0.00332    0.00035   -0.00674
N3    4    0.746749    0.425028    0.275795    11.00000    0.01960    0.01876 =
         0.01571   -0.00146   -0.00071   -0.00585
N4    4    0.489164    0.541827    0.243258    11.00000    0.01924    0.01993 =
         0.01737   -0.00272    0.00018   -0.00675
C1    1    0.330753    0.502586    0.411166    11.00000    0.01920    0.01998 =
         0.02055   -0.00546    0.00227   -0.00676
C2    1    0.254275    0.486943    0.493848    11.00000    0.02059    0.02544 =
         0.02155   -0.00847    0.00383   -0.00512
H2    2    0.170928    0.532881    0.492395    11.00000    0.01931
C3    1    0.326981    0.400885    0.565785    11.00000    0.02412    0.02369 =
         0.01913   -0.00851    0.00597   -0.00884
H3    2    0.307678    0.372607    0.629011    11.00000    0.03216
C4    1    0.448663    0.361412    0.530074    11.00000    0.02132    0.02052 =
         0.01683   -0.00549    0.00091   -0.00931
C5    1    0.546260    0.266039    0.582975    11.00000    0.02244    0.02153 =
         0.01585   -0.00567    0.00043   -0.00921
C6    1    0.668338    0.238164    0.552242    11.00000    0.02440    0.01854 =
         0.01438   -0.00378    0.00118   -0.00903
C7    1    0.773445    0.145691    0.607961    11.00000    0.02402    0.02151 =
         0.01770   -0.00390   -0.00051   -0.00897
C8    1    0.877338    0.152319    0.554808    11.00000    0.02027    0.02126 =
         0.01900   -0.00376   -0.00171   -0.00636
C9    1    0.834480    0.249163    0.467165    11.00000    0.02088    0.02145 =
         0.01730   -0.00545   -0.00120   -0.00787
C10   1    0.912156    0.286376    0.395196    11.00000    0.01807    0.02002 =
         0.02061   -0.00664   -0.00090   -0.00626
C11   1    0.869546    0.368976    0.305554    11.00000    0.01869    0.02057 =
         0.02080   -0.00512    0.00076   -0.00782
C12   1    0.949187    0.401171    0.228281    11.00000    0.01922    0.02743 =
         0.02512   -0.00390    0.00140   -0.00967
H12   2    1.044079    0.374326    0.229758    11.00000    0.02872
C13   1    0.876052    0.471686    0.151102    11.00000    0.02336    0.02507 =
         0.01974   -0.00222    0.00382   -0.00987
H13   2    0.900643    0.507451    0.088629    11.00000    0.03387
C14   1    0.750006    0.486673    0.180405    11.00000    0.02320    0.01976 =
         0.01560   -0.00352    0.00216   -0.00787
C15   1    0.647150    0.555347    0.119643    11.00000    0.02449    0.01954 =
         0.01535   -0.00259    0.00108   -0.00793
C16   1    0.525350    0.581521    0.150573    11.00000    0.02355    0.02178 =
         0.01697   -0.00327    0.00004   -0.00974
C17   1    0.418676    0.657908    0.090174    11.00000    0.02616    0.03191 =
         0.01517   -0.00125   -0.00065   -0.01053
AFIX  43
H17   2    0.418902    0.695056    0.024966    11.00000   -1.20000
AFIX   0
C18   1    0.317931    0.665860    0.145539    11.00000    0.02095    0.02867 =
         0.02214   -0.00264   -0.00329   -0.00615
AFIX  43
H18   2    0.236042    0.709920    0.125813    11.00000   -1.20000
AFIX   0
C19   1    0.361916    0.592696    0.241358    11.00000    0.02142    0.02233 =
         0.01911   -0.00397   -0.00071   -0.00718
C20   1    0.285449    0.576717    0.319748    11.00000    0.02003    0.02089 =
         0.02174   -0.00519   -0.00030   -0.00538
C21   1    0.512658    0.188170    0.674711    11.00000    0.01812    0.02211 =
         0.01807   -0.00316    0.00173   -0.00417
C22   1    0.513262    0.199614    0.760165    11.00000    0.04671    0.02988 =
         0.02351   -0.00946    0.00339   -0.01688
H22   2    0.538527    0.252223    0.761886    11.00000    0.01978
C23   1    0.480168    0.126079    0.842193    11.00000    0.05727    0.04116 =
         0.02088   -0.01045    0.00868   -0.01358
AFIX  43
H23   2    0.481766    0.133815    0.899397    11.00000   -1.20000
AFIX   0
C24   1    0.444801    0.041320    0.839591    11.00000    0.03951    0.02955 =
         0.03466    0.00234    0.01171   -0.00957
H24   2    0.418479   -0.009464    0.900700    11.00000    0.05399
C25   1    0.440656    0.030529    0.754829    11.00000    0.02961    0.02340 =
         0.04364   -0.00408    0.00253   -0.01110
H25   2    0.414235   -0.016460    0.749947    11.00000    0.03913
C26   1    0.474499    0.103160    0.673771    11.00000    0.02328    0.02416 =
         0.02583   -0.00422   -0.00162   -0.00687
H26   2    0.470633    0.093567    0.619693    11.00000    0.03840
C27   1    1.049620    0.235008    0.413139    11.00000    0.01869    0.02273 =
         0.01788    0.00080    0.00110   -0.00973
C28   1    1.103100    0.268186    0.466584    11.00000    0.02534    0.02466 =
         0.02403   -0.00492   -0.00326   -0.00753
H28   2    1.057075    0.317698    0.496151    11.00000    0.02593
C29   1    1.230216    0.222065    0.482589    11.00000    0.03151    0.03130 =
         0.03018   -0.00674   -0.00974   -0.01313
H29   2    1.256988    0.246057    0.513101    11.00000    0.02698
C30   1    1.304133    0.141847    0.445821    11.00000    0.01926    0.03253 =
         0.02771    0.00084   -0.00518   -0.01025
H30   2    1.390610    0.110647    0.456740    11.00000    0.03401
C31   1    1.251562    0.107169    0.392611    11.00000    0.02273    0.02686 =
         0.02206   -0.00416    0.00412   -0.00571
H31   2    1.295574    0.054853    0.367357    11.00000    0.02475
C32   1    1.124621    0.154163    0.376131    11.00000    0.02328    0.02589 =
         0.01933   -0.00291   -0.00115   -0.01123
H32   2    1.091186    0.129771    0.341134    11.00000    0.01085
C33   1    0.670783    0.599413    0.015509    11.00000    0.01673    0.02451 =
         0.01696   -0.00216    0.00069   -0.00608
C34   1    0.710845    0.523774   -0.030813    11.00000    0.04238    0.02731 =
         0.02238   -0.00319    0.00512   -0.01680
H34   2    0.719239    0.444437    0.000774    11.00000    0.04819
C35   1    0.735543    0.560059   -0.126840    11.00000    0.04345    0.03801 =
         0.02298   -0.00949    0.00545   -0.01670
H35   2    0.752605    0.506814   -0.157247    11.00000    0.03946
C36   1    0.717543    0.673966   -0.177657    11.00000    0.02200    0.03968 =
         0.01909   -0.00158    0.00062   -0.01054
H36   2    0.737777    0.701142   -0.249955    11.00000    0.02969
C37   1    0.678256    0.749880   -0.132353    11.00000    0.03862    0.02625 =
         0.02667    0.00366    0.00188   -0.01301
AFIX  43
H37   2    0.666800    0.826492   -0.166409    11.00000   -1.20000
AFIX   0
C38   1    0.655570    0.713450   -0.036549    11.00000    0.04183    0.02600 =
         0.02603   -0.00579    0.00499   -0.01188
H38   2    0.630983    0.767307   -0.005636    11.00000    0.03822
C39   1    0.147929    0.632616    0.306086    11.00000    0.02150    0.02588 =
         0.01655   -0.00496    0.00242   -0.00599
C40   1    0.087209    0.750363    0.278406    11.00000    0.03023    0.02543 =
         0.02550   -0.00770   -0.00256   -0.00860
H40   2    0.133115    0.795376    0.265428    11.00000    0.01659
C41   1   -0.041305    0.797806    0.271288    11.00000    0.03274    0.02438 =
         0.02510   -0.00800   -0.00598    0.00170
H41   2   -0.078069    0.876738    0.253718    11.00000    0.03470
C42   1   -0.110164    0.730459    0.289415    11.00000    0.01969    0.03784 =
         0.02678   -0.00955    0.00040   -0.00300
H42   2   -0.194131    0.763660    0.284954    11.00000    0.04038
C43   1   -0.049873    0.611926    0.314882    11.00000    0.02639    0.03452 =
         0.03018   -0.00791    0.00484   -0.01317
H43   2   -0.100669    0.566178    0.321458    11.00000    0.04454
C44   1    0.076482    0.564417    0.323469    11.00000    0.02717    0.01938 =
         0.02510   -0.00452    0.00080   -0.00505
H44   2    0.111637    0.492421    0.337618    11.00000    0.02831
C45   1    0.780632    0.066408    0.702359    11.00000    0.02782    0.03127 =
         0.02678   -0.00775    0.00145   -0.01048
C46   1    0.808768   -0.002779    0.781572    11.00000    0.03460    0.03463 =
         0.02750   -0.00744   -0.00003   -0.01258
C47   1    0.847245   -0.084318    0.875863    11.00000    0.03726    0.04023 =
         0.02443   -0.00221   -0.00209   -0.01439
C48   1    0.803285   -0.051553    0.950077    11.00000    0.05367    0.04823 =
         0.03125   -0.01245   -0.00379    0.00758
H48   2    0.758649    0.012419    0.937338    11.00000    0.01553
C50   1    0.935515   -0.241517    1.053672    11.00000    0.07271    0.05178 =
         0.03050    0.00007   -0.01899    0.00285
AFIX  43
H50   2    0.966039   -0.293671    1.113646    11.00000   -1.20000
AFIX   0
C51   1    0.972764   -0.270911    0.980084    11.00000    0.03888    0.03914 =
         0.03607    0.00101    0.00269   -0.00552
H51   2    1.029441   -0.344465    0.982646    11.00000    0.08442
C52   1    0.929643   -0.195123    0.889818    11.00000    0.04546    0.03634 =
         0.03239   -0.00598    0.00234   -0.01836
H52   2    0.958935   -0.220798    0.830269    11.00000    0.07055
C53   1    0.998553    0.072398    0.586002    11.00000    0.02760    0.03031 =
         0.02621   -0.00582   -0.00015   -0.01072
C54   1    1.093679   -0.002012    0.624288    11.00000    0.03304    0.03078 =
         0.02657   -0.00482    0.00021   -0.01354
C55   1    1.200004   -0.090630    0.678910    11.00000    0.02671    0.02149 =
         0.03271   -0.00508   -0.01291   -0.00520
C56   1    1.190387   -0.137645    0.778630    11.00000    0.03519    0.03622 =
         0.03575   -0.00309   -0.00057   -0.01526
H56   2    1.115648   -0.115896    0.802351    11.00000    0.03714
C57   1    1.289424   -0.223374    0.832325    11.00000    0.05847    0.03546 =
         0.03468    0.00885   -0.01910   -0.01999
AFIX  43
H57   2    1.281609   -0.253450    0.897554    11.00000   -1.20000
AFIX   0
C58   1    1.399164   -0.266100    0.793267    11.00000    0.03323    0.02338 =
         0.05010    0.00276   -0.02158   -0.01243
AFIX  43
H58   2    1.465133   -0.325294    0.831342    11.00000   -1.20000
AFIX   0
C59   1    1.411999   -0.221688    0.697936    11.00000    0.02250    0.03052 =
         0.08149   -0.02466   -0.00067   -0.00956
H59   2    1.491048   -0.247827    0.665166    11.00000    0.05245
C60   1    1.312842   -0.133770    0.639015    11.00000    0.04597    0.03422 =
         0.03157   -0.00969    0.00258   -0.02333
H60   2    1.319368   -0.103896    0.569501    11.00000    0.05301
C49   1    0.850419   -0.132506    1.042400    11.00000    0.11002    0.08341 =
         0.02622   -0.01655   -0.01547    0.02985
AFIX  43
H49   2    0.824182   -0.112259    1.094839    11.00000   -1.20000
AFIX   0
HKLF 4




REM  27octc_0m_a.res in P-1
REM wR2 = 0.1143, GooF = S = 1.050, Restrained GooF = 1.049 for all data
REM R1 = 0.0439 for 6535 Fo > 4sig(Fo) and 0.0491 for all 7277 data
REM 698 parameters refined using 12 restraints

END

WGHT      0.0564      2.5354

REM Highest difference peak  0.613,  deepest hole -0.401,  1-sigma level  0.066
Q1    1   0.4202  0.6831 -0.0114  11.00000  0.05    0.61
Q2    1   0.1974  0.7210  0.1045  11.00000  0.05    0.61
Q3    1   1.0143 -0.2641  1.0256  11.00000  0.05    0.61
Q4    1   1.3820 -0.2692  0.9009  11.00000  0.05    0.57
Q5    1   1.2456 -0.0531  0.6316  11.00000  0.05    0.56
;
_shelx_res_checksum              12386
_shelx_fab_file
;
-15 -8 1 0.1801 -0.0208
-15 -7 1 0.2303 -0.0182
-15 -7 2 0.2032 -0.0188
-15 -6 1 0.2953 -0.0215
-15 -6 2 0.2554 -0.0270
-15 -5 1 0.2679 -0.0230
-15 -5 2 0.1822 -0.0321
-15 -5 3 0.0786 -0.0342
-15 -4 1 0.1287 -0.0138
-15 -4 2 0.0046 -0.0255
-15 -3 1 0.0089 0.0036
-15 -3 2 -0.1217 -0.0112
-14 -11 1 -0.0459 0.0116
-14 -10 1 0.0796 0.0048
-14 -10 2 0.0266 0.0107
-14 -10 3 -0.0057 0.0196
-14 -9 1 0.1907 -0.0125
-14 -9 2 0.0977 -0.0069
-14 -9 3 0.0242 0.0035
-14 -9 4 -0.0033 0.0158
-14 -8 1 0.1902 -0.0199
-14 -8 2 0.0956 -0.0159
-14 -8 3 0.0075 -0.0056
-14 -8 4 -0.0452 0.0085
-14 -7 1 0.1448 -0.0162
-14 -7 2 0.0940 -0.0151
-14 -7 3 0.0296 -0.0074
-14 -7 4 -0.0207 0.0051
-14 -7 5 -0.0461 0.0177
-14 -6 1 0.1898 -0.0135
-14 -6 2 0.1794 -0.0165
-14 -6 3 0.1376 -0.0136
-14 -6 4 0.0909 -0.0055
-14 -6 5 0.0512 0.0041
-14 -6 6 0.0193 0.0108
-14 -5 1 0.3064 -0.0163
-14 -5 2 0.2908 -0.0237
-14 -5 3 0.2360 -0.0256
-14 -5 4 0.1712 -0.0216
-14 -5 5 0.1095 -0.0146
-14 -5 6 0.0532 -0.0090
-14 -4 1 0.3263 -0.0166
-14 -4 2 0.2728 -0.0273
-14 -4 3 0.1854 -0.0328
-14 -4 4 0.0993 -0.0308
-14 -4 5 0.0268 -0.0236
-14 -4 6 -0.0335 -0.0161
-14 -3 1 0.1827 -0.0063
-14 -3 2 0.0996 -0.0200
-14 -3 3 0.0006 -0.0286
-14 -3 4 -0.0753 -0.0277
-14 -3 5 -0.1221 -0.0189
-14 -3 6 -0.1529 -0.0079
-14 -2 1 0.0313 0.0106
-14 -2 2 -0.0593 -0.0063
-14 -2 3 -0.1389 -0.0190
-14 -2 4 -0.1700 -0.0205
-14 -2 5 -0.1613 -0.0115
-14 -2 6 -0.1446 0.0016
-14 -1 1 0.0474 0.0233
-14 -1 2 -0.0505 0.0031
-14 -1 3 -0.1077 -0.0136
-14 -1 4 -0.0931 -0.0182
-14 -1 5 -0.0337 -0.0106
-14 0 1 0.1893 0.0245
-14 0 2 0.0672 0.0032
-14 0 3 0.0106 -0.0153
-14 0 4 0.0439 -0.0212
-14 0 5 0.1242 -0.0141
-14 1 1 0.2605 0.0169
-14 1 2 0.1136 -0.0032
-14 1 3 0.0453 -0.0206
-13 -13 1 0.1166 -0.0687
-13 -12 1 0.1059 -0.0473
-13 -12 2 0.0230 -0.0534
-13 -11 1 -0.0025 -0.0111
-13 -11 2 -0.0506 -0.0122
-13 -11 3 -0.1195 -0.0078
-13 -11 4 -0.1639 0.0042
-13 -10 1 -0.0377 0.0087
-13 -10 2 -0.0651 0.0116
-13 -10 3 -0.0977 0.0180
-13 -10 4 -0.0970 0.0283
-13 -10 5 -0.0413 0.0398
-13 -9 1 0.0755 0.0030
-13 -9 2 0.0175 0.0068
-13 -9 3 -0.0342 0.0138
-13 -9 4 -0.0436 0.0232
-13 -9 5 0.0058 0.0317
-13 -9 6 0.1015 0.0336
-13 -8 1 0.1861 -0.0106
-13 -8 2 0.0851 -0.0080
-13 -8 3 -0.0093 -0.0010
-13 -8 4 -0.0603 0.0091
-13 -8 5 -0.0515 0.0189
-13 -8 6 0.0058 0.0232
-13 -7 1 0.1493 -0.0143
-13 -7 2 0.0517 -0.0133
-13 -7 3 -0.0476 -0.0071
-13 -7 4 -0.1136 0.0037
-13 -7 5 -0.1308 0.0157
-13 -7 6 -0.1067 0.0245
-13 -7 7 -0.0646 0.0262
-13 -6 1 0.0604 -0.0097
-13 -6 2 0.0135 -0.0106
-13 -6 3 -0.0456 -0.0064
-13 -6 4 -0.0886 0.0028
-13 -6 5 -0.1040 0.0142
-13 -6 6 -0.0981 0.0239
-13 -6 7 -0.0842 0.0288
-13 -6 8 -0.0730 0.0286
-13 -5 1 0.1091 -0.0076
-13 -5 2 0.1085 -0.0111
-13 -5 3 0.0862 -0.0104
-13 -5 4 0.0641 -0.0050
-13 -5 5 0.0477 0.0028
-13 -5 6 0.0302 0.0097
-13 -5 7 0.0065 0.0129
-13 -5 8 -0.0188 0.0128
-13 -4 1 0.2695 -0.0098
-13 -4 2 0.2770 -0.0167
-13 -4 3 0.2558 -0.0199
-13 -4 4 0.2264 -0.0182
-13 -4 5 0.1906 -0.0134
-13 -4 6 0.1393 -0.0090
-13 -4 7 0.0721 -0.0075
-13 -4 8 0.0060 -0.0086
-13 -3 1 0.3156 -0.0085
-13 -3 2 0.3102 -0.0184
-13 -3 3 0.2759 -0.0253
-13 -3 4 0.2368 -0.0259
-13 -3 5 0.1913 -0.0214
-13 -3 6 0.1248 -0.0158
-13 -3 7 0.0360 -0.0124
-13 -3 8 -0.0515 -0.0116
-13 -3 9 -0.1045 -0.0117
-13 -2 1 0.1525 0.0016
-13 -2 2 0.1421 -0.0111
-13 -2 3 0.1148 -0.0218
-13 -2 4 0.0980 -0.0246
-13 -2 5 0.0838 -0.0191
-13 -2 6 0.0458 -0.0099
-13 -2 7 -0.0257 -0.0019
-13 -2 8 -0.1063 0.0031
-13 -2 9 -0.1551 0.0058
-13 -1 1 -0.0307 0.0159
-13 -1 2 -0.0430 0.0005
-13 -1 3 -0.0497 -0.0148
-13 -1 4 -0.0213 -0.0209
-13 -1 5 0.0231 -0.0157
-13 -1 6 0.0394 -0.0040
-13 -1 7 0.0037 0.0077
-13 -1 8 -0.0629 0.0158
-13 0 1 -0.0114 0.0256
-13 0 2 -0.0503 0.0082
-13 0 3 -0.0582 -0.0110
-13 0 4 -0.0044 -0.0207
-13 0 5 0.0804 -0.0172
-13 0 6 0.1338 -0.0051
-13 0 7 0.1169 0.0077
-13 0 8 0.0462 0.0162
-13 1 1 0.1765 0.0265
-13 1 2 0.0826 0.0092
-13 1 3 0.0378 -0.0117
-13 1 4 0.0758 -0.0234
-13 1 5 0.1591 -0.0209
-13 1 6 0.2133 -0.0089
-13 1 7 0.1885 0.0038
-13 1 8 0.0978 0.0109
-13 2 1 0.3062 0.0215
-13 2 2 0.1632 0.0057
-13 2 3 0.0750 -0.0148
-13 2 4 0.0788 -0.0268
-13 2 5 0.1378 -0.0242
-13 2 6 0.1754 -0.0115
-13 2 7 0.1385 0.0016
-13 3 1 0.2502 0.0159
-13 3 2 0.0999 0.0017
-13 3 3 -0.0011 -0.0182
-13 3 4 -0.0144 -0.0304
-13 3 5 0.0293 -0.0279
-12 -14 1 -0.0859 -0.0244
-12 -13 1 0.0904 -0.0501
-12 -13 2 0.1151 -0.0661
-12 -12 1 0.2938 -0.0582
-12 -12 2 0.2484 -0.0751
-12 -12 3 0.1095 -0.0852
-12 -12 4 -0.0673 -0.0807
-12 -11 1 0.2653 -0.0376
-12 -11 2 0.2164 -0.0500
-12 -11 3 0.0807 -0.0556
-12 -11 4 -0.0834 -0.0474
-12 -11 5 -0.2065 -0.0236
-12 -10 1 0.0465 -0.0075
-12 -10 2 0.0401 -0.0126
-12 -10 3 -0.0271 -0.0129
-12 -10 4 -0.1058 -0.0038
-12 -10 5 -0.1414 0.0148
-12 -10 6 -0.1023 0.0361
-12 -9 1 -0.0722 0.0064
-12 -9 2 -0.0656 0.0067
-12 -9 3 -0.0896 0.0096
-12 -9 4 -0.1049 0.0171
-12 -9 5 -0.0740 0.0283
-12 -9 6 0.0173 0.0373
-12 -9 7 0.1490 0.0353
-12 -8 1 0.0277 0.0008
-12 -8 2 -0.0097 0.0022
-12 -8 3 -0.0593 0.0056
-12 -8 4 -0.0854 0.0115
-12 -8 5 -0.0602 0.0183
-12 -8 6 0.0205 0.0213
-12 -8 7 0.1324 0.0144
-12 -8 8 0.2316 -0.0047
-12 -7 1 0.1445 -0.0076
-12 -7 2 0.0556 -0.0075
-12 -7 3 -0.0401 -0.0049
-12 -7 4 -0.1065 0.0006
-12 -7 5 -0.1198 0.0075
-12 -7 6 -0.0798 0.0121
-12 -7 7 -0.0087 0.0101
-12 -7 8 0.0586 -0.0001
-12 -7 9 0.0893 -0.0143
-12 -6 1 0.0937 -0.0075
-12 -6 2 -0.0001 -0.0085
-12 -6 3 -0.0981 -0.0064
-12 -6 4 -0.1669 -0.0006
-12 -6 5 -0.1887 0.0079
-12 -6 6 -0.1674 0.0162
-12 -6 7 -0.1219 0.0211
-12 -6 8 -0.0754 0.0213
-12 -6 9 -0.0471 0.0191
-12 -5 1 -0.0085 -0.0032
-12 -5 2 -0.0659 -0.0047
-12 -5 3 -0.1227 -0.0032
-12 -5 4 -0.1531 0.0019
-12 -5 5 -0.1498 0.0099
-12 -5 6 -0.1247 0.0183
-12 -5 7 -0.0950 0.0249
-12 -5 8 -0.0710 0.0291
-12 -5 9 -0.0550 0.0319
-12 -5 10 -0.0470 0.0353
-12 -4 1 0.0510 -0.0025
-12 -4 2 0.0287 -0.0051
-12 -4 3 0.0101 -0.0053
-12 -4 4 0.0131 -0.0021
-12 -4 5 0.0330 0.0032
-12 -4 6 0.0482 0.0082
-12 -4 7 0.0419 0.0113
-12 -4 8 0.0175 0.0127
-12 -4 9 -0.0073 0.0139
-12 -4 10 -0.0180 0.0160
-12 -3 1 0.2246 -0.0041
-12 -3 2 0.2190 -0.0091
-12 -3 3 0.2156 -0.0118
-12 -3 4 0.2283 -0.0109
-12 -3 5 0.2427 -0.0077
-12 -3 6 0.2282 -0.0052
-12 -3 7 0.1675 -0.0053
-12 -3 8 0.0765 -0.0074
-12 -3 9 -0.0066 -0.0090
-12 -3 10 -0.0506 -0.0089
-12 -2 1 0.2549 -0.0015
-12 -2 2 0.2654 -0.0092
-12 -2 3 0.2784 -0.0154
-12 -2 4 0.3068 -0.0166
-12 -2 5 0.3287 -0.0135
-12 -2 6 0.3033 -0.0098
-12 -2 7 0.2100 -0.0085
-12 -2 8 0.0729 -0.0095
-12 -2 9 -0.0529 -0.0106
-12 -2 10 -0.1205 -0.0103
-12 -1 1 0.0542 0.0072
-12 -1 2 0.0902 -0.0029
-12 -1 3 0.1379 -0.0131
-12 -1 4 0.2108 -0.0172
-12 -1 5 0.2787 -0.0138
-12 -1 6 0.2879 -0.0068
-12 -1 7 0.2092 -0.0007
-12 -1 8 0.0686 0.0029
-12 -1 9 -0.0675 0.0054
-12 -1 10 -0.1396 0.0080
-12 0 1 -0.1555 0.0169
-12 0 2 -0.1087 0.0056
-12 0 3 -0.0336 -0.0087
-12 0 4 0.0853 -0.0168
-12 0 5 0.2096 -0.0146
-12 0 6 0.2715 -0.0055
-12 0 7 0.2298 0.0047
-12 0 8 0.1071 0.0125
-12 0 9 -0.0237 0.0180
-12 0 10 -0.0939 0.0222
-12 1 1 -0.1356 0.0223
-12 1 2 -0.1197 0.0116
-12 1 3 -0.0624 -0.0056
-12 1 4 0.0573 -0.0175
-12 1 5 0.1976 -0.0178
-12 1 6 0.2807 -0.0088
-12 1 7 0.2549 0.0029
-12 1 8 0.1380 0.0120
-12 1 9 0.0049 0.0176
-12 1 10 -0.0690 0.0209
-12 2 1 0.0738 0.0226
-12 2 2 0.0270 0.0140
-12 2 3 0.0222 -0.0039
-12 2 4 0.0902 -0.0183
-12 2 5 0.1933 -0.0210
-12 2 6 0.2529 -0.0130
-12 2 7 0.2127 -0.0014
-12 2 8 0.0862 0.0071
-12 2 9 -0.0534 0.0107
-12 2 10 -0.1295 0.0114
-12 3 1 0.2405 0.0201
-12 3 2 0.1416 0.0142
-12 3 3 0.0735 -0.0034
-12 3 4 0.0771 -0.0197
-12 3 5 0.1258 -0.0243
-12 3 6 0.1491 -0.0172
-12 3 7 0.0934 -0.0056
-12 3 8 -0.0319 0.0024
-12 3 9 -0.1603 0.0044
-12 4 1 0.2352 0.0165
-12 4 2 0.1262 0.0126
-12 4 3 0.0329 -0.0048
-12 4 4 0.0016 -0.0228
-12 4 5 0.0186 -0.0296
-12 4 6 0.0273 -0.0234
-12 4 7 -0.0189 -0.0116
-12 4 8 -0.1144 -0.0028
-12 5 1 0.1324 0.0113
-12 5 2 0.0474 0.0096
-12 5 3 -0.0329 -0.0069
-12 5 4 -0.0638 -0.0257
-12 5 5 -0.0492 -0.0342
-12 5 6 -0.0310 -0.0292
-11 -14 1 -0.2167 -0.0060
-11 -14 2 -0.0561 -0.0180
-11 -13 1 -0.2033 -0.0135
-11 -13 2 -0.0468 -0.0283
-11 -13 3 0.0248 -0.0455
-11 -13 4 0.0097 -0.0555
-11 -12 1 0.1086 -0.0293
-11 -12 2 0.1938 -0.0482
-11 -12 3 0.1604 -0.0672
-11 -12 4 0.0278 -0.0754
-11 -12 5 -0.1391 -0.0643
-11 -11 1 0.3896 -0.0323
-11 -11 2 0.4174 -0.0520
-11 -11 3 0.3099 -0.0695
-11 -11 4 0.1020 -0.0735
-11 -11 5 -0.1270 -0.0562
-11 -11 6 -0.2907 -0.0208
-11 -10 1 0.3103 -0.0168
-11 -10 2 0.3453 -0.0314
-11 -10 3 0.2617 -0.0433
-11 -10 4 0.0948 -0.0431
-11 -10 5 -0.0823 -0.0247
-11 -10 6 -0.1939 0.0078
-11 -10 7 -0.1991 0.0399
-11 -9 1 -0.0050 0.0009
-11 -9 2 0.0624 -0.0055
-11 -9 3 0.0526 -0.0105
-11 -9 4 -0.0085 -0.0080
-11 -9 5 -0.0684 0.0058
-11 -9 6 -0.0763 0.0266
-11 -9 7 -0.0110 0.0423
-11 -9 8 0.1053 0.0406
-11 -8 1 -0.1642 0.0051
-11 -8 2 -0.1067 0.0046
-11 -8 3 -0.0875 0.0041
-11 -8 4 -0.0876 0.0066
-11 -8 5 -0.0740 0.0136
-11 -8 6 -0.0198 0.0217
-11 -8 7 0.0784 0.0222
-11 -8 8 0.1939 0.0075
-11 -8 9 0.2810 -0.0219
-11 -7 1 -0.0452 -0.0008
-11 -7 2 -0.0475 -0.0004
-11 -7 3 -0.0689 0.0001
-11 -7 4 -0.0889 0.0015
-11 -7 5 -0.0837 0.0043
-11 -7 6 -0.0409 0.0060
-11 -7 7 0.0331 0.0011
-11 -7 8 0.1137 -0.0143
-11 -7 9 0.1666 -0.0382
-11 -7 10 0.1647 -0.0610
-11 -6 1 0.0994 -0.0043
-11 -6 2 0.0376 -0.0052
-11 -6 3 -0.0359 -0.0055
-11 -6 4 -0.0956 -0.0046
-11 -6 5 -0.1212 -0.0022
-11 -6 6 -0.1084 0.0001
-11 -6 7 -0.0679 -0.0007
-11 -6 8 -0.0195 -0.0067
-11 -6 9 0.0144 -0.0164
-11 -6 10 0.0166 -0.0237
-11 -5 1 0.0690 -0.0013
-11 -5 2 -0.0141 -0.0029
-11 -5 3 -0.0986 -0.0035
-11 -5 4 -0.1565 -0.0021
-11 -5 5 -0.1734 0.0013
-11 -5 6 -0.1547 0.0062
-11 -5 7 -0.1168 0.0108
-11 -5 8 -0.0750 0.0144
-11 -5 9 -0.0396 0.0175
-11 -5 10 -0.0186 0.0223
-11 -5 11 -0.0173 0.0306
-11 -4 1 -0.0079 0.0019
-11 -4 2 -0.0850 0.0007
-11 -4 3 -0.1480 0.0005
-11 -4 4 -0.1709 0.0024
-11 -4 5 -0.1495 0.0060
-11 -4 6 -0.1037 0.0107
-11 -4 7 -0.0583 0.0155
-11 -4 8 -0.0247 0.0209
-11 -4 9 0.0009 0.0277
-11 -4 10 0.0245 0.0361
-11 -4 11 0.0432 0.0449
-11 -3 1 0.0676 0.0013
-11 -3 2 -0.0011 -0.0001
-11 -3 3 -0.0440 -0.0004
-11 -3 4 -0.0381 0.0015
-11 -3 5 0.0084 0.0045
-11 -3 6 0.0599 0.0067
-11 -3 7 0.0820 0.0074
-11 -3 8 0.0687 0.0080
-11 -3 9 0.0423 0.0105
-11 -3 10 0.0289 0.0155
-11 -3 11 0.0353 0.0209
-11 -3 12 0.0478 0.0229
-11 -2 1 0.2188 0.0004
-11 -2 2 0.1619 -0.0028
-11 -2 3 0.1361 -0.0046
-11 -2 4 0.1620 -0.0033
-11 -2 5 0.2195 -0.0004
-11 -2 6 0.2573 0.0010
-11 -2 7 0.2326 -0.0011
-11 -2 8 0.1454 -0.0050
-11 -2 9 0.0386 -0.0076
-11 -2 10 -0.0378 -0.0070
-11 -2 11 -0.0625 -0.0050
-11 -2 12 -0.0503 -0.0053
-11 -1 1 0.1990 0.0037
-11 -1 2 0.1722 -0.0021
-11 -1 3 0.1836 -0.0070
-11 -1 4 0.2509 -0.0074
-11 -1 5 0.3423 -0.0037
-11 -1 6 0.3906 -0.0002
-11 -1 7 0.3431 -0.0003
-11 -1 8 0.2045 -0.0036
-11 -1 9 0.0353 -0.0067
-11 -1 10 -0.0921 -0.0072
-11 -1 11 -0.1419 -0.0061
-11 -1 12 -0.1293 -0.0069
-11 0 1 -0.0362 0.0097
-11 0 2 -0.0218 0.0023
-11 0 3 0.0457 -0.0064
-11 0 4 0.1803 -0.0098
-11 0 5 0.3380 -0.0064
-11 0 6 0.4360 0.0002
-11 0 7 0.4105 0.0048
-11 0 8 0.2670 0.0061
-11 0 9 0.0785 0.0063
-11 0 10 -0.0661 0.0079
-11 0 11 -0.1209 0.0101
-11 0 12 -0.1022 0.0096
-11 1 1 -0.2522 0.0139
-11 1 2 -0.2160 0.0072
-11 1 3 -0.1118 -0.0041
-11 1 4 0.0726 -0.0114
-11 1 5 0.2848 -0.0101
-11 1 6 0.4301 -0.0025
-11 1 7 0.4360 0.0058
-11 1 8 0.3074 0.0112
-11 1 9 0.1244 0.0146
-11 1 10 -0.0147 0.0183
-11 1 11 -0.0588 0.0217
-11 1 12 -0.0276 0.0218
-11 2 1 -0.2427 0.0144
-11 2 2 -0.2235 0.0113
-11 2 3 -0.1347 -0.0004
-11 2 4 0.0390 -0.0111
-11 2 5 0.2448 -0.0131
-11 2 6 0.3862 -0.0068
-11 2 7 0.3893 0.0022
-11 2 8 0.2594 0.0091
-11 2 9 0.0794 0.0133
-11 2 10 -0.0496 0.0169
-11 2 11 -0.0767 0.0202
-11 2 12 -0.0263 0.0208
-11 3 1 -0.0660 0.0137
-11 3 2 -0.0861 0.0152
-11 3 3 -0.0538 0.0046
-11 3 4 0.0541 -0.0084
-11 3 5 0.1951 -0.0143
-11 3 6 0.2827 -0.0107
-11 3 7 0.2505 -0.0026
-11 3 8 0.1057 0.0041
-11 3 9 -0.0715 0.0074
-11 3 10 -0.1850 0.0094
-11 3 11 -0.1899 0.0116
-11 4 1 0.0791 0.0127
-11 4 2 0.0319 0.0182
-11 4 3 0.0086 0.0088
-11 4 4 0.0417 -0.0067
-11 4 5 0.1061 -0.0166
-11 4 6 0.1349 -0.0161
-11 4 7 0.0745 -0.0091
-11 4 8 -0.0667 -0.0025
-11 4 9 -0.2186 0.0005
-11 4 10 -0.2995 0.0013
-11 4 11 -0.2758 0.0024
-11 5 1 0.1063 0.0085
-11 5 2 0.0606 0.0170
-11 5 3 0.0117 0.0086
-11 5 4 -0.0010 -0.0090
-11 5 5 0.0155 -0.0224
-11 5 6 0.0163 -0.0247
-11 5 7 -0.0379 -0.0183
-11 5 8 -0.1406 -0.0105
-11 5 9 -0.2385 -0.0063
-11 5 10 -0.2718 -0.0053
-11 6 1 0.0824 -0.0018
-11 6 2 0.0529 0.0103
-11 6 3 0.0042 0.0041
-11 6 4 -0.0232 -0.0133
-11 6 5 -0.0232 -0.0283
-11 6 6 -0.0218 -0.0319
-11 6 7 -0.0462 -0.0252
-11 6 8 -0.0940 -0.0155
-11 7 2 0.0562 0.0021
-11 7 3 0.0131 0.0001
-11 7 4 -0.0164 -0.0142
-11 7 5 -0.0203 -0.0278
-10 -15 1 -0.0365 -0.0282
-10 -14 1 -0.2053 -0.0176
-10 -14 2 -0.0610 -0.0313
-10 -14 3 0.0645 -0.0479
-10 -13 1 -0.4401 -0.0053
-10 -13 2 -0.2374 -0.0161
-10 -13 3 -0.0698 -0.0336
-10 -13 4 0.0192 -0.0491
-10 -13 5 0.0303 -0.0529
-10 -12 1 -0.3539 -0.0037
-10 -12 2 -0.1606 -0.0150
-10 -12 3 -0.0388 -0.0340
-10 -12 4 -0.0226 -0.0506
-10 -12 5 -0.0910 -0.0532
-10 -12 6 -0.1846 -0.0377
-10 -11 1 0.0519 -0.0077
-10 -11 2 0.1913 -0.0222
-10 -11 3 0.2182 -0.0429
-10 -11 4 0.1150 -0.0582
-10 -11 5 -0.0737 -0.0556
-10 -11 6 -0.2643 -0.0315
-10 -11 7 -0.3769 0.0045
-10 -10 1 0.3352 -0.0053
-10 -10 2 0.4421 -0.0209
-10 -10 3 0.4221 -0.0405
-10 -10 4 0.2687 -0.0524
-10 -10 5 0.0358 -0.0449
-10 -10 6 -0.1864 -0.0155
-10 -10 7 -0.3157 0.0243
-10 -10 8 -0.3177 0.0557
-10 -9 1 0.1936 0.0034
-10 -9 2 0.3083 -0.0078
-10 -9 3 0.3231 -0.0218
-10 -9 4 0.2318 -0.0292
-10 -9 5 0.0778 -0.0204
-10 -9 6 -0.0661 0.0054
-10 -9 7 -0.1353 0.0373
-10 -9 8 -0.1062 0.0578
-10 -9 9 -0.0083 0.0549
-10 -8 1 -0.1435 0.0076
-10 -8 2 -0.0244 0.0038
-10 -8 3 0.0425 -0.0026
-10 -8 4 0.0475 -0.0060
-10 -8 5 0.0146 -0.0001
-10 -8 6 -0.0137 0.0153
-10 -8 7 -0.0001 0.0310
-10 -8 8 0.0641 0.0340
-10 -8 9 0.1524 0.0167
-10 -8 10 0.2181 -0.0156
-10 -7 1 -0.2546 0.0030
-10 -7 2 -0.1736 0.0042
-10 -7 3 -0.1098 0.0031
-10 -7 4 -0.0706 0.0018
-10 -7 5 -0.0460 0.0035
-10 -7 6 -0.0187 0.0081
-10 -7 7 0.0247 0.0094
-10 -7 8 0.0829 -0.0006
-10 -7 9 0.1369 -0.0249
-10 -7 10 0.1590 -0.0566
-10 -7 11 0.1319 -0.0813
-10 -6 1 -0.0773 -0.0028
-10 -6 2 -0.0620 -0.0012
-10 -6 3 -0.0530 -0.0011
-10 -6 4 -0.0479 -0.0020
-10 -6 5 -0.0400 -0.0028
-10 -6 6 -0.0254 -0.0036
-10 -6 7 -0.0052 -0.0075
-10 -6 8 0.0155 -0.0187
-10 -6 9 0.0272 -0.0374
-10 -6 10 0.0184 -0.0578
-10 -6 11 -0.0167 -0.0694
-10 -5 1 0.1004 -0.0022
-10 -5 2 0.0617 -0.0025
-10 -5 3 0.0188 -0.0032
-10 -5 4 -0.0142 -0.0044
-10 -5 5 -0.0284 -0.0054
-10 -5 6 -0.0274 -0.0061
-10 -5 7 -0.0216 -0.0076
-10 -5 8 -0.0184 -0.0112
-10 -5 9 -0.0196 -0.0165
-10 -5 10 -0.0264 -0.0203
-10 -5 11 -0.0414 -0.0178
-10 -5 12 -0.0638 -0.0066
-10 -4 1 0.1045 0.0023
-10 -4 2 0.0370 0.0012
-10 -4 3 -0.0265 -0.0001
-10 -4 4 -0.0624 -0.0010
-10 -4 5 -0.0610 -0.0012
-10 -4 6 -0.0348 -0.0006
-10 -4 7 -0.0050 0.0010
-10 -4 8 0.0171 0.0040
-10 -4 9 0.0344 0.0094
-10 -4 10 0.0534 0.0180
-10 -4 11 0.0719 0.0297
-10 -4 12 0.0795 0.0421
-10 -3 1 0.0724 0.0045
-10 -3 2 -0.0136 0.0037
-10 -3 3 -0.0833 0.0030
-10 -3 4 -0.1060 0.0031
-10 -3 5 -0.0748 0.0037
-10 -3 6 -0.0142 0.0040
-10 -3 7 0.0414 0.0046
-10 -3 8 0.0753 0.0071
-10 -3 9 0.0967 0.0138
-10 -3 10 0.1230 0.0252
-10 -3 11 0.1573 0.0384
-10 -3 12 0.1833 0.0484
-10 -3 13 0.1810 0.0505
-10 -2 1 0.1561 0.0037
-10 -2 2 0.0535 0.0028
-10 -2 3 -0.0246 0.0024
-10 -2 4 -0.0417 0.0037
-10 -2 5 0.0040 0.0054
-10 -2 6 0.0739 0.0053
-10 -2 7 0.1192 0.0027
-10 -2 8 0.1192 -0.0000
-10 -2 9 0.0933 0.0010
-10 -2 10 0.0772 0.0075
-10 -2 11 0.0882 0.0168
-10 -2 12 0.1122 0.0228
-10 -2 13 0.1206 0.0209
-10 -1 1 0.2553 0.0044
-10 -1 2 0.1489 0.0017
-10 -1 3 0.0740 -0.0001
-10 -1 4 0.0709 0.0015
-10 -1 5 0.1335 0.0051
-10 -1 6 0.2067 0.0067
-10 -1 7 0.2263 0.0036
-10 -1 8 0.1683 -0.0025
-10 -1 9 0.0649 -0.0070
-10 -1 10 -0.0253 -0.0063
-10 -1 11 -0.0648 -0.0021
-10 -1 12 -0.0592 0.0004
-10 -1 13 -0.0413 -0.0035
-10 0 1 0.1795 0.0079
-10 0 2 0.0903 0.0027
-10 0 3 0.0489 -0.0021
-10 0 4 0.0955 -0.0020
-10 0 5 0.2117 0.0031
-10 0 6 0.3228 0.0082
-10 0 7 0.3476 0.0088
-10 0 8 0.2582 0.0042
-10 0 9 0.0985 -0.0011
-10 0 10 -0.0515 -0.0028
-10 0 11 -0.1340 -0.0012
-10 0 12 -0.1465 -0.0009
-10 0 13 -0.1249 -0.0061
-10 1 1 -0.0532 0.0107
-10 1 2 -0.1154 0.0046
-10 1 3 -0.1039 -0.0032
-10 1 4 0.0169 -0.0060
-10 1 5 0.2137 -0.0015
-10 1 6 0.3918 0.0064
-10 1 7 0.4550 0.0117
-10 1 8 0.3719 0.0116
-10 1 9 0.1961 0.0089
-10 1 10 0.0245 0.0079
-10 1 11 -0.0717 0.0093
-10 1 12 -0.0858 0.0093
-10 1 13 -0.0606 0.0035
-10 2 1 -0.2355 0.0092
-10 2 2 -0.2790 0.0060
-10 2 3 -0.2288 -0.0023
-10 2 4 -0.0555 -0.0081
-10 2 5 0.1951 -0.0061
-10 2 6 0.4154 0.0018
-10 2 7 0.5021 0.0095
-10 2 8 0.4256 0.0127
-10 2 9 0.2491 0.0126
-10 2 10 0.0803 0.0130
-10 2 11 -0.0037 0.0152
-10 2 12 0.0005 0.0161
-10 2 13 0.0403 0.0113
-10 3 1 -0.2438 0.0053
-10 3 2 -0.2818 0.0082
-10 3 3 -0.2274 0.0025
-10 3 4 -0.0563 -0.0050
-10 3 5 0.1815 -0.0067
-10 3 6 0.3790 -0.0017
-10 3 7 0.4387 0.0053
-10 3 8 0.3403 0.0094
-10 3 9 0.1554 0.0103
-10 3 10 -0.0040 0.0111
-10 3 11 -0.0632 0.0139
-10 3 12 -0.0269 0.0165
-10 3 13 0.0406 0.0146
-10 4 1 -0.1568 0.0033
-10 4 2 -0.1912 0.0126
-10 4 3 -0.1577 0.0105
-10 4 4 -0.0338 0.0020
-10 4 5 0.1375 -0.0043
-10 4 6 0.2641 -0.0039
-10 4 7 0.2660 0.0006
-10 4 8 0.1359 0.0043
-10 4 9 -0.0514 0.0055
-10 4 10 -0.1902 0.0064
-10 4 11 -0.2165 0.0095
-10 4 12 -0.1457 0.0137
-10 4 13 -0.0495 0.0151
-10 5 1 -0.0976 0.0022
-10 5 2 -0.1193 0.0161
-10 5 3 -0.1087 0.0168
-10 5 4 -0.0422 0.0067
-10 5 5 0.0530 -0.0044
-10 5 6 0.1095 -0.0091
-10 5 7 0.0706 -0.0073
-10 5 8 -0.0609 -0.0036
-10 5 9 -0.2171 -0.0012
-10 5 10 -0.3110 0.0005
-10 5 11 -0.2978 0.0038
-10 5 12 -0.2031 0.0089
-10 6 1 -0.0740 -0.0052
-10 6 2 -0.0756 0.0124
-10 6 3 -0.0782 0.0156
-10 6 4 -0.0549 0.0047
-10 6 5 -0.0147 -0.0101
-10 6 6 0.0024 -0.0186
-10 6 7 -0.0382 -0.0183
-10 6 8 -0.1295 -0.0132
-10 6 9 -0.2205 -0.0082
-10 6 10 -0.2526 -0.0047
-10 6 11 -0.2041 -0.0011
-10 7 1 -0.0237 -0.0227
-10 7 2 -0.0112 -0.0003
-10 7 3 -0.0208 0.0073
-10 7 4 -0.0247 -0.0017
-10 7 5 -0.0168 -0.0169
-10 7 6 -0.0144 -0.0264
-10 7 7 -0.0352 -0.0257
-10 7 8 -0.0728 -0.0183
-10 7 9 -0.0969 -0.0102
-10 7 10 -0.0773 -0.0049
-10 8 1 0.0549 -0.0402
-10 8 2 0.0662 -0.0133
-10 8 3 0.0488 -0.0007
-10 8 4 0.0277 -0.0055
-10 8 5 0.0157 -0.0182
-10 8 6 0.0095 -0.0264
-10 8 7 0.0023 -0.0244
-9 -15 1 -0.1769 -0.0169
-9 -15 2 -0.1012 -0.0307
-9 -14 1 -0.1753 -0.0247
-9 -14 2 -0.0798 -0.0399
-9 -14 3 0.0178 -0.0585
-9 -14 4 0.0825 -0.0729
-9 -13 1 -0.4320 -0.0175
-9 -13 2 -0.2857 -0.0285
-9 -13 3 -0.1237 -0.0464
-9 -13 4 0.0006 -0.0644
-9 -13 5 0.0625 -0.0729
-9 -13 6 0.0680 -0.0675
-9 -12 1 -0.6446 -0.0059
-9 -12 2 -0.4646 -0.0112
-9 -12 3 -0.2761 -0.0268
-9 -12 4 -0.1414 -0.0460
-9 -12 5 -0.0852 -0.0576
-9 -12 6 -0.0896 -0.0545
-9 -12 7 -0.1140 -0.0393
-9 -11 1 -0.4801 0.0012
-9 -11 2 -0.3067 -0.0024
-9 -11 3 -0.1605 -0.0173
-9 -11 4 -0.1003 -0.0363
-9 -11 5 -0.1365 -0.0464
-9 -11 6 -0.2283 -0.0395
-9 -11 7 -0.3107 -0.0184
-9 -11 8 -0.3318 0.0048
-9 -10 1 -0.0699 0.0056
-9 -10 2 0.0831 -0.0003
-9 -10 3 0.1699 -0.0163
-9 -10 4 0.1406 -0.0341
-9 -10 5 0.0009 -0.0402
-9 -10 6 -0.1891 -0.0263
-9 -10 7 -0.3456 0.0033
-9 -10 8 -0.4051 0.0336
-9 -10 9 -0.3550 0.0498
-9 -9 1 0.1367 0.0110
-9 -9 2 0.2832 0.0036
-9 -9 3 0.3565 -0.0119
-9 -9 4 0.3133 -0.0272
-9 -9 5 0.1630 -0.0296
-9 -9 6 -0.0341 -0.0118
-9 -9 7 -0.1963 0.0207
-9 -9 8 -0.2619 0.0517
-9 -9 9 -0.2201 0.0653
-9 -9 10 -0.1117 0.0567
-9 -8 1 -0.0299 0.0135
-9 -8 2 0.1105 0.0090
-9 -8 3 0.2086 -0.0019
-9 -8 4 0.2256 -0.0129
-9 -8 5 0.1619 -0.0137
-9 -8 6 0.0570 0.0013
-9 -8 7 -0.0310 0.0266
-9 -8 8 -0.0569 0.0477
-9 -8 9 -0.0139 0.0509
-9 -8 10 0.0649 0.0335
-9 -8 11 0.1301 0.0056
-9 -7 1 -0.2625 0.0082
-9 -7 2 -0.1570 0.0091
-9 -7 3 -0.0537 0.0050
-9 -7 4 0.0155 -0.0009
-9 -7 5 0.0411 -0.0019
-9 -7 6 0.0354 0.0056
-9 -7 7 0.0243 0.0174
-9 -7 8 0.0312 0.0230
-9 -7 9 0.0607 0.0131
-9 -7 10 0.0954 -0.0119
-9 -7 11 0.1089 -0.0405
-9 -7 12 0.0881 -0.0578
-9 -6 1 -0.2261 -0.0009
-9 -6 2 -0.1814 0.0031
-9 -6 3 -0.1201 0.0039
-9 -6 4 -0.0603 0.0019
-9 -6 5 -0.0141 0.0002
-9 -6 6 0.0121 0.0010
-9 -6 7 0.0183 0.0016
-9 -6 8 0.0108 -0.0041
-9 -6 9 -0.0040 -0.0206
-9 -6 10 -0.0254 -0.0454
-9 -6 11 -0.0564 -0.0681
-9 -6 12 -0.0944 -0.0768
-9 -5 1 0.0227 -0.0051
-9 -5 2 0.0123 -0.0018
-9 -5 3 0.0161 0.0000
-9 -5 4 0.0318 -0.0004
-9 -5 5 0.0535 -0.0021
-9 -5 6 0.0665 -0.0041
-9 -5 7 0.0557 -0.0074
-9 -5 8 0.0168 -0.0146
-9 -5 9 -0.0404 -0.0271
-9 -5 10 -0.1008 -0.0421
-9 -5 11 -0.1529 -0.0526
-9 -5 12 -0.1890 -0.0518
-9 -5 13 -0.2010 -0.0381
-9 -4 1 0.2012 -0.0022
-9 -4 2 0.1608 -0.0013
-9 -4 3 0.1288 -0.0007
-9 -4 4 0.1171 -0.0011
-9 -4 5 0.1280 -0.0024
-9 -4 6 0.1446 -0.0042
-9 -4 7 0.1418 -0.0064
-9 -4 8 0.1079 -0.0092
-9 -4 9 0.0535 -0.0119
-9 -4 10 0.0009 -0.0127
-9 -4 11 -0.0343 -0.0094
-9 -4 12 -0.0504 -0.0007
-9 -4 13 -0.0531 0.0113
-9 -3 1 0.2155 0.0021
-9 -3 2 0.1604 0.0017
-9 -3 3 0.1130 0.0012
-9 -3 4 0.0966 0.0007
-9 -3 5 0.1205 -0.0002
-9 -3 6 0.1665 -0.0018
-9 -3 7 0.2014 -0.0035
-9 -3 8 0.2058 -0.0036
-9 -3 9 0.1892 0.0002
-9 -3 10 0.1763 0.0091
-9 -3 11 0.1822 0.0220
-9 -3 12 0.1984 0.0352
-9 -3 13 0.2031 0.0437
-9 -3 14 0.1817 0.0439
-9 -2 1 0.2096 0.0034
-9 -2 2 0.1393 0.0032
-9 -2 3 0.0740 0.0026
-9 -2 4 0.0476 0.0026
-9 -2 5 0.0764 0.0024
-9 -2 6 0.1397 0.0006
-9 -2 7 0.1967 -0.0030
-9 -2 8 0.2209 -0.0057
-9 -2 9 0.2212 -0.0032
-9 -2 10 0.2277 0.0067
-9 -2 11 0.2582 0.0217
-9 -2 12 0.2987 0.0355
-9 -2 13 0.3157 0.0412
-9 -2 14 0.2851 0.0357
-9 -1 1 0.2694 0.0039
-9 -1 2 0.1813 0.0034
-9 -1 3 0.0905 0.0026
-9 -1 4 0.0431 0.0035
-9 -1 5 0.0606 0.0051
-9 -1 6 0.1182 0.0044
-9 -1 7 0.1648 -0.0006
-9 -1 8 0.1668 -0.0075
-9 -1 9 0.1352 -0.0106
-9 -1 10 0.1103 -0.0059
-9 -1 11 0.1210 0.0055
-9 -1 12 0.1583 0.0166
-9 -1 13 0.1848 0.0200
-9 -1 14 0.1701 0.0130
-9 0 1 0.2911 0.0071
-9 0 2 0.1860 0.0045
-9 0 3 0.0784 0.0018
-9 0 4 0.0262 0.0026
-9 0 5 0.0515 0.0066
-9 0 6 0.1189 0.0095
-9 0 7 0.1619 0.0069
-9 0 8 0.1366 -0.0006
-9 0 9 0.0558 -0.0076
-9 0 10 -0.0269 -0.0085
-9 0 11 -0.0653 -0.0026
-9 0 12 -0.0560 0.0043
-9 0 13 -0.0329 0.0049
-9 0 14 -0.0292 -0.0031
-9 0 15 -0.0476 -0.0150
-9 1 1 0.1774 0.0113
-9 1 2 0.0549 0.0060
-9 1 3 -0.0492 -0.0001
-9 1 4 -0.0695 -0.0012
-9 1 5 0.0091 0.0040
-9 1 6 0.1327 0.0113
-9 1 7 0.2138 0.0142
-9 1 8 0.1954 0.0103
-9 1 9 0.0911 0.0035
-9 1 10 -0.0329 -0.0001
-9 1 11 -0.1126 0.0015
-9 1 12 -0.1319 0.0043
-9 1 13 -0.1199 0.0019
-9 1 14 -0.1121 -0.0081
-9 1 15 -0.1151 -0.0208
-9 2 1 0.0030 0.0114
-9 2 2 -0.1348 0.0059
-9 2 3 -0.2196 -0.0024
-9 2 4 -0.1852 -0.0063
-9 2 5 -0.0303 -0.0020
-9 2 6 0.1689 0.0075
-9 2 7 0.3053 0.0150
-9 2 8 0.3125 0.0156
-9 2 9 0.2075 0.0112
-9 2 10 0.0694 0.0071
-9 2 11 -0.0246 0.0066
-9 2 12 -0.0507 0.0070
-9 2 13 -0.0397 0.0027
-9 2 14 -0.0335 -0.0086
-9 2 15 -0.0445 -0.0228
-9 3 1 -0.0995 0.0054
-9 3 2 -0.2384 0.0043
-9 3 3 -0.2968 -0.0022
-9 3 4 -0.2157 -0.0074
-9 3 5 -0.0101 -0.0055
-9 3 6 0.2269 0.0028
-9 3 7 0.3791 0.0113
-9 3 8 0.3828 0.0142
-9 3 9 0.2660 0.0115
-9 3 10 0.1209 0.0078
-9 3 11 0.0331 0.0069
-9 3 12 0.0255 0.0074
-9 3 13 0.0583 0.0044
-9 3 14 0.0767 -0.0052
-9 4 1 -0.1222 -0.0019
-9 4 2 -0.2368 0.0044
-9 4 3 -0.2665 0.0034
-9 4 4 -0.1649 -0.0010
-9 4 5 0.0405 -0.0022
-9 4 6 0.2520 0.0021
-9 4 7 0.3605 0.0082
-9 4 8 0.3179 0.0107
-9 4 9 0.1689 0.0087
-9 4 10 0.0161 0.0058
-9 4 11 -0.0542 0.0060
-9 4 12 -0.0272 0.0090
-9 4 13 0.0440 0.0101
-9 4 14 0.0907 0.0053
-9 5 1 -0.1510 -0.0052
-9 5 2 -0.2222 0.0078
-9 5 3 -0.2259 0.0127
-9 5 4 -0.1291 0.0094
-9 5 5 0.0368 0.0045
-9 5 6 0.1844 0.0031
-9 5 7 0.2254 0.0049
-9 5 8 0.1335 0.0061
-9 5 9 -0.0336 0.0052
-9 5 10 -0.1742 0.0041
-9 5 11 -0.2127 0.0064
-9 5 12 -0.1478 0.0122
-9 5 13 -0.0434 0.0175
-9 5 14 0.0262 0.0179
-9 6 1 -0.2058 -0.0073
-9 6 2 -0.2332 0.0095
-9 6 3 -0.2215 0.0185
-9 6 4 -0.1469 0.0156
-9 6 5 -0.0343 0.0067
-9 6 6 0.0507 -0.0004
-9 6 7 0.0474 -0.0026
-9 6 8 -0.0514 -0.0017
-9 6 9 -0.1878 -0.0001
-9 6 10 -0.2774 0.0020
-9 6 11 -0.2682 0.0065
-9 6 12 -0.1757 0.0136
-9 6 13 -0.0663 0.0203
-9 7 1 -0.2087 -0.0190
-9 7 2 -0.2063 0.0010
-9 7 3 -0.1936 0.0141
-9 7 4 -0.1508 0.0127
-9 7 5 -0.0893 0.0018
-9 7 6 -0.0477 -0.0089
-9 7 7 -0.0597 -0.0129
-9 7 8 -0.1210 -0.0104
-9 7 9 -0.1864 -0.0049
-9 7 10 -0.2014 0.0010
-9 7 11 -0.1452 0.0070
-9 7 12 -0.0484 0.0129
-9 8 1 -0.1113 -0.0435
-9 8 2 -0.0951 -0.0182
-9 8 3 -0.0909 0.0008
-9 8 4 -0.0802 0.0037
-9 8 5 -0.0611 -0.0057
-9 8 6 -0.0485 -0.0163
-9 8 7 -0.0547 -0.0197
-9 8 8 -0.0707 -0.0146
-9 8 9 -0.0688 -0.0051
-9 8 10 -0.0257 0.0038
-9 8 11 0.0519 0.0100
-9 9 1 0.0215 -0.0649
-9 9 2 0.0401 -0.0346
-9 9 3 0.0363 -0.0103
-9 9 4 0.0251 -0.0027
-9 9 5 0.0152 -0.0087
-9 9 6 0.0062 -0.0174
-9 9 7 -0.0014 -0.0194
-9 9 8 0.0027 -0.0128
-9 9 9 0.0326 -0.0017
-8 -16 1 -0.1829 0.0224
-8 -15 1 -0.2263 0.0078
-8 -15 2 -0.1461 0.0054
-8 -15 3 -0.0929 -0.0036
-8 -14 1 -0.1906 -0.0099
-8 -14 2 -0.1129 -0.0183
-8 -14 3 -0.0509 -0.0322
-8 -14 4 -0.0181 -0.0452
-8 -14 5 -0.0108 -0.0495
-8 -13 1 -0.3198 -0.0179
-8 -13 2 -0.2373 -0.0277
-8 -13 3 -0.1382 -0.0436
-8 -13 4 -0.0545 -0.0604
-8 -13 5 -0.0030 -0.0696
-8 -13 6 0.0161 -0.0664
-8 -12 1 -0.6036 -0.0141
-8 -12 2 -0.5130 -0.0189
-8 -12 3 -0.3737 -0.0322
-8 -12 4 -0.2346 -0.0504
-8 -12 5 -0.1308 -0.0643
-8 -12 6 -0.0718 -0.0670
-8 -12 7 -0.0471 -0.0591
-8 -12 8 -0.0402 -0.0478
-8 -11 1 -0.7320 -0.0060
-8 -11 2 -0.6387 -0.0041
-8 -11 3 -0.4943 -0.0129
-8 -11 4 -0.3568 -0.0299
-8 -11 5 -0.2670 -0.0454
-8 -11 6 -0.2303 -0.0505
-8 -11 7 -0.2225 -0.0442
-8 -11 8 -0.2113 -0.0336
-8 -11 9 -0.1774 -0.0270
-8 -10 1 -0.5290 0.0015
-8 -10 2 -0.4282 0.0059
-8 -10 3 -0.3052 -0.0008
-8 -10 4 -0.2203 -0.0162
-8 -10 5 -0.2090 -0.0299
-8 -10 6 -0.2620 -0.0320
-8 -10 7 -0.3336 -0.0212
-8 -10 8 -0.3702 -0.0057
-8 -10 9 -0.3420 0.0037
-8 -10 10 -0.2561 0.0025
-8 -9 1 -0.2234 0.0087
-8 -9 2 -0.1011 0.0110
-8 -9 3 0.0144 0.0034
-8 -9 4 0.0634 -0.0110
-8 -9 5 0.0170 -0.0217
-8 -9 6 -0.1056 -0.0185
-8 -9 7 -0.2447 -0.0008
-8 -9 8 -0.3332 0.0215
-8 -9 9 -0.3330 0.0351
-8 -9 10 -0.2522 0.0337
-8 -9 11 -0.1339 0.0216
-8 -8 1 -0.1353 0.0138
-8 -8 2 -0.0001 0.0141
-8 -8 3 0.1285 0.0061
-8 -8 4 0.1944 -0.0070
-8 -8 5 0.1696 -0.0151
-8 -8 6 0.0687 -0.0091
-8 -8 7 -0.0558 0.0110
-8 -8 8 -0.1420 0.0346
-8 -8 9 -0.1520 0.0480
-8 -8 10 -0.0916 0.0443
-8 -8 11 -0.0010 0.0282
-8 -8 12 0.0738 0.0112
-8 -7 1 -0.2383 0.0122
-8 -7 2 -0.1329 0.0137
-8 -7 3 -0.0108 0.0085
-8 -7 4 0.0824 -0.0012
-8 -7 5 0.1183 -0.0076
-8 -7 6 0.0965 -0.0033
-8 -7 7 0.0438 0.0116
-8 -7 8 0.0002 0.0279
-8 -7 9 -0.0055 0.0339
-8 -7 10 0.0273 0.0245
-8 -7 11 0.0737 0.0051
-8 -7 12 0.1040 -0.0120
-8 -6 1 -0.2325 0.0037
-8 -6 2 -0.1978 0.0081
-8 -6 3 -0.1297 0.0078
-8 -6 4 -0.0546 0.0029
-8 -6 5 0.0050 -0.0018
-8 -6 6 0.0342 -0.0012
-8 -6 7 0.0311 0.0047
-8 -6 8 0.0079 0.0096
-8 -6 9 -0.0175 0.0056
-8 -6 10 -0.0342 -0.0096
-8 -6 11 -0.0441 -0.0298
-8 -6 12 -0.0537 -0.0437
-8 -6 13 -0.0629 -0.0434
-8 -5 1 0.0118 -0.0045
-8 -5 2 -0.0235 0.0010
-8 -5 3 -0.0295 0.0041
-8 -5 4 -0.0106 0.0035
-8 -5 5 0.0234 0.0011
-8 -5 6 0.0510 -0.0005
-8 -5 7 0.0484 -0.0011
-8 -5 8 0.0051 -0.0040
-8 -5 9 -0.0689 -0.0131
-8 -5 10 -0.1514 -0.0285
-8 -5 11 -0.2212 -0.0446
-8 -5 12 -0.2647 -0.0529
-8 -5 13 -0.2735 -0.0484
-8 -5 14 -0.2422 -0.0328
-8 -4 1 0.3002 -0.0059
-8 -4 2 0.2310 -0.0022
-8 -4 3 0.1789 0.0011
-8 -4 4 0.1565 0.0025
-8 -4 5 0.1666 0.0022
-8 -4 6 0.1875 0.0010
-8 -4 7 0.1822 -0.0009
-8 -4 8 0.1248 -0.0048
-8 -4 9 0.0198 -0.0115
-8 -4 10 -0.1021 -0.0201
-8 -4 11 -0.2053 -0.0270
-8 -4 12 -0.2669 -0.0281
-8 -4 13 -0.2801 -0.0221
-8 -4 14 -0.2479 -0.0116
-8 -3 1 0.4194 -0.0026
-8 -3 2 0.3508 -0.0016
-8 -3 3 0.2935 -0.0001
-8 -3 4 0.2681 0.0013
-8 -3 5 0.2863 0.0022
-8 -3 6 0.3287 0.0020
-8 -3 7 0.3518 0.0007
-8 -3 8 0.3207 -0.0013
-8 -3 9 0.2359 -0.0028
-8 -3 10 0.1310 -0.0021
-8 -3 11 0.0453 0.0018
-8 -3 12 -0.0018 0.0081
-8 -3 13 -0.0154 0.0144
-8 -3 14 -0.0110 0.0174
-8 -3 15 -0.0007 0.0153
-8 -2 1 0.3975 -0.0003
-8 -2 2 0.3447 -0.0005
-8 -2 3 0.2978 -0.0005
-8 -2 4 0.2803 0.0003
-8 -2 5 0.3105 0.0012
-8 -2 6 0.3739 0.0007
-8 -2 7 0.4270 -0.0017
-8 -2 8 0.4324 -0.0046
-8 -2 9 0.3892 -0.0045
-8 -2 10 0.3315 0.0014
-8 -2 11 0.2963 0.0126
-8 -2 12 0.2921 0.0249
-8 -2 13 0.2967 0.0322
-8 -2 14 0.2798 0.0306
-8 -2 15 0.2286 0.0205
-8 -1 1 0.3737 -0.0001
-8 -1 2 0.3404 -0.0001
-8 -1 3 0.2949 -0.0005
-8 -1 4 0.2649 0.0001
-8 -1 5 0.2774 0.0012
-8 -1 6 0.3256 0.0003
-8 -1 7 0.3707 -0.0046
-8 -1 8 0.3770 -0.0114
-8 -1 9 0.3454 -0.0149
-8 -1 10 0.3123 -0.0103
-8 -1 11 0.3134 0.0025
-8 -1 12 0.3491 0.0175
-8 -1 13 0.3830 0.0265
-8 -1 14 0.3725 0.0244
-8 -1 15 0.3035 0.0129
-8 0 1 0.3621 0.0017
-8 0 2 0.3407 0.0016
-8 0 3 0.2817 0.0005
-8 0 4 0.2228 0.0011
-8 0 5 0.2018 0.0034
-8 0 6 0.2186 0.0040
-8 0 7 0.2366 -0.0007
-8 0 8 0.2190 -0.0101
-8 0 9 0.1675 -0.0181
-8 0 10 0.1213 -0.0181
-8 0 11 0.1200 -0.0084
-8 0 12 0.1641 0.0055
-8 0 13 0.2133 0.0147
-8 0 14 0.2209 0.0134
-8 0 15 0.1725 0.0035
-8 1 1 0.2844 0.0072
-8 1 2 0.2457 0.0052
-8 1 3 0.1584 0.0015
-8 1 4 0.0770 0.0006
-8 1 5 0.0477 0.0043
-8 1 6 0.0696 0.0088
-8 1 7 0.0974 0.0084
-8 1 8 0.0841 0.0013
-8 1 9 0.0249 -0.0078
-8 1 10 -0.0399 -0.0117
-8 1 11 -0.0646 -0.0069
-8 1 12 -0.0406 0.0028
-8 1 13 -0.0019 0.0092
-8 1 14 0.0087 0.0066
-8 1 15 -0.0195 -0.0032
-8 1 16 -0.0581 -0.0126
-8 2 1 0.1552 0.0125
-8 2 2 0.0599 0.0079
-8 2 3 -0.0672 0.0005
-8 2 4 -0.1538 -0.0035
-8 2 5 -0.1511 -0.0000
-8 2 6 -0.0724 0.0081
-8 2 7 0.0172 0.0138
-8 2 8 0.0524 0.0123
-8 2 9 0.0179 0.0054
-8 2 10 -0.0465 -0.0003
-8 2 11 -0.0878 -0.0001
-8 2 12 -0.0872 0.0041
-8 2 13 -0.0696 0.0055
-8 2 14 -0.0716 -0.0006
-8 2 15 -0.1004 -0.0126
-8 2 16 -0.1257 -0.0229
-8 3 1 0.0795 0.0116
-8 3 2 -0.0818 0.0073
-8 3 3 -0.2417 -0.0017
-8 3 4 -0.3159 -0.0082
-8 3 5 -0.2629 -0.0065
-8 3 6 -0.1158 0.0025
-8 3 7 0.0377 0.0119
-8 3 8 0.1174 0.0148
-8 3 9 0.1039 0.0106
-8 3 10 0.0418 0.0043
-8 3 11 -0.0065 0.0011
-8 3 12 -0.0138 0.0009
-8 3 13 -0.0014 -0.0012
-8 3 14 -0.0069 -0.0096
-8 3 15 -0.0408 -0.0229
-8 3 16 -0.0752 -0.0343
-8 4 1 0.0786 0.0034
-8 4 2 -0.1078 0.0040
-8 4 3 -0.2642 -0.0013
-8 4 4 -0.3074 -0.0073
-8 4 5 -0.2119 -0.0075
-8 4 6 -0.0315 -0.0006
-8 4 7 0.1325 0.0082
-8 4 8 0.1995 0.0120
-8 4 9 0.1608 0.0088
-8 4 10 0.0759 0.0024
-8 4 11 0.0187 -0.0020
-8 4 12 0.0206 -0.0031
-8 4 13 0.0555 -0.0045
-8 4 14 0.0747 -0.0105
-8 4 15 0.0549 -0.0213
-8 5 1 0.0478 -0.0061
-8 5 2 -0.1041 0.0019
-8 5 3 -0.2129 0.0040
-8 5 4 -0.2103 0.0015
-8 5 5 -0.0903 -0.0002
-8 5 6 0.0791 0.0024
-8 5 7 0.1980 0.0071
-8 5 8 0.2015 0.0090
-8 5 9 0.1034 0.0059
-8 5 10 -0.0185 0.0006
-8 5 11 -0.0818 -0.0021
-8 5 12 -0.0578 -0.0005
-8 5 13 0.0169 0.0026
-8 5 14 0.0784 0.0026
-8 5 15 0.0887 -0.0023
-8 6 1 -0.0800 -0.0104
-8 6 2 -0.1688 0.0028
-8 6 3 -0.2156 0.0118
-8 6 4 -0.1726 0.0129
-8 6 5 -0.0494 0.0094
-8 6 6 0.0847 0.0066
-8 6 7 0.1447 0.0059
-8 6 8 0.0902 0.0054
-8 6 9 -0.0442 0.0033
-8 6 10 -0.1722 0.0012
-8 6 11 -0.2164 0.0023
-8 6 12 -0.1601 0.0078
-8 6 13 -0.0518 0.0153
-8 6 14 0.0370 0.0204
-8 6 15 0.0639 0.0203
-8 7 1 -0.2200 -0.0133
-8 7 2 -0.2605 0.0013
-8 7 3 -0.2697 0.0148
-8 7 4 -0.2167 0.0185
-8 7 5 -0.1156 0.0133
-8 7 6 -0.0234 0.0057
-8 7 7 -0.0006 0.0007
-8 7 8 -0.0645 -0.0005
-8 7 9 -0.1723 0.0007
-8 7 10 -0.2486 0.0038
-8 7 11 -0.2395 0.0093
-8 7 12 -0.1495 0.0170
-8 7 13 -0.0349 0.0247
-8 7 14 0.0392 0.0293
-8 8 1 -0.2396 -0.0272
-8 8 2 -0.2593 -0.0113
-8 8 3 -0.2650 0.0065
-8 8 4 -0.2351 0.0138
-8 8 5 -0.1777 0.0092
-8 8 6 -0.1280 -0.0002
-8 8 7 -0.1192 -0.0064
-8 8 8 -0.1516 -0.0058
-8 8 9 -0.1875 0.0005
-8 8 10 -0.1790 0.0094
-8 8 11 -0.1070 0.0184
-8 8 12 0.0003 0.0254
-8 8 13 0.0854 0.0289
-8 9 1 -0.1238 -0.0552
-8 9 2 -0.1337 -0.0349
-8 9 3 -0.1481 -0.0110
-8 9 4 -0.1504 0.0021
-8 9 5 -0.1393 0.0013
-8 9 6 -0.1282 -0.0063
-8 9 7 -0.1269 -0.0109
-8 9 8 -0.1255 -0.0074
-8 9 9 -0.0975 0.0034
-8 9 10 -0.0245 0.0166
-8 9 11 0.0806 0.0270
-8 9 12 0.1731 0.0316
-8 10 1 0.0156 -0.0782
-8 10 2 0.0186 -0.0529
-8 10 3 0.0058 -0.0242
-8 10 4 -0.0112 -0.0064
-8 10 5 -0.0269 -0.0033
-8 10 6 -0.0415 -0.0083
-8 10 7 -0.0509 -0.0117
-8 10 8 -0.0404 -0.0072
-8 10 9 0.0068 0.0046
-8 10 10 0.0901 0.0182
-7 -16 1 0.1460 0.0209
-7 -15 1 -0.0109 0.0188
-7 -15 2 0.0529 0.0277
-7 -15 3 0.0629 0.0276
-7 -14 1 -0.0842 0.0063
-7 -14 2 0.0060 0.0105
-7 -14 3 0.0379 0.0072
-7 -14 4 0.0176 -0.0001
-7 -14 5 -0.0230 -0.0043
-7 -13 1 -0.1824 -0.0067
-7 -13 2 -0.0943 -0.0084
-7 -13 3 -0.0403 -0.0160
-7 -13 4 -0.0274 -0.0263
-7 -13 5 -0.0413 -0.0324
-7 -13 6 -0.0592 -0.0293
-7 -13 7 -0.0675 -0.0188
-7 -12 1 -0.4116 -0.0114
-7 -12 2 -0.3565 -0.0145
-7 -12 3 -0.2863 -0.0233
-7 -12 4 -0.2196 -0.0362
-7 -12 5 -0.1660 -0.0461
-7 -12 6 -0.1242 -0.0473
-7 -12 7 -0.0896 -0.0403
-7 -12 8 -0.0629 -0.0312
-7 -11 1 -0.6411 -0.0088
-7 -11 2 -0.6356 -0.0074
-7 -11 3 -0.5717 -0.0128
-7 -11 4 -0.4753 -0.0252
-7 -11 5 -0.3752 -0.0382
-7 -11 6 -0.2880 -0.0448
-7 -11 7 -0.2156 -0.0437
-7 -11 8 -0.1542 -0.0397
-7 -11 9 -0.1029 -0.0390
-7 -10 1 -0.6576 -0.0043
-7 -10 2 -0.6777 0.0028
-7 -10 3 -0.6297 0.0023
-7 -10 4 -0.5444 -0.0075
-7 -10 5 -0.4601 -0.0207
-7 -10 6 -0.3985 -0.0295
-7 -10 7 -0.3562 -0.0309
-7 -10 8 -0.3145 -0.0292
-7 -10 9 -0.2585 -0.0309
-7 -10 10 -0.1876 -0.0377
-7 -9 1 -0.4879 0.0001
-7 -9 2 -0.4784 0.0091
-7 -9 3 -0.4174 0.0106
-7 -9 4 -0.3429 0.0029
-7 -9 5 -0.2967 -0.0084
-7 -9 6 -0.2981 -0.0149
-7 -9 7 -0.3311 -0.0133
-7 -9 8 -0.3573 -0.0081
-7 -9 9 -0.3428 -0.0072
-7 -9 10 -0.2791 -0.0139
-7 -9 11 -0.1841 -0.0239
-7 -8 1 -0.3672 0.0048
-7 -8 2 -0.2980 0.0116
-7 -8 3 -0.1903 0.0120
-7 -8 4 -0.0899 0.0046
-7 -8 5 -0.0415 -0.0046
-7 -8 6 -0.0635 -0.0074
-7 -8 7 -0.1349 -0.0007
-7 -8 8 -0.2072 0.0104
-7 -8 9 -0.2338 0.0164
-7 -8 10 -0.1973 0.0123
-7 -8 11 -0.1160 0.0015
-7 -8 12 -0.0259 -0.0075
-7 -7 1 -0.3756 0.0073
-7 -7 2 -0.2833 0.0116
-7 -7 3 -0.1489 0.0107
-7 -7 4 -0.0183 0.0036
-7 -7 5 0.0653 -0.0044
-7 -7 6 0.0799 -0.0056
-7 -7 7 0.0375 0.0030
-7 -7 8 -0.0220 0.0160
-7 -7 9 -0.0542 0.0240
-7 -7 10 -0.0373 0.0213
-7 -7 11 0.0174 0.0106
-7 -7 12 0.0785 0.0005
-7 -7 13 0.1183 -0.0019
-7 -6 1 -0.3077 0.0044
-7 -6 2 -0.2634 0.0086
-7 -6 3 -0.1749 0.0087
-7 -6 4 -0.0735 0.0032
-7 -6 5 0.0109 -0.0037
-7 -6 6 0.0556 -0.0058
-7 -6 7 0.0552 -0.0005
-7 -6 8 0.0262 0.0082
-7 -6 9 -0.0023 0.0126
-7 -6 10 -0.0082 0.0079
-7 -6 11 0.0099 -0.0030
-7 -6 12 0.0368 -0.0122
-7 -6 13 0.0564 -0.0129
-7 -6 14 0.0637 -0.0050
-7 -5 1 0.0112 -0.0018
-7 -5 2 -0.0284 0.0035
-7 -5 3 -0.0419 0.0059
-7 -5 4 -0.0338 0.0036
-7 -5 5 -0.0096 -0.0012
-7 -5 6 0.0148 -0.0044
-7 -5 7 0.0177 -0.0038
-7 -5 8 -0.0120 -0.0019
-7 -5 9 -0.0658 -0.0033
-7 -5 10 -0.1226 -0.0109
-7 -5 11 -0.1638 -0.0217
-7 -5 12 -0.1819 -0.0290
-7 -5 13 -0.1766 -0.0278
-7 -5 14 -0.1485 -0.0182
-7 -4 1 0.4387 -0.0049
-7 -4 2 0.3386 -0.0001
-7 -4 3 0.2372 0.0035
-7 -4 4 0.1555 0.0041
-7 -4 5 0.1137 0.0024
-7 -4 6 0.1054 0.0003
-7 -4 7 0.0967 -0.0009
-7 -4 8 0.0517 -0.0025
-7 -4 9 -0.0405 -0.0066
-7 -4 10 -0.1596 -0.0139
-7 -4 11 -0.2705 -0.0221
-7 -4 12 -0.3439 -0.0268
-7 -4 13 -0.3651 -0.0252
-7 -4 14 -0.3322 -0.0184
-7 -4 15 -0.2534 -0.0105
-7 -3 1 0.6903 -0.0032
-7 -3 2 0.5750 -0.0008
-7 -3 3 0.4465 0.0017
-7 -3 4 0.3389 0.0036
-7 -3 5 0.2868 0.0049
-7 -3 6 0.2896 0.0056
-7 -3 7 0.3043 0.0057
-7 -3 8 0.2763 0.0047
-7 -3 9 0.1800 0.0023
-7 -3 10 0.0345 -0.0009
-7 -3 11 -0.1142 -0.0034
-7 -3 12 -0.2241 -0.0040
-7 -3 13 -0.2758 -0.0031
-7 -3 14 -0.2705 -0.0023
-7 -3 15 -0.2209 -0.0037
-7 -2 1 0.6937 -0.0007
-7 -2 2 0.5955 -0.0009
-7 -2 3 0.4914 -0.0006
-7 -2 4 0.4126 0.0010
-7 -2 5 0.3954 0.0037
-7 -2 6 0.4406 0.0064
-7 -2 7 0.5015 0.0076
-7 -2 8 0.5157 0.0071
-7 -2 9 0.4520 0.0064
-7 -2 10 0.3299 0.0076
-7 -2 11 0.1994 0.0114
-7 -2 12 0.1017 0.0161
-7 -2 13 0.0476 0.0181
-7 -2 14 0.0234 0.0144
-7 -2 15 0.0112 0.0048
-7 -2 16 0.0020 -0.0071
-7 -1 1 0.6057 -0.0014
-7 -1 2 0.5499 -0.0023
-7 -1 3 0.4907 -0.0032
-7 -1 4 0.4473 -0.0024
-7 -1 5 0.4518 0.0004
-7 -1 6 0.5079 0.0029
-7 -1 7 0.5756 0.0026
-7 -1 8 0.5994 -0.0006
-7 -1 9 0.5544 -0.0035
-7 -1 10 0.4656 -0.0018
-7 -1 11 0.3829 0.0057
-7 -1 12 0.3383 0.0155
-7 -1 13 0.3235 0.0213
-7 -1 14 0.3048 0.0180
-7 -1 15 0.2554 0.0062
-7 -1 16 0.1754 -0.0085
-7 0 1 0.5317 -0.0032
-7 0 2 0.5417 -0.0031
-7 0 3 0.5281 -0.0040
-7 0 4 0.4990 -0.0034
-7 0 5 0.4849 -0.0007
-7 0 6 0.4985 0.0012
-7 0 7 0.5146 -0.0013
-7 0 8 0.4945 -0.0087
-7 0 9 0.4272 -0.0164
-7 0 10 0.3455 -0.0181
-7 0 11 0.2990 -0.0107
-7 0 12 0.3091 0.0023
-7 0 13 0.3486 0.0125
-7 0 14 0.3649 0.0135
-7 0 15 0.3225 0.0048
-7 0 16 0.2279 -0.0074
-7 1 1 0.4168 -0.0017
-7 1 2 0.4836 -0.0010
-7 1 3 0.4952 -0.0022
-7 1 4 0.4591 -0.0022
-7 1 5 0.4119 0.0007
-7 1 6 0.3769 0.0039
-7 1 7 0.3425 0.0022
-7 1 8 0.2821 -0.0061
-7 1 9 0.1925 -0.0168
-7 1 10 0.1095 -0.0222
-7 1 11 0.0800 -0.0174
-7 1 12 0.1182 -0.0047
-7 1 13 0.1877 0.0075
-7 1 14 0.2286 0.0117
-7 1 15 0.2050 0.0066
-7 1 16 0.1305 -0.0020
-7 2 1 0.2349 0.0042
-7 2 2 0.2943 0.0037
-7 2 3 0.2805 -0.0001
-7 2 4 0.2168 -0.0026
-7 2 5 0.1515 -0.0002
-7 2 6 0.1142 0.0054
-7 2 7 0.0941 0.0082
-7 2 8 0.0603 0.0040
-7 2 9 0.0026 -0.0052
-7 2 10 -0.0518 -0.0121
-7 2 11 -0.0627 -0.0108
-7 2 12 -0.0192 -0.0020
-7 2 13 0.0443 0.0075
-7 2 14 0.0744 0.0104
-7 2 15 0.0458 0.0054
-7 2 16 -0.0171 -0.0023
-7 2 17 -0.0619 -0.0055
-7 3 1 0.1061 0.0105
-7 3 2 0.0809 0.0079
-7 3 3 -0.0119 0.0004
-7 3 4 -0.1218 -0.0062
-7 3 5 -0.1879 -0.0060
-7 3 6 -0.1838 0.0010
-7 3 7 -0.1344 0.0086
-7 3 8 -0.0883 0.0104
-7 3 9 -0.0733 0.0053
-7 3 10 -0.0757 -0.0015
-7 3 11 -0.0623 -0.0039
-7 3 12 -0.0213 -0.0010
-7 3 13 0.0207 0.0025
-7 3 14 0.0225 0.0009
-7 3 15 -0.0288 -0.0070
-7 3 16 -0.0989 -0.0161
-7 3 17 -0.1318 -0.0198
-7 4 1 0.1289 0.0105
-7 4 2 0.0038 0.0084
-7 4 3 -0.1699 0.0001
-7 4 4 -0.3168 -0.0088
-7 4 5 -0.3714 -0.0112
-7 4 6 -0.3206 -0.0052
-7 4 7 -0.2103 0.0041
-7 4 8 -0.1074 0.0094
-7 4 9 -0.0509 0.0072
-7 4 10 -0.0311 0.0005
-7 4 11 -0.0128 -0.0050
-7 4 12 0.0215 -0.0071
-7 4 13 0.0527 -0.0083
-7 4 14 0.0458 -0.0131
-7 4 15 -0.0095 -0.0223
-7 4 16 -0.0802 -0.0318
-7 5 1 0.2066 0.0022
-7 5 2 0.0452 0.0048
-7 5 3 -0.1452 0.0013
-7 5 4 -0.2800 -0.0053
-7 5 5 -0.3032 -0.0088
-7 5 6 -0.2226 -0.0056
-7 5 7 -0.1024 0.0014
-7 5 8 -0.0157 0.0058
-7 5 9 0.0055 0.0039
-7 5 10 -0.0149 -0.0028
-7 5 11 -0.0279 -0.0094
-7 5 12 -0.0059 -0.0127
-7 5 13 0.0353 -0.0139
-7 5 14 0.0563 -0.0165
-7 5 15 0.0353 -0.0221
-7 5 16 -0.0093 -0.0283
-7 6 1 0.1626 -0.0086
-7 6 2 0.0409 0.0003
-7 6 3 -0.0923 0.0048
-7 6 4 -0.1621 0.0037
-7 6 5 -0.1337 0.0009
-7 6 6 -0.0372 0.0004
-7 6 7 0.0541 0.0022
-7 6 8 0.0759 0.0031
-7 6 9 0.0183 0.0001
-7 6 10 -0.0709 -0.0055
-7 6 11 -0.1254 -0.0099
-7 6 12 -0.1103 -0.0103
-7 6 13 -0.0441 -0.0073
-7 6 14 0.0234 -0.0041
-7 6 15 0.0541 -0.0030
-7 6 16 0.0478 -0.0037
-7 7 1 -0.0198 -0.0137
-7 7 2 -0.0821 -0.0022
-7 7 3 -0.1408 0.0088
-7 7 4 -0.1404 0.0130
-7 7 5 -0.0686 0.0109
-7 7 6 0.0309 0.0063
-7 7 7 0.0876 0.0025
-7 7 8 0.0556 -0.0002
-7 7 9 -0.0515 -0.0028
-7 7 10 -0.1692 -0.0048
-7 7 11 -0.2272 -0.0043
-7 7 12 -0.1960 -0.0002
-7 7 13 -0.1027 0.0067
-7 7 14 -0.0044 0.0136
-7 7 15 0.0535 0.0184
-7 8 1 -0.1790 -0.0155
-7 8 2 -0.2142 -0.0056
-7 8 3 -0.2387 0.0085
-7 8 4 -0.2146 0.0164
-7 8 5 -0.1416 0.0150
-7 8 6 -0.0623 0.0077
-7 8 7 -0.0317 0.0004
-7 8 8 -0.0743 -0.0033
-7 8 9 -0.1626 -0.0025
-7 8 10 -0.2351 0.0018
-7 8 11 -0.2394 0.0085
-7 8 12 -0.1678 0.0160
-7 8 13 -0.0598 0.0224
-7 8 14 0.0289 0.0263
-7 8 15 0.0641 0.0273
-7 9 1 -0.1835 -0.0267
-7 9 2 -0.2208 -0.0184
-7 9 3 -0.2529 -0.0015
-7 9 4 -0.2532 0.0105
-7 9 5 -0.2216 0.0117
-7 9 6 -0.1859 0.0052
-7 9 7 -0.1776 -0.0018
-7 9 8 -0.2009 -0.0030
-7 9 9 -0.2258 0.0035
-7 9 10 -0.2102 0.0153
-7 9 11 -0.1354 0.0278
-7 9 12 -0.0238 0.0365
-7 9 13 0.0737 0.0384
-7 9 14 0.1131 0.0339
-7 10 1 -0.0698 -0.0518
-7 10 2 -0.1039 -0.0413
-7 10 3 -0.1461 -0.0201
-7 10 4 -0.1774 -0.0025
-7 10 5 -0.1931 0.0039
-7 10 6 -0.2032 0.0011
-7 10 7 -0.2159 -0.0030
-7 10 8 -0.2202 -0.0007
-7 10 9 -0.1893 0.0106
-7 10 10 -0.1044 0.0277
-7 10 11 0.0211 0.0437
-7 10 12 0.1403 0.0519
-7 10 13 0.1993 0.0488
-7 11 1 0.0363 -0.0734
-7 11 2 0.0244 -0.0589
-7 11 3 -0.0041 -0.0342
-7 11 4 -0.0382 -0.0128
-7 11 5 -0.0718 -0.0024
-7 11 6 -0.1044 -0.0021
-7 11 7 -0.1302 -0.0044
-7 11 8 -0.1310 -0.0016
-7 11 9 -0.0843 0.0098
-7 11 10 0.0131 0.0268
-7 11 11 0.1308 0.0421
-6 -16 1 0.2895 0.0045
-6 -15 1 0.2051 0.0115
-6 -15 2 0.2473 0.0228
-6 -15 3 0.2161 0.0272
-6 -15 4 0.1346 0.0241
-6 -14 1 0.1134 0.0090
-6 -14 2 0.2108 0.0202
-6 -14 3 0.2180 0.0248
-6 -14 4 0.1457 0.0226
-6 -14 5 0.0469 0.0182
-6 -13 1 0.0044 -0.0002
-6 -13 2 0.1410 0.0069
-6 -13 3 0.1883 0.0090
-6 -13 4 0.1446 0.0061
-6 -13 5 0.0501 0.0031
-6 -13 6 -0.0386 0.0048
-6 -13 7 -0.0827 0.0109
-6 -12 1 -0.2006 -0.0070
-6 -12 2 -0.0791 -0.0048
-6 -12 3 -0.0125 -0.0061
-6 -12 4 -0.0087 -0.0110
-6 -12 5 -0.0483 -0.0147
-6 -12 6 -0.0942 -0.0126
-6 -12 7 -0.1158 -0.0047
-6 -12 8 -0.1065 0.0037
-6 -11 1 -0.4424 -0.0067
-6 -11 2 -0.4061 -0.0055
-6 -11 3 -0.3698 -0.0075
-6 -11 4 -0.3383 -0.0135
-6 -11 5 -0.3111 -0.0195
-6 -11 6 -0.2792 -0.0206
-6 -11 7 -0.2318 -0.0161
-6 -11 8 -0.1680 -0.0107
-6 -11 9 -0.1019 -0.0101
-6 -10 1 -0.5379 -0.0030
-6 -10 2 -0.6089 0.0016
-6 -10 3 -0.6383 0.0027
-6 -10 4 -0.6221 -0.0020
-6 -10 5 -0.5719 -0.0095
-6 -10 6 -0.5012 -0.0145
-6 -10 7 -0.4163 -0.0155
-6 -10 8 -0.3198 -0.0160
-6 -10 9 -0.2191 -0.0209
-6 -10 10 -0.1290 -0.0310
-6 -10 11 -0.0639 -0.0409
-6 -9 1 -0.4492 -0.0010
-6 -9 2 -0.5663 0.0074
-6 -9 3 -0.6289 0.0123
-6 -9 4 -0.6304 0.0103
-6 -9 5 -0.5912 0.0034
-6 -9 6 -0.5377 -0.0031
-6 -9 7 -0.4825 -0.0068
-6 -9 8 -0.4215 -0.0104
-6 -9 9 -0.3459 -0.0187
-6 -9 10 -0.2569 -0.0324
-6 -9 11 -0.1672 -0.0459
-6 -9 12 -0.0904 -0.0510
-6 -8 1 -0.3731 -0.0010
-6 -8 2 -0.4431 0.0080
-6 -8 3 -0.4578 0.0141
-6 -8 4 -0.4217 0.0138
-6 -8 5 -0.3659 0.0086
-6 -8 6 -0.3254 0.0037
-6 -8 7 -0.3140 0.0018
-6 -8 8 -0.3165 0.0003
-6 -8 9 -0.3040 -0.0061
-6 -8 10 -0.2585 -0.0191
-6 -8 11 -0.1848 -0.0336
-6 -8 12 -0.1034 -0.0411
-6 -7 1 -0.4404 -0.0010
-6 -7 2 -0.4311 0.0055
-6 -7 3 -0.3594 0.0102
-6 -7 4 -0.2467 0.0097
-6 -7 5 -0.1342 0.0058
-6 -7 6 -0.0635 0.0033
-6 -7 7 -0.0514 0.0049
-6 -7 8 -0.0793 0.0078
-6 -7 9 -0.1070 0.0064
-6 -7 10 -0.1013 -0.0024
-6 -7 11 -0.0571 -0.0147
-6 -7 12 0.0052 -0.0224
-6 -7 13 0.0595 -0.0199
-6 -6 1 -0.4596 -0.0017
-6 -6 2 -0.4247 0.0025
-6 -6 3 -0.3246 0.0055
-6 -6 4 -0.1879 0.0044
-6 -6 5 -0.0527 0.0006
-6 -6 6 0.0426 -0.0013
-6 -6 7 0.0769 0.0013
-6 -6 8 0.0605 0.0061
-6 -6 9 0.0289 0.0078
-6 -6 10 0.0184 0.0029
-6 -6 11 0.0422 -0.0058
-6 -6 12 0.0865 -0.0114
-6 -6 13 0.1260 -0.0087
-6 -6 14 0.1436 0.0011
-6 -5 1 -0.1467 -0.0039
-6 -5 2 -0.1556 0.0000
-6 -5 3 -0.1266 0.0028
-6 -5 4 -0.0761 0.0018
-6 -5 5 -0.0176 -0.0021
-6 -5 6 0.0300 -0.0051
-6 -5 7 0.0468 -0.0048
-6 -5 8 0.0269 -0.0022
-6 -5 9 -0.0128 -0.0014
-6 -5 10 -0.0441 -0.0050
-6 -5 11 -0.0481 -0.0110
-6 -5 12 -0.0263 -0.0141
-6 -5 13 0.0060 -0.0103
-6 -5 14 0.0348 -0.0009
-6 -5 15 0.0548 0.0081
-6 -4 1 0.4449 -0.0051
-6 -4 2 0.3769 -0.0008
-6 -4 3 0.2920 0.0024
-6 -4 4 0.1985 0.0023
-6 -4 5 0.1218 -0.0008
-6 -4 6 0.0734 -0.0043
-6 -4 7 0.0386 -0.0062
-6 -4 8 -0.0076 -0.0068
-6 -4 9 -0.0752 -0.0083
-6 -4 10 -0.1507 -0.0119
-6 -4 11 -0.2103 -0.0162
-6 -4 12 -0.2382 -0.0177
-6 -4 13 -0.2320 -0.0142
-6 -4 14 -0.1973 -0.0074
-6 -4 15 -0.1405 -0.0019
-6 -3 1 0.9283 -0.0024
-6 -3 2 0.8298 0.0007
-6 -3 3 0.6696 0.0031
-6 -3 4 0.4788 0.0037
-6 -3 5 0.3158 0.0026
-6 -3 6 0.2177 0.0011
-6 -3 7 0.1715 -0.0000
-6 -3 8 0.1305 -0.0010
-6 -3 9 0.0557 -0.0026
-6 -3 10 -0.0565 -0.0050
-6 -3 11 -0.1782 -0.0071
-6 -3 12 -0.2748 -0.0075
-6 -3 13 -0.3249 -0.0062
-6 -3 14 -0.3229 -0.0053
-6 -3 15 -0.2736 -0.0074
-6 -3 16 -0.1894 -0.0127
-6 -2 1 1.0386 0.0021
-6 -2 2 0.9330 0.0026
-6 -2 3 0.7627 0.0027
-6 -2 4 0.5666 0.0029
-6 -2 5 0.4161 0.0039
-6 -2 6 0.3569 0.0058
-6 -2 7 0.3707 0.0076
-6 -2 8 0.3911 0.0087
-6 -2 9 0.3557 0.0088
-6 -2 10 0.2483 0.0090
-6 -2 11 0.1001 0.0100
-6 -2 12 -0.0411 0.0113
-6 -2 13 -0.1421 0.0106
-6 -2 14 -0.1930 0.0052
-6 -2 15 -0.1985 -0.0056
-6 -2 16 -0.1680 -0.0187
-6 -1 1 0.8981 0.0039
-6 -1 2 0.8003 0.0022
-6 -1 3 0.6657 -0.0001
-6 -1 4 0.5227 -0.0009
-6 -1 5 0.4337 0.0011
-6 -1 6 0.4392 0.0052
-6 -1 7 0.5156 0.0089
-6 -1 8 0.5897 0.0105
-6 -1 9 0.5931 0.0107
-6 -1 10 0.5096 0.0118
-6 -1 11 0.3760 0.0153
-6 -1 12 0.2445 0.0193
-6 -1 13 0.1451 0.0195
-6 -1 14 0.0768 0.0118
-6 -1 15 0.0255 -0.0035
-6 -1 16 -0.0163 -0.0211
-6 -1 17 -0.0461 -0.0331
-6 0 1 0.7541 0.0013
-6 0 2 0.7031 -0.0005
-6 0 3 0.6367 -0.0034
-6 0 4 0.5592 -0.0046
-6 0 5 0.5121 -0.0023
-6 0 6 0.5273 0.0021
-6 0 7 0.5861 0.0048
-6 0 8 0.6292 0.0037
-6 0 9 0.6055 0.0002
-6 0 10 0.5147 -0.0013
-6 0 11 0.4029 0.0024
-6 0 12 0.3200 0.0093
-6 0 13 0.2792 0.0136
-6 0 14 0.2548 0.0097
-6 0 15 0.2122 -0.0032
-6 0 16 0.1401 -0.0194
-6 0 17 0.0552 -0.0303
-6 1 1 0.6357 -0.0028
-6 1 2 0.6811 -0.0027
-6 1 3 0.7058 -0.0045
-6 1 4 0.6879 -0.0052
-6 1 5 0.6494 -0.0026
-6 1 6 0.6184 0.0017
-6 1 7 0.5920 0.0031
-6 1 8 0.5384 -0.0013
-6 1 9 0.4364 -0.0095
-6 1 10 0.3078 -0.0153
-6 1 11 0.2073 -0.0135
-6 1 12 0.1775 -0.0047
-6 1 13 0.2107 0.0045
-6 1 14 0.2551 0.0071
-6 1 15 0.2561 0.0008
-6 1 16 0.1974 -0.0098
-6 1 17 0.1064 -0.0171
-6 2 1 0.4290 -0.0042
-6 2 2 0.5633 -0.0024
-6 2 3 0.6566 -0.0034
-6 2 4 0.6746 -0.0043
-6 2 5 0.6315 -0.0018
-6 2 6 0.5588 0.0032
-6 2 7 0.4695 0.0057
-6 2 8 0.3548 0.0016
-6 2 9 0.2141 -0.0079
-6 2 10 0.0798 -0.0162
-6 2 11 0.0047 -0.0167
-6 2 12 0.0190 -0.0085
-6 2 13 0.0993 0.0028
-6 2 14 0.1797 0.0095
-6 2 15 0.2008 0.0084
-6 2 16 0.1514 0.0026
-6 2 17 0.0710 -0.0011
-6 3 1 0.1725 -0.0007
-6 3 2 0.3065 0.0008
-6 3 3 0.3837 -0.0020
-6 3 4 0.3813 -0.0054
-6 3 5 0.3229 -0.0047
-6 3 6 0.2470 0.0008
-6 3 7 0.1728 0.0064
-6 3 8 0.0958 0.0065
-6 3 9 0.0134 0.0002
-6 3 10 -0.0527 -0.0074
-6 3 11 -0.0661 -0.0099
-6 3 12 -0.0119 -0.0049
-6 3 13 0.0786 0.0034
-6 3 14 0.1431 0.0087
-6 3 15 0.1350 0.0078
-6 3 16 0.0613 0.0033
-6 3 17 -0.0235 0.0009
-6 4 1 0.0593 0.0056
-6 4 2 0.0981 0.0056
-6 4 3 0.0725 -0.0002
-6 4 4 -0.0082 -0.0077
-6 4 5 -0.1000 -0.0107
-6 4 6 -0.1587 -0.0063
-6 4 7 -0.1711 0.0016
-6 4 8 -0.1548 0.0064
-6 4 9 -0.1305 0.0047
-6 4 10 -0.0982 -0.0010
-6 4 11 -0.0421 -0.0053
-6 4 12 0.0406 -0.0052
-6 4 13 0.1194 -0.0028
-6 4 14 0.1454 -0.0026
-6 4 15 0.0920 -0.0066
-6 4 16 -0.0150 -0.0123
-6 4 17 -0.1097 -0.0149
-6 5 1 0.1458 0.0078
-6 5 2 0.0828 0.0084
-6 5 3 -0.0488 0.0025
-6 5 4 -0.2049 -0.0066
-6 5 5 -0.3239 -0.0124
-6 5 6 -0.3646 -0.0108
-6 5 7 -0.3289 -0.0038
-6 5 8 -0.2524 0.0025
-6 5 9 -0.1713 0.0032
-6 5 10 -0.0976 -0.0014
-6 5 11 -0.0226 -0.0071
-6 5 12 0.0560 -0.0109
-6 5 13 0.1159 -0.0132
-6 5 14 0.1213 -0.0164
-6 5 15 0.0573 -0.0217
-6 5 16 -0.0462 -0.0271
-6 5 17 -0.1273 -0.0290
-6 6 1 0.2438 0.0005
-6 6 2 0.1562 0.0053
-6 6 3 0.0021 0.0047
-6 6 4 -0.1550 -0.0008
-6 6 5 -0.2522 -0.0064
-6 6 6 -0.2640 -0.0076
-6 6 7 -0.2126 -0.0044
-6 6 8 -0.1456 -0.0009
-6 6 9 -0.0989 -0.0011
-6 6 10 -0.0751 -0.0056
-6 6 11 -0.0525 -0.0115
-6 6 12 -0.0150 -0.0159
-6 6 13 0.0272 -0.0182
-6 6 14 0.0449 -0.0198
-6 6 15 0.0204 -0.0216
-6 6 16 -0.0311 -0.0226
-6 6 17 -0.0683 -0.0213
-6 7 1 0.1699 -0.0114
-6 7 2 0.1258 -0.0021
-6 7 3 0.0308 0.0048
-6 7 4 -0.0522 0.0061
-6 7 5 -0.0766 0.0031
-6 7 6 -0.0415 -0.0004
-6 7 7 0.0118 -0.0026
-6 7 8 0.0331 -0.0042
-6 7 9 0.0006 -0.0069
-6 7 10 -0.0646 -0.0109
-6 7 11 -0.1184 -0.0146
-6 7 12 -0.1278 -0.0162
-6 7 13 -0.0939 -0.0153
-6 7 14 -0.0451 -0.0126
-6 7 15 -0.0100 -0.0087
-6 7 16 0.0051 -0.0035
-6 7 17 0.0160 0.0025
-6 8 1 -0.0203 -0.0173
-6 8 2 -0.0253 -0.0079
-6 8 3 -0.0562 0.0038
-6 8 4 -0.0623 0.0107
-6 8 5 -0.0184 0.0103
-6 8 6 0.0550 0.0046
-6 8 7 0.1061 -0.0025
-6 8 8 0.0914 -0.0084
-6 8 9 0.0075 -0.0121
-6 8 10 -0.1048 -0.0133
-6 8 11 -0.1888 -0.0123
-6 8 12 -0.2081 -0.0097
-6 8 13 -0.1648 -0.0062
-6 8 14 -0.0903 -0.0022
-6 8 15 -0.0195 0.0029
-6 8 16 0.0307 0.0098
-6 9 1 -0.1362 -0.0155
-6 9 2 -0.1466 -0.0104
-6 9 3 -0.1649 0.0018
-6 9 4 -0.1531 0.0116
-6 9 5 -0.0998 0.0131
-6 9 6 -0.0326 0.0069
-6 9 7 0.0016 -0.0024
-6 9 8 -0.0261 -0.0091
-6 9 9 -0.1038 -0.0101
-6 9 10 -0.1862 -0.0051
-6 9 11 -0.2260 0.0028
-6 9 12 -0.2042 0.0096
-6 9 13 -0.1370 0.0126
-6 9 14 -0.0593 0.0116
-6 9 15 0.0006 0.0097
-6 10 1 -0.1030 -0.0179
-6 10 2 -0.1363 -0.0171
-6 10 3 -0.1767 -0.0054
-6 10 4 -0.1963 0.0067
-6 10 5 -0.1872 0.0114
-6 10 6 -0.1691 0.0076
-6 10 7 -0.1706 0.0003
-6 10 8 -0.2005 -0.0032
-6 10 9 -0.2367 0.0018
-6 10 10 -0.2426 0.0148
-6 10 11 -0.1971 0.0304
-6 10 12 -0.1122 0.0410
-6 10 13 -0.0249 0.0416
-6 10 14 0.0299 0.0323
-6 11 1 -0.0101 -0.0331
-6 11 2 -0.0420 -0.0328
-6 11 3 -0.0906 -0.0200
-6 11 4 -0.1375 -0.0046
-6 11 5 -0.1744 0.0048
-6 11 6 -0.2082 0.0057
-6 11 7 -0.2461 0.0027
-6 11 8 -0.2779 0.0034
-6 11 9 -0.2760 0.0132
-6 11 10 -0.2164 0.0319
-6 11 11 -0.1050 0.0527
-6 11 12 0.0180 0.0661
-6 11 13 0.1010 0.0650
-6 12 1 0.0424 -0.0503
-6 12 2 0.0381 -0.0478
-6 12 3 0.0120 -0.0336
-6 12 4 -0.0275 -0.0160
-6 12 5 -0.0738 -0.0032
-6 12 6 -0.1259 0.0015
-6 12 7 -0.1784 0.0010
-6 12 8 -0.2111 0.0024
-6 12 9 -0.1954 0.0116
-6 12 10 -0.1171 0.0293
-6 12 11 0.0030 0.0495
-5 -16 1 0.2215 -0.0118
-5 -15 1 0.1917 -0.0036
-5 -15 2 0.2387 0.0042
-5 -15 3 0.2058 0.0085
-5 -15 4 0.1098 0.0072
-5 -14 1 0.1454 0.0017
-5 -14 2 0.2312 0.0111
-5 -14 3 0.2254 0.0169
-5 -14 4 0.1312 0.0166
-5 -14 5 0.0053 0.0124
-5 -13 1 0.0984 -0.0003
-5 -13 2 0.2486 0.0087
-5 -13 3 0.2958 0.0148
-5 -13 4 0.2262 0.0155
-5 -13 5 0.0841 0.0132
-5 -13 6 -0.0542 0.0115
-5 -13 7 -0.1267 0.0117
-5 -12 1 -0.0434 -0.0059
-5 -12 2 0.1534 -0.0003
-5 -12 3 0.2577 0.0038
-5 -12 4 0.2431 0.0044
-5 -12 5 0.1352 0.0038
-5 -12 6 -0.0027 0.0054
-5 -12 7 -0.1050 0.0098
-5 -12 8 -0.1394 0.0141
-5 -11 1 -0.2825 -0.0074
-5 -11 2 -0.1237 -0.0053
-5 -11 3 -0.0191 -0.0038
-5 -11 4 0.0092 -0.0043
-5 -11 5 -0.0302 -0.0047
-5 -11 6 -0.0993 -0.0018
-5 -11 7 -0.1510 0.0048
-5 -11 8 -0.1554 0.0113
-5 -11 9 -0.1154 0.0129
-5 -11 10 -0.0611 0.0085
-5 -10 1 -0.4272 -0.0027
-5 -10 2 -0.4024 -0.0010
-5 -10 3 -0.3881 0.0001
-5 -10 4 -0.3834 -0.0009
-5 -10 5 -0.3853 -0.0023
-5 -10 6 -0.3826 -0.0010
-5 -10 7 -0.3567 0.0037
-5 -10 8 -0.2936 0.0081
-5 -10 9 -0.1979 0.0073
-5 -10 10 -0.0951 0.0001
-5 -10 11 -0.0183 -0.0091
-5 -9 1 -0.3333 0.0025
-5 -9 2 -0.4565 0.0068
-5 -9 3 -0.5653 0.0101
-5 -9 4 -0.6314 0.0101
-5 -9 5 -0.6496 0.0080
-5 -9 6 -0.6277 0.0069
-5 -9 7 -0.5725 0.0076
-5 -9 8 -0.4849 0.0073
-5 -9 9 -0.3684 0.0015
-5 -9 10 -0.2396 -0.0106
-5 -9 11 -0.1257 -0.0238
-5 -9 12 -0.0489 -0.0304
-5 -8 1 -0.1596 0.0029
-5 -8 2 -0.3415 0.0093
-5 -8 3 -0.4985 0.0150
-5 -8 4 -0.5904 0.0169
-5 -8 5 -0.6142 0.0154
-5 -8 6 -0.5932 0.0134
-5 -8 7 -0.5523 0.0121
-5 -8 8 -0.4989 0.0090
-5 -8 9 -0.4270 -0.0002
-5 -8 10 -0.3340 -0.0159
-5 -8 11 -0.2324 -0.0326
-5 -8 12 -0.1428 -0.0417
-5 -8 13 -0.0775 -0.0380
-5 -7 1 -0.1782 -0.0010
-5 -7 2 -0.3153 0.0049
-5 -7 3 -0.4077 0.0109
-5 -7 4 -0.4279 0.0139
-5 -7 5 -0.3864 0.0139
-5 -7 6 -0.3232 0.0132
-5 -7 7 -0.2768 0.0132
-5 -7 8 -0.2578 0.0113
-5 -7 9 -0.2474 0.0032
-5 -7 10 -0.2199 -0.0120
-5 -7 11 -0.1668 -0.0291
-5 -7 12 -0.1015 -0.0391
-5 -7 13 -0.0436 -0.0364
-5 -7 14 -0.0018 -0.0228
-5 -6 1 -0.3390 -0.0054
-5 -6 2 -0.4075 -0.0018
-5 -6 3 -0.4035 0.0029
-5 -6 4 -0.3245 0.0057
-5 -6 5 -0.1967 0.0066
-5 -6 6 -0.0697 0.0077
-5 -6 7 0.0095 0.0100
-5 -6 8 0.0268 0.0111
-5 -6 9 0.0071 0.0070
-5 -6 10 -0.0083 -0.0041
-5 -6 11 0.0063 -0.0178
-5 -6 12 0.0467 -0.0260
-5 -6 13 0.0894 -0.0231
-5 -6 14 0.1146 -0.0108
-5 -5 1 -0.2501 -0.0081
-5 -5 2 -0.2959 -0.0060
-5 -5 3 -0.2684 -0.0027
-5 -5 4 -0.1835 -0.0006
-5 -5 5 -0.0656 0.0001
-5 -5 6 0.0471 0.0010
-5 -5 7 0.1145 0.0036
-5 -5 8 0.1202 0.0060
-5 -5 9 0.0843 0.0046
-5 -5 10 0.0489 -0.0019
-5 -5 11 0.0468 -0.0105
-5 -5 12 0.0805 -0.0148
-5 -5 13 0.1266 -0.0104
-5 -5 14 0.1582 0.0010
-5 -5 15 0.1625 0.0123
-5 -4 1 0.3033 -0.0085
-5 -4 2 0.2482 -0.0061
-5 -4 3 0.2138 -0.0031
-5 -4 4 0.1830 -0.0017
-5 -4 5 0.1588 -0.0021
-5 -4 6 0.1407 -0.0028
-5 -4 7 0.1134 -0.0024
-5 -4 8 0.0616 -0.0017
-5 -4 9 -0.0098 -0.0028
-5 -4 10 -0.0732 -0.0066
-5 -4 11 -0.0993 -0.0109
-5 -4 12 -0.0800 -0.0114
-5 -4 13 -0.0323 -0.0056
-5 -4 14 0.0179 0.0040
-5 -4 15 0.0536 0.0112
-5 -4 16 0.0712 0.0111
-5 -3 1 1.0045 -0.0055
-5 -3 2 0.9545 -0.0025
-5 -3 3 0.8444 0.0001
-5 -3 4 0.6688 0.0008
-5 -3 5 0.4720 -0.0004
-5 -3 6 0.3027 -0.0022
-5 -3 7 0.1759 -0.0035
-5 -3 8 0.0742 -0.0045
-5 -3 9 -0.0229 -0.0061
-5 -3 10 -0.1148 -0.0084
-5 -3 11 -0.1828 -0.0097
-5 -3 12 -0.2117 -0.0079
-5 -3 13 -0.2031 -0.0029
-5 -3 14 -0.1708 0.0022
-5 -3 15 -0.1269 0.0028
-5 -3 16 -0.0764 -0.0035
-5 -2 1 1.3450 0.0000
-5 -2 2 1.3120 0.0023
-5 -2 3 1.1669 0.0032
-5 -2 4 0.9181 0.0027
-5 -2 5 0.6431 0.0016
-5 -2 6 0.4272 0.0008
-5 -2 7 0.3034 0.0005
-5 -2 8 0.2415 0.0003
-5 -2 9 0.1876 -0.0003
-5 -2 10 0.1094 -0.0006
-5 -2 11 0.0123 0.0004
-5 -2 12 -0.0792 0.0031
-5 -2 13 -0.1459 0.0056
-5 -2 14 -0.1823 0.0041
-5 -2 15 -0.1891 -0.0041
-5 -2 16 -0.1657 -0.0180
-5 -2 17 -0.1145 -0.0319
-5 -1 1 1.2124 0.0055
-5 -1 2 1.1725 0.0055
-5 -1 3 1.0273 0.0035
-5 -1 4 0.7908 0.0012
-5 -1 5 0.5505 0.0003
-5 -1 6 0.4019 0.0017
-5 -1 7 0.3768 0.0043
-5 -1 8 0.4265 0.0063
-5 -1 9 0.4675 0.0076
-5 -1 10 0.4427 0.0090
-5 -1 11 0.3499 0.0119
-5 -1 12 0.2235 0.0152
-5 -1 13 0.0995 0.0155
-5 -1 14 -0.0037 0.0086
-5 -1 15 -0.0801 -0.0068
-5 -1 16 -0.1246 -0.0269
-5 -1 17 -0.1315 -0.0435
-5 0 1 0.9311 0.0079
-5 0 2 0.8711 0.0060
-5 0 3 0.7495 0.0016
-5 0 4 0.5709 -0.0024
-5 0 5 0.4070 -0.0032
-5 0 6 0.3397 -0.0002
-5 0 7 0.3908 0.0040
-5 0 8 0.5032 0.0068
-5 0 9 0.5866 0.0077
-5 0 10 0.5833 0.0086
-5 0 11 0.4978 0.0116
-5 0 12 0.3753 0.0157
-5 0 13 0.2570 0.0165
-5 0 14 0.1558 0.0090
-5 0 15 0.0658 -0.0080
-5 0 16 -0.0152 -0.0293
-5 0 17 -0.0769 -0.0458
-5 1 1 0.7654 0.0064
-5 1 2 0.7344 0.0047
-5 1 3 0.6813 0.0002
-5 1 4 0.5858 -0.0040
-5 1 5 0.4862 -0.0045
-5 1 6 0.4396 -0.0010
-5 1 7 0.4619 0.0031
-5 1 8 0.5089 0.0042
-5 1 9 0.5143 0.0017
-5 1 10 0.4475 -0.0008
-5 1 11 0.3354 0.0003
-5 1 12 0.2333 0.0051
-5 1 13 0.1752 0.0090
-5 1 14 0.1508 0.0060
-5 1 15 0.1245 -0.0062
-5 1 16 0.0730 -0.0230
-5 1 17 0.0044 -0.0360
-5 1 18 -0.0547 -0.0380
-5 2 1 0.6348 0.0012
-5 2 2 0.7001 0.0019
-5 2 3 0.7614 -0.0004
-5 2 4 0.7680 -0.0031
-5 2 5 0.7219 -0.0026
-5 2 6 0.6564 0.0015
-5 2 7 0.5899 0.0054
-5 2 8 0.5055 0.0048
-5 2 9 0.3774 -0.0008
-5 2 10 0.2126 -0.0072
-5 2 11 0.0621 -0.0088
-5 2 12 -0.0149 -0.0040
-5 2 13 0.0002 0.0032
-5 2 14 0.0685 0.0062
-5 2 15 0.1240 0.0017
-5 2 16 0.1234 -0.0078
-5 2 17 0.0725 -0.0155
-5 2 18 0.0101 -0.0159
-5 3 1 0.3859 -0.0044
-5 3 2 0.5386 -0.0014
-5 3 3 0.6912 -0.0018
-5 3 4 0.7752 -0.0036
-5 3 5 0.7703 -0.0027
-5 3 6 0.6969 0.0020
-5 3 7 0.5794 0.0073
-5 3 8 0.4253 0.0079
-5 3 9 0.2390 0.0025
-5 3 10 0.0500 -0.0050
-5 3 11 -0.0851 -0.0084
-5 3 12 -0.1169 -0.0049
-5 3 13 -0.0458 0.0029
-5 3 14 0.0699 0.0090
-5 3 15 0.1517 0.0095
-5 3 16 0.1553 0.0057
-5 3 17 0.0956 0.0025
-5 3 18 0.0257 0.0039
-5 4 1 0.1162 -0.0052
-5 4 2 0.2612 -0.0022
-5 4 3 0.4003 -0.0034
-5 4 4 0.4737 -0.0069
-5 4 5 0.4649 -0.0079
-5 4 6 0.3959 -0.0038
-5 4 7 0.2960 0.0030
-5 4 8 0.1816 0.0070
-5 4 9 0.0627 0.0052
-5 4 10 -0.0372 -0.0003
-5 4 11 -0.0803 -0.0042
-5 4 12 -0.0413 -0.0031
-5 4 13 0.0618 0.0016
-5 4 14 0.1670 0.0056
-5 4 15 0.2067 0.0060
-5 4 16 0.1563 0.0039
-5 4 17 0.0525 0.0028
-5 4 18 -0.0365 0.0057
-5 5 1 0.0399 0.0003
-5 5 2 0.0960 0.0020
-5 5 3 0.1267 -0.0012
-5 5 4 0.1042 -0.0079
-5 5 5 0.0371 -0.0125
-5 5 6 -0.0411 -0.0112
-5 5 7 -0.0996 -0.0048
-5 5 8 -0.1279 0.0015
-5 5 9 -0.1292 0.0034
-5 5 10 -0.1027 0.0010
-5 5 11 -0.0395 -0.0025
-5 5 12 0.0607 -0.0042
-5 5 13 0.1699 -0.0042
-5 5 14 0.2355 -0.0049
-5 5 15 0.2133 -0.0075
-5 5 16 0.1052 -0.0106
-5 5 17 -0.0333 -0.0111
-5 5 18 -0.1271 -0.0077
-5 6 1 0.1473 0.0046
-5 6 2 0.1318 0.0069
-5 6 3 0.0622 0.0043
-5 6 4 -0.0521 -0.0027
-5 6 5 -0.1750 -0.0094
-5 6 6 -0.2641 -0.0113
-5 6 7 -0.2948 -0.0079
-5 6 8 -0.2698 -0.0026
-5 6 9 -0.2075 0.0003
-5 6 10 -0.1240 -0.0005
-5 6 11 -0.0264 -0.0033
-5 6 12 0.0765 -0.0064
-5 6 13 0.1604 -0.0092
-5 6 14 0.1892 -0.0126
-5 6 15 0.1398 -0.0165
-5 6 16 0.0276 -0.0191
-5 6 17 -0.0918 -0.0184
-5 6 18 -0.1547 -0.0145
-5 7 1 0.2075 -0.0014
-5 7 2 0.1983 0.0043
-5 7 3 0.1180 0.0068
-5 7 4 -0.0000 0.0045
-5 7 5 -0.1075 -0.0004
-5 7 6 -0.1681 -0.0042
-5 7 7 -0.1737 -0.0051
-5 7 8 -0.1422 -0.0042
-5 7 9 -0.0990 -0.0036
-5 7 10 -0.0582 -0.0045
-5 7 11 -0.0197 -0.0064
-5 7 12 0.0196 -0.0085
-5 7 13 0.0523 -0.0109
-5 7 14 0.0602 -0.0134
-5 7 15 0.0308 -0.0149
-5 7 16 -0.0255 -0.0135
-5 7 17 -0.0753 -0.0088
-5 8 1 0.0937 -0.0150
-5 8 2 0.1291 -0.0063
-5 8 3 0.1034 0.0026
-5 8 4 0.0566 0.0072
-5 8 5 0.0306 0.0064
-5 8 6 0.0418 0.0020
-5 8 7 0.0743 -0.0034
-5 8 8 0.0963 -0.0082
-5 8 9 0.0850 -0.0115
-5 8 10 0.0412 -0.0131
-5 8 11 -0.0140 -0.0134
-5 8 12 -0.0564 -0.0133
-5 8 13 -0.0744 -0.0139
-5 8 14 -0.0722 -0.0147
-5 8 15 -0.0599 -0.0135
-5 8 16 -0.0418 -0.0079
-5 8 17 -0.0140 0.0022
-5 9 1 -0.0682 -0.0217
-5 9 2 -0.0217 -0.0145
-5 9 3 -0.0090 -0.0031
-5 9 4 0.0070 0.0060
-5 9 5 0.0539 0.0084
-5 9 6 0.1262 0.0036
-5 9 7 0.1887 -0.0055
-5 9 8 0.2030 -0.0146
-5 9 9 0.1539 -0.0201
-5 9 10 0.0583 -0.0206
-5 9 11 -0.0472 -0.0176
-5 9 12 -0.1274 -0.0148
-5 9 13 -0.1637 -0.0150
-5 9 14 -0.1555 -0.0178
-5 9 15 -0.1125 -0.0194
-5 9 16 -0.0481 -0.0149
-5 10 1 -0.1118 -0.0144
-5 10 2 -0.0984 -0.0128
-5 10 3 -0.0980 -0.0039
-5 10 4 -0.0797 0.0056
-5 10 5 -0.0265 0.0093
-5 10 6 0.0455 0.0049
-5 10 7 0.0975 -0.0050
-5 10 8 0.0968 -0.0146
-5 10 9 0.0401 -0.0181
-5 10 10 -0.0466 -0.0138
-5 10 11 -0.1273 -0.0048
-5 10 12 -0.1769 0.0020
-5 10 13 -0.1884 0.0010
-5 10 14 -0.1668 -0.0079
-5 10 15 -0.1199 -0.0187
-5 10 16 -0.0564 -0.0232
-5 11 1 -0.0493 -0.0040
-5 11 2 -0.0646 -0.0083
-5 11 3 -0.0908 -0.0034
-5 11 4 -0.1051 0.0049
-5 11 5 -0.0959 0.0099
-5 11 6 -0.0764 0.0081
-5 11 7 -0.0734 0.0011
-5 11 8 -0.1018 -0.0047
-5 11 9 -0.1502 -0.0029
-5 11 10 -0.1898 0.0089
-5 11 11 -0.1981 0.0259
-5 11 12 -0.1753 0.0385
-5 11 13 -0.1388 0.0382
-5 11 14 -0.1055 0.0237
-5 11 15 -0.0785 0.0025
-5 12 1 -0.0001 -0.0051
-5 12 2 -0.0056 -0.0121
-5 12 3 -0.0295 -0.0097
-5 12 4 -0.0601 -0.0017
-5 12 5 -0.0895 0.0058
-5 12 6 -0.1231 0.0083
-5 12 7 -0.1702 0.0063
-5 12 8 -0.2257 0.0050
-5 12 9 -0.2645 0.0114
-5 12 10 -0.2580 0.0283
-5 12 11 -0.1996 0.0510
-5 12 12 -0.1143 0.0688
-5 12 13 -0.0424 0.0714
-5 13 1 -0.0032 -0.0161
-5 13 2 0.0209 -0.0228
-5 13 3 0.0239 -0.0213
-5 13 4 0.0071 -0.0130
-5 13 5 -0.0262 -0.0031
-5 13 6 -0.0768 0.0033
-5 13 7 -0.1428 0.0047
-5 13 8 -0.2076 0.0048
-5 13 9 -0.2398 0.0102
-5 13 10 -0.2133 0.0250
-5 13 11 -0.1310 0.0464
-4 -16 1 0.1761 -0.0132
-4 -15 1 0.1326 -0.0126
-4 -15 2 0.2183 -0.0072
-4 -15 3 0.2226 -0.0038
-4 -15 4 0.1480 -0.0047
-4 -14 1 0.0383 -0.0080
-4 -14 2 0.1209 -0.0030
-4 -14 3 0.1262 0.0007
-4 -14 4 0.0467 0.0004
-4 -14 5 -0.0707 -0.0026
-4 -13 1 0.0007 -0.0037
-4 -13 2 0.1123 0.0018
-4 -13 3 0.1454 0.0065
-4 -13 4 0.0745 0.0074
-4 -13 5 -0.0671 0.0051
-4 -13 6 -0.2061 0.0022
-4 -13 7 -0.2738 -0.0000
-4 -12 1 -0.0434 -0.0042
-4 -12 2 0.1348 0.0005
-4 -12 3 0.2383 0.0051
-4 -12 4 0.2206 0.0070
-4 -12 5 0.0922 0.0064
-4 -12 6 -0.0835 0.0054
-4 -12 7 -0.2265 0.0047
-4 -12 8 -0.2828 0.0030
-4 -11 1 -0.2086 -0.0070
-4 -11 2 0.0105 -0.0048
-4 -11 3 0.1778 -0.0019
-4 -11 4 0.2375 -0.0001
-4 -11 5 0.1778 0.0009
-4 -11 6 0.0388 0.0028
-4 -11 7 -0.1082 0.0058
-4 -11 8 -0.1982 0.0075
-4 -11 9 -0.2045 0.0053
-4 -11 10 -0.1463 -0.0007
-4 -10 1 -0.3970 -0.0054
-4 -10 2 -0.2408 -0.0055
-4 -10 3 -0.1032 -0.0045
-4 -10 4 -0.0232 -0.0036
-4 -10 5 -0.0200 -0.0022
-4 -10 6 -0.0789 0.0013
-4 -10 7 -0.1552 0.0069
-4 -10 8 -0.1966 0.0116
-4 -10 9 -0.1732 0.0116
-4 -10 10 -0.0947 0.0063
-4 -10 11 -0.0031 -0.0005
-4 -9 1 -0.3563 0.0014
-4 -9 2 -0.3606 0.0015
-4 -9 3 -0.3665 0.0022
-4 -9 4 -0.3724 0.0024
-4 -9 5 -0.3833 0.0028
-4 -9 6 -0.4005 0.0055
-4 -9 7 -0.4105 0.0106
-4 -9 8 -0.3871 0.0151
-4 -9 9 -0.3102 0.0147
-4 -9 10 -0.1870 0.0084
-4 -9 11 -0.0540 0.0001
-4 -9 12 0.0429 -0.0042
-4 -8 1 -0.0550 0.0069
-4 -8 2 -0.2170 0.0093
-4 -8 3 -0.3861 0.0113
-4 -8 4 -0.5172 0.0117
-4 -8 5 -0.5927 0.0112
-4 -8 6 -0.6214 0.0119
-4 -8 7 -0.6166 0.0146
-4 -8 8 -0.5783 0.0165
-4 -8 9 -0.4969 0.0135
-4 -8 10 -0.3728 0.0042
-4 -8 11 -0.2302 -0.0070
-4 -8 12 -0.1085 -0.0132
-4 -8 13 -0.0362 -0.0101
-4 -7 1 0.1969 0.0056
-4 -7 2 -0.0307 0.0095
-4 -7 3 -0.2643 0.0129
-4 -7 4 -0.4376 0.0142
-4 -7 5 -0.5234 0.0139
-4 -7 6 -0.5404 0.0140
-4 -7 7 -0.5259 0.0154
-4 -7 8 -0.5021 0.0157
-4 -7 9 -0.4641 0.0105
-4 -7 10 -0.3975 -0.0013
-4 -7 11 -0.3037 -0.0154
-4 -7 12 -0.2055 -0.0240
-4 -7 13 -0.1298 -0.0217
-4 -7 14 -0.0852 -0.0102
-4 -6 1 0.1624 -0.0011
-4 -6 2 -0.0501 0.0021
-4 -6 3 -0.2353 0.0056
-4 -6 4 -0.3371 0.0077
-4 -6 5 -0.3391 0.0087
-4 -6 6 -0.2765 0.0102
-4 -6 7 -0.2085 0.0128
-4 -6 8 -0.1752 0.0141
-4 -6 9 -0.1741 0.0097
-4 -6 10 -0.1734 -0.0019
-4 -6 11 -0.1473 -0.0166
-4 -6 12 -0.0976 -0.0263
-4 -6 13 -0.0464 -0.0250
-4 -6 14 -0.0121 -0.0135
-4 -6 15 0.0052 0.0006
-4 -5 1 0.0724 -0.0075
-4 -5 2 -0.1136 -0.0062
-4 -5 3 -0.2284 -0.0036
-4 -5 4 -0.2460 -0.0013
-4 -5 5 -0.1683 0.0009
-4 -5 6 -0.0397 0.0041
-4 -5 7 0.0721 0.0086
-4 -5 8 0.1185 0.0121
-4 -5 9 0.1004 0.0103
-4 -5 10 0.0600 0.0017
-4 -5 11 0.0433 -0.0104
-4 -5 12 0.0652 -0.0186
-4 -5 13 0.1068 -0.0169
-4 -5 14 0.1386 -0.0061
-4 -5 15 0.1447 0.0068
-4 -4 1 0.3662 -0.0095
-4 -4 2 0.1974 -0.0093
-4 -4 3 0.1013 -0.0075
-4 -4 4 0.0720 -0.0055
-4 -4 5 0.1027 -0.0034
-4 -4 6 0.1656 -0.0002
-4 -4 7 0.2125 0.0043
-4 -4 8 0.2036 0.0083
-4 -4 9 0.1391 0.0083
-4 -4 10 0.0608 0.0030
-4 -4 11 0.0195 -0.0046
-4 -4 12 0.0374 -0.0089
-4 -4 13 0.0956 -0.0054
-4 -4 14 0.1544 0.0046
-4 -4 15 0.1833 0.0147
-4 -4 16 0.1745 0.0180
-4 -3 1 1.0614 -0.0073
-4 -3 2 0.9413 -0.0065
-4 -3 3 0.8321 -0.0048
-4 -3 4 0.7054 -0.0036
-4 -3 5 0.5707 -0.0026
-4 -3 6 0.4456 -0.0011
-4 -3 7 0.3277 0.0013
-4 -3 8 0.2005 0.0035
-4 -3 9 0.0611 0.0033
-4 -3 10 -0.0641 0.0004
-4 -3 11 -0.1353 -0.0031
-4 -3 12 -0.1322 -0.0032
-4 -3 13 -0.0716 0.0021
-4 -3 14 0.0056 0.0103
-4 -3 15 0.0626 0.0155
-4 -3 16 0.0862 0.0129
-4 -3 17 0.0821 0.0028
-4 -2 1 1.6375 -0.0034
-4 -2 2 1.6087 -0.0014
-4 -2 3 1.5069 0.0001
-4 -2 4 1.2929 0.0004
-4 -2 5 1.0047 0.0000
-4 -2 6 0.7151 -0.0000
-4 -2 7 0.4728 0.0005
-4 -2 8 0.2813 0.0010
-4 -2 9 0.1228 0.0004
-4 -2 10 -0.0087 -0.0010
-4 -2 11 -0.0984 -0.0014
-4 -2 12 -0.1323 0.0013
-4 -2 13 -0.1177 0.0067
-4 -2 14 -0.0822 0.0110
-4 -2 15 -0.0521 0.0092
-4 -2 16 -0.0352 -0.0009
-4 -2 17 -0.0227 -0.0162
-4 -1 1 1.6422 0.0001
-4 -1 2 1.6844 0.0023
-4 -1 3 1.6073 0.0026
-4 -1 4 1.3720 0.0014
-4 -1 5 1.0410 -0.0000
-4 -1 6 0.7270 -0.0003
-4 -1 7 0.5107 0.0005
-4 -1 8 0.3976 0.0013
-4 -1 9 0.3398 0.0013
-4 -1 10 0.2881 0.0016
-4 -1 11 0.2258 0.0035
-4 -1 12 0.1614 0.0075
-4 -1 13 0.1037 0.0115
-4 -1 14 0.0494 0.0107
-4 -1 15 -0.0070 0.0013
-4 -1 16 -0.0586 -0.0161
-4 -1 17 -0.0868 -0.0356
-4 0 1 1.2091 0.0035
-4 0 2 1.2456 0.0043
-4 0 3 1.1742 0.0022
-4 0 4 0.9615 -0.0013
-4 0 5 0.6783 -0.0037
-4 0 6 0.4481 -0.0034
-4 0 7 0.3561 -0.0012
-4 0 8 0.3950 0.0009
-4 0 9 0.4862 0.0020
-4 0 10 0.5459 0.0032
-4 0 11 0.5360 0.0062
-4 0 12 0.4663 0.0108
-4 0 13 0.3634 0.0135
-4 0 14 0.2443 0.0093
-4 0 15 0.1177 -0.0050
-4 0 16 -0.0019 -0.0267
-4 0 17 -0.0892 -0.0477
-4 0 18 -0.1226 -0.0585
-4 1 1 0.8090 0.0074
-4 1 2 0.8017 0.0068
-4 1 3 0.7295 0.0026
-4 1 4 0.5597 -0.0030
-4 1 5 0.3485 -0.0064
-4 1 6 0.2019 -0.0060
-4 1 7 0.1911 -0.0031
-4 1 8 0.2984 -0.0006
-4 1 9 0.4366 -0.0001
-4 1 10 0.5181 -0.0000
-4 1 11 0.5104 0.0022
-4 1 12 0.4374 0.0068
-4 1 13 0.3396 0.0099
-4 1 14 0.2388 0.0060
-4 1 15 0.1344 -0.0078
-4 1 16 0.0265 -0.0285
-4 1 17 -0.0682 -0.0477
-4 1 18 -0.1243 -0.0561
-4 2 1 0.6423 0.0098
-4 2 2 0.6411 0.0095
-4 2 3 0.6191 0.0054
-4 2 4 0.5314 -0.0004
-4 2 5 0.3995 -0.0040
-4 2 6 0.2926 -0.0034
-4 2 7 0.2617 -0.0004
-4 2 8 0.2924 0.0011
-4 2 9 0.3201 -0.0005
-4 2 10 0.2895 -0.0032
-4 2 11 0.2004 -0.0033
-4 2 12 0.1009 0.0005
-4 2 13 0.0395 0.0052
-4 2 14 0.0249 0.0049
-4 2 15 0.0263 -0.0039
-4 2 16 0.0098 -0.0190
-4 2 17 -0.0309 -0.0332
-4 2 18 -0.0731 -0.0392
-4 3 1 0.5180 0.0061
-4 3 2 0.5863 0.0081
-4 3 3 0.6714 0.0064
-4 3 4 0.7076 0.0025
-4 3 5 0.6744 0.0002
-4 3 6 0.5990 0.0018
-4 3 7 0.5136 0.0054
-4 3 8 0.4175 0.0070
-4 3 9 0.2849 0.0042
-4 3 10 0.1070 -0.0008
-4 3 11 -0.0783 -0.0034
-4 3 12 -0.2030 -0.0009
-4 3 13 -0.2204 0.0047
-4 3 14 -0.1434 0.0080
-4 3 15 -0.0359 0.0054
-4 3 16 0.0353 -0.0025
-4 3 17 0.0445 -0.0106
-4 3 18 0.0138 -0.0136
-4 4 1 0.2776 -0.0026
-4 4 2 0.3970 0.0013
-4 4 3 0.5622 0.0018
-4 4 4 0.6954 -0.0005
-4 4 5 0.7472 -0.0016
-4 4 6 0.7146 0.0011
-4 4 7 0.6171 0.0063
-4 4 8 0.4673 0.0098
-4 4 9 0.2699 0.0085
-4 4 10 0.0472 0.0039
-4 4 11 -0.1460 0.0003
-4 4 12 -0.2434 0.0010
-4 4 13 -0.2126 0.0053
-4 4 14 -0.0861 0.0093
-4 4 15 0.0553 0.0098
-4 4 16 0.1350 0.0071
-4 4 17 0.1286 0.0043
-4 4 18 0.0689 0.0046
-4 4 19 0.0108 0.0081
-4 5 1 0.0572 -0.0077
-4 5 2 0.1461 -0.0041
-4 5 3 0.2873 -0.0039
-4 5 4 0.4125 -0.0068
-4 5 5 0.4721 -0.0090
-4 5 6 0.4566 -0.0070
-4 5 7 0.3828 -0.0012
-4 5 8 0.2703 0.0043
-4 5 9 0.1344 0.0061
-4 5 10 -0.0007 0.0040
-4 5 11 -0.0942 0.0012
-4 5 12 -0.1048 0.0005
-4 5 13 -0.0243 0.0019
-4 5 14 0.1040 0.0032
-4 5 15 0.2048 0.0029
-4 5 16 0.2190 0.0015
-4 5 17 0.1439 0.0016
-4 5 18 0.0317 0.0045
-4 5 19 -0.0510 0.0092
-4 6 1 0.0362 -0.0032
-4 6 2 0.0557 -0.0012
-4 6 3 0.1000 -0.0025
-4 6 4 0.1283 -0.0072
-4 6 5 0.1161 -0.0118
-4 6 6 0.0682 -0.0125
-4 6 7 0.0073 -0.0087
-4 6 8 -0.0456 -0.0032
-4 6 9 -0.0798 0.0004
-4 6 10 -0.0881 0.0012
-4 6 11 -0.0587 0.0004
-4 6 12 0.0165 -0.0004
-4 6 13 0.1245 -0.0011
-4 6 14 0.2228 -0.0029
-4 6 15 0.2573 -0.0057
-4 6 16 0.1990 -0.0077
-4 6 17 0.0700 -0.0069
-4 6 18 -0.0654 -0.0031
-4 7 1 0.1336 0.0029
-4 7 2 0.1329 0.0050
-4 7 3 0.1104 0.0047
-4 7 4 0.0554 0.0010
-4 7 5 -0.0254 -0.0040
-4 7 6 -0.1090 -0.0071
-4 7 7 -0.1684 -0.0069
-4 7 8 -0.1872 -0.0045
-4 7 9 -0.1647 -0.0017
-4 7 10 -0.1094 0.0005
-4 7 11 -0.0311 0.0023
-4 7 12 0.0598 0.0034
-4 7 13 0.1446 0.0030
-4 7 14 0.1944 0.0004
-4 7 15 0.1814 -0.0030
-4 7 16 0.1006 -0.0048
-4 7 17 -0.0175 -0.0031
-4 7 18 -0.1175 0.0010
-4 8 1 0.1306 -0.0025
-4 8 2 0.1740 0.0022
-4 8 3 0.1647 0.0065
-4 8 4 0.1122 0.0081
-4 8 5 0.0421 0.0065
-4 8 6 -0.0173 0.0032
-4 8 7 -0.0471 -0.0002
-4 8 8 -0.0439 -0.0025
-4 8 9 -0.0173 -0.0031
-4 8 10 0.0189 -0.0013
-4 8 11 0.0533 0.0023
-4 8 12 0.0795 0.0061
-4 8 13 0.0922 0.0076
-4 8 14 0.0852 0.0059
-4 8 15 0.0543 0.0032
-4 8 16 0.0048 0.0033
-4 8 17 -0.0451 0.0078
-4 8 18 -0.0700 0.0145
-4 9 1 -0.0083 -0.0176
-4 9 2 0.0749 -0.0111
-4 9 3 0.1094 -0.0020
-4 9 4 0.1141 0.0057
-4 9 5 0.1175 0.0090
-4 9 6 0.1376 0.0069
-4 9 7 0.1727 0.0006
-4 9 8 0.2065 -0.0068
-4 9 9 0.2207 -0.0116
-4 9 10 0.2044 -0.0113
-4 9 11 0.1582 -0.0067
-4 9 12 0.0925 -0.0013
-4 9 13 0.0231 0.0005
-4 9 14 -0.0332 -0.0026
-4 9 15 -0.0634 -0.0070
-4 9 16 -0.0615 -0.0070
-4 9 17 -0.0306 0.0006
-4 10 1 -0.1161 -0.0245
-4 10 2 -0.0503 -0.0198
-4 10 3 -0.0085 -0.0104
-4 10 4 0.0314 -0.0005
-4 10 5 0.0931 0.0051
-4 10 6 0.1791 0.0034
-4 10 7 0.2667 -0.0049
-4 10 8 0.3237 -0.0156
-4 10 9 0.3274 -0.0229
-4 10 10 0.2738 -0.0229
-4 10 11 0.1759 -0.0168
-4 10 12 0.0563 -0.0107
-4 10 13 -0.0574 -0.0112
-4 10 14 -0.1366 -0.0202
-4 10 15 -0.1591 -0.0322
-4 10 16 -0.1197 -0.0379
-4 10 17 -0.0362 -0.0315
-4 11 1 -0.0934 -0.0111
-4 11 2 -0.0752 -0.0118
-4 11 3 -0.0627 -0.0071
-4 11 4 -0.0347 -0.0002
-4 11 5 0.0265 0.0043
-4 11 6 0.1141 0.0024
-4 11 7 0.1972 -0.0060
-4 11 8 0.2414 -0.0166
-4 11 9 0.2295 -0.0225
-4 11 10 0.1668 -0.0192
-4 11 11 0.0717 -0.0090
-4 11 12 -0.0353 -0.0004
-4 11 13 -0.1336 -0.0026
-4 11 14 -0.1999 -0.0185
-4 11 15 -0.2123 -0.0413
-4 11 16 -0.1627 -0.0580
-4 12 1 -0.0334 0.0116
-4 12 2 -0.0335 0.0052
-4 12 3 -0.0376 0.0033
-4 12 4 -0.0314 0.0053
-4 12 5 -0.0033 0.0078
-4 12 6 0.0386 0.0068
-4 12 7 0.0694 0.0010
-4 12 8 0.0674 -0.0059
-4 12 9 0.0312 -0.0072
-4 12 10 -0.0225 0.0019
-4 12 11 -0.0758 0.0186
-4 12 12 -0.1216 0.0330
-4 12 13 -0.1607 0.0335
-4 12 14 -0.1885 0.0155
-4 12 15 -0.1901 -0.0141
-4 13 1 -0.0458 0.0229
-4 13 2 -0.0219 0.0130
-4 13 3 -0.0067 0.0062
-4 13 4 0.0021 0.0046
-4 13 5 0.0085 0.0067
-4 13 6 0.0066 0.0085
-4 13 7 -0.0169 0.0072
-4 13 8 -0.0657 0.0048
-4 13 9 -0.1237 0.0073
-4 13 10 -0.1636 0.0198
-4 13 11 -0.1690 0.0408
-4 13 12 -0.1480 0.0608
-4 13 13 -0.1240 0.0674
-4 14 2 -0.0410 0.0057
-4 14 3 0.0015 -0.0032
-4 14 4 0.0267 -0.0057
-4 14 5 0.0326 -0.0021
-4 14 6 0.0143 0.0034
-4 14 7 -0.0331 0.0062
-4 14 8 -0.1022 0.0059
-4 14 9 -0.1674 0.0075
-4 14 10 -0.1964 0.0167
-4 14 11 -0.1747 0.0348
-3 -16 1 0.1270 -0.0018
-3 -15 1 0.1576 -0.0058
-3 -15 2 0.2895 0.0022
-3 -15 3 0.3426 0.0061
-3 -14 1 0.0300 -0.0098
-3 -14 2 0.1424 -0.0057
-3 -14 3 0.1884 -0.0035
-3 -14 4 0.1495 -0.0049
-3 -14 5 0.0581 -0.0085
-3 -13 1 -0.0968 -0.0082
-3 -13 2 -0.0131 -0.0057
-3 -13 3 0.0185 -0.0037
-3 -13 4 -0.0296 -0.0042
-3 -13 5 -0.1373 -0.0064
-3 -13 6 -0.2468 -0.0084
-3 -13 7 -0.2988 -0.0092
-3 -12 1 -0.1420 -0.0037
-3 -12 2 -0.0456 -0.0016
-3 -12 3 0.0115 0.0008
-3 -12 4 -0.0155 0.0014
-3 -12 5 -0.1294 0.0004
-3 -12 6 -0.2851 -0.0013
-3 -12 7 -0.4138 -0.0031
-3 -12 8 -0.4611 -0.0062
-3 -11 1 -0.2176 -0.0025
-3 -11 2 -0.0694 -0.0012
-3 -11 3 0.0633 0.0009
-3 -11 4 0.1162 0.0023
-3 -11 5 0.0567 0.0028
-3 -11 6 -0.0957 0.0029
-3 -11 7 -0.2766 0.0020
-3 -11 8 -0.4101 -0.0014
-3 -11 9 -0.4460 -0.0083
-3 -11 10 -0.3810 -0.0171
-3 -10 1 -0.3881 -0.0037
-3 -10 2 -0.2229 -0.0043
-3 -10 3 -0.0376 -0.0036
-3 -10 4 0.0995 -0.0022
-3 -10 5 0.1350 -0.0004
-3 -10 6 0.0582 0.0020
-3 -10 7 -0.0891 0.0042
-3 -10 8 -0.2315 0.0036
-3 -10 9 -0.2997 -0.0016
-3 -10 10 -0.2671 -0.0106
-3 -10 11 -0.1602 -0.0187
-3 -9 1 -0.4593 -0.0016
-3 -9 2 -0.3756 -0.0036
-3 -9 3 -0.2513 -0.0044
-3 -9 4 -0.1285 -0.0041
-3 -9 5 -0.0545 -0.0025
-3 -9 6 -0.0580 0.0009
-3 -9 7 -0.1269 0.0055
-3 -9 8 -0.2086 0.0083
-3 -9 9 -0.2387 0.0064
-3 -9 10 -0.1825 -0.0003
-3 -9 11 -0.0582 -0.0077
-3 -9 12 0.0752 -0.0103
-3 -8 1 -0.1968 0.0047
-3 -8 2 -0.2646 0.0034
-3 -8 3 -0.3115 0.0023
-3 -8 4 -0.3288 0.0013
-3 -8 5 -0.3290 0.0010
-3 -8 6 -0.3381 0.0030
-3 -8 7 -0.3688 0.0071
-3 -8 8 -0.4004 0.0110
-3 -8 9 -0.3892 0.0112
-3 -8 10 -0.3036 0.0066
-3 -8 11 -0.1552 0.0005
-3 -8 12 0.0025 -0.0013
-3 -8 13 0.1077 0.0040
-3 -7 1 0.2958 0.0086
-3 -7 2 0.0962 0.0099
-3 -7 3 -0.1253 0.0099
-3 -7 4 -0.3088 0.0083
-3 -7 5 -0.4240 0.0062
-3 -7 6 -0.4837 0.0056
-3 -7 7 -0.5192 0.0076
-3 -7 8 -0.5431 0.0105
-3 -7 9 -0.5363 0.0107
-3 -7 10 -0.4712 0.0064
-3 -7 11 -0.3468 0.0003
-3 -7 12 -0.2008 -0.0017
-3 -7 13 -0.0867 0.0041
-3 -7 14 -0.0356 0.0154
-3 -6 1 0.6496 0.0048
-3 -6 2 0.3826 0.0081
-3 -6 3 0.0774 0.0097
-3 -6 4 -0.1782 0.0088
-3 -6 5 -0.3291 0.0064
-3 -6 6 -0.3828 0.0049
-3 -6 7 -0.3906 0.0059
-3 -6 8 -0.3980 0.0080
-3 -6 9 -0.4103 0.0077
-3 -6 10 -0.4006 0.0027
-3 -6 11 -0.3467 -0.0047
-3 -6 12 -0.2597 -0.0085
-3 -6 13 -0.1763 -0.0041
-3 -6 14 -0.1266 0.0073
-3 -6 15 -0.1095 0.0188
-3 -5 1 0.7364 -0.0037
-3 -5 2 0.4335 -0.0005
-3 -5 3 0.1264 0.0018
-3 -5 4 -0.1010 0.0021
-3 -5 5 -0.1954 0.0011
-3 -5 6 -0.1717 0.0010
-3 -5 7 -0.1013 0.0033
-3 -5 8 -0.0578 0.0065
-3 -5 9 -0.0671 0.0070
-3 -5 10 -0.1013 0.0021
-3 -5 11 -0.1156 -0.0062
-3 -5 12 -0.0916 -0.0121
-3 -5 13 -0.0472 -0.0101
-3 -5 14 -0.0128 -0.0003
-3 -5 15 -0.0014 0.0111
-3 -4 1 0.8812 -0.0088
-3 -4 2 0.5456 -0.0074
-3 -4 3 0.2543 -0.0057
-3 -4 4 0.0619 -0.0049
-3 -4 5 0.0044 -0.0044
-3 -4 6 0.0620 -0.0025
-3 -4 7 0.1597 0.0017
-3 -4 8 0.2146 0.0067
-3 -4 9 0.1914 0.0087
-3 -4 10 0.1194 0.0052
-3 -4 11 0.0592 -0.0023
-3 -4 12 0.0511 -0.0083
-3 -4 13 0.0891 -0.0076
-3 -4 14 0.1366 0.0004
-3 -4 15 0.1613 0.0102
-3 -4 16 0.1552 0.0151
-3 -3 1 1.3981 -0.0066
-3 -3 2 1.0757 -0.0067
-3 -3 3 0.8036 -0.0063
-3 -3 4 0.5937 -0.0060
-3 -3 5 0.4659 -0.0053
-3 -3 6 0.4154 -0.0030
-3 -3 7 0.3958 0.0015
-3 -3 8 0.3451 0.0067
-3 -3 9 0.2346 0.0094
-3 -3 10 0.0937 0.0075
-3 -3 11 -0.0133 0.0024
-3 -3 12 -0.0382 -0.0014
-3 -3 13 0.0160 0.0003
-3 -3 14 0.1030 0.0071
-3 -3 15 0.1709 0.0144
-3 -3 16 0.1927 0.0161
-3 -3 17 0.1707 0.0105
-3 -2 1 2.0623 -0.0008
-3 -2 2 1.8506 -0.0010
-3 -2 3 1.6416 -0.0012
-3 -2 4 1.4014 -0.0018
-3 -2 5 1.1437 -0.0020
-3 -2 6 0.9002 -0.0007
-3 -2 7 0.6805 0.0023
-3 -2 8 0.4658 0.0059
-3 -2 9 0.2409 0.0077
-3 -2 10 0.0266 0.0068
-3 -2 11 -0.1265 0.0045
-3 -2 12 -0.1770 0.0041
-3 -2 13 -0.1289 0.0075
-3 -2 14 -0.0312 0.0134
-3 -2 15 0.0562 0.0168
-3 -2 16 0.0981 0.0133
-3 -2 17 0.0945 0.0029
-3 -1 1 2.2961 0.0016
-3 -1 2 2.2528 0.0024
-3 -1 3 2.1532 0.0025
-3 -1 4 1.9276 0.0015
-3 -1 5 1.5920 0.0007
-3 -1 6 1.2221 0.0010
-3 -1 7 0.8869 0.0028
-3 -1 8 0.6080 0.0047
-3 -1 9 0.3731 0.0056
-3 -1 10 0.1752 0.0052
-3 -1 11 0.0315 0.0052
-3 -1 12 -0.0356 0.0075
-3 -1 13 -0.0294 0.0122
-3 -1 14 0.0127 0.0161
-3 -1 15 0.0437 0.0145
-3 -1 16 0.0392 0.0047
-3 -1 17 0.0086 -0.0110
-3 -1 18 -0.0209 -0.0256
-3 0 1 1.8654 -0.0011
-3 0 2 1.9361 0.0006
-3 0 3 1.9239 0.0007
-3 0 4 1.7436 -0.0005
-3 0 5 1.4191 -0.0017
-3 0 6 1.0588 -0.0013
-3 0 7 0.7714 0.0004
-3 0 8 0.5977 0.0021
-3 0 9 0.5085 0.0027
-3 0 10 0.4530 0.0028
-3 0 11 0.4032 0.0042
-3 0 12 0.3588 0.0082
-3 0 13 0.3216 0.0130
-3 0 14 0.2772 0.0145
-3 0 15 0.2051 0.0082
-3 0 16 0.1030 -0.0070
-3 0 17 -0.0029 -0.0264
-3 0 18 -0.0737 -0.0418
-3 1 1 1.1527 -0.0029
-3 1 2 1.2279 -0.0015
-3 1 3 1.2295 -0.0023
-3 1 4 1.0775 -0.0048
-3 1 5 0.8014 -0.0069
-3 1 6 0.5209 -0.0067
-3 1 7 0.3562 -0.0047
-3 1 8 0.3464 -0.0030
-3 1 9 0.4390 -0.0027
-3 1 10 0.5448 -0.0028
-3 1 11 0.6021 -0.0010
-3 1 12 0.5983 0.0035
-3 1 13 0.5463 0.0085
-3 1 14 0.4553 0.0088
-3 1 15 0.3257 0.0002
-3 1 16 0.1672 -0.0171
-3 1 17 0.0125 -0.0372
-3 1 18 -0.0944 -0.0512
-3 2 1 0.6648 0.0017
-3 2 2 0.6980 0.0026
-3 2 3 0.6823 0.0004
-3 2 4 0.5504 -0.0039
-3 2 5 0.3255 -0.0077
-3 2 6 0.1127 -0.0086
-3 2 7 0.0189 -0.0073
-3 2 8 0.0741 -0.0063
-3 2 9 0.2168 -0.0071
-3 2 10 0.3508 -0.0086
-3 2 11 0.4140 -0.0079
-3 2 12 0.4047 -0.0037
-3 2 13 0.3549 0.0017
-3 2 14 0.2882 0.0031
-3 2 15 0.2051 -0.0041
-3 2 16 0.1009 -0.0193
-3 2 17 -0.0106 -0.0368
-3 2 18 -0.0956 -0.0485
-3 2 19 -0.1247 -0.0485
-3 3 1 0.4805 0.0090
-3 3 2 0.5114 0.0105
-3 3 3 0.5251 0.0084
-3 3 4 0.4612 0.0034
-3 3 5 0.3188 -0.0014
-3 3 6 0.1644 -0.0033
-3 3 7 0.0744 -0.0026
-3 3 8 0.0701 -0.0022
-3 3 9 0.1038 -0.0042
-3 3 10 0.1076 -0.0074
-3 3 11 0.0531 -0.0086
-3 3 12 -0.0291 -0.0055
-3 3 13 -0.0847 0.0002
-3 3 14 -0.0862 0.0035
-3 3 15 -0.0527 0.0001
-3 3 16 -0.0255 -0.0101
-3 3 17 -0.0281 -0.0226
-3 3 18 -0.0498 -0.0312
-3 3 19 -0.0621 -0.0316
-3 4 1 0.3418 0.0087
-3 4 2 0.4040 0.0122
-3 4 3 0.4929 0.0120
-3 4 4 0.5472 0.0082
-3 4 5 0.5328 0.0042
-3 4 6 0.4661 0.0031
-3 4 7 0.3850 0.0047
-3 4 8 0.3029 0.0061
-3 4 9 0.1967 0.0047
-3 4 10 0.0411 0.0011
-3 4 11 -0.1483 -0.0014
-3 4 12 -0.3083 -0.0000
-3 4 13 -0.3699 0.0044
-3 4 14 -0.3112 0.0083
-3 4 15 -0.1756 0.0080
-3 4 16 -0.0399 0.0031
-3 4 17 0.0385 -0.0036
-3 4 18 0.0524 -0.0081
-3 4 19 0.0333 -0.0084
-3 5 1 0.1273 -0.0007
-3 5 2 0.1831 0.0039
-3 5 3 0.3104 0.0053
-3 5 4 0.4510 0.0032
-3 5 5 0.5465 0.0005
-3 5 6 0.5738 0.0008
-3 5 7 0.5380 0.0042
-3 5 8 0.4458 0.0080
-3 5 9 0.2937 0.0089
-3 5 10 0.0872 0.0068
-3 5 11 -0.1334 0.0042
-3 5 12 -0.2953 0.0038
-3 5 13 -0.3339 0.0056
-3 5 14 -0.2395 0.0076
-3 5 15 -0.0703 0.0077
-3 5 16 0.0831 0.0059
-3 5 17 0.1548 0.0042
-3 5 18 0.1381 0.0044
-3 5 19 0.0756 0.0063
-3 6 1 -0.0165 -0.0078
-3 6 2 -0.0209 -0.0044
-3 6 3 0.0618 -0.0036
-3 6 4 0.1871 -0.0059
-3 6 5 0.2970 -0.0085
-3 6 6 0.3552 -0.0082
-3 6 7 0.3538 -0.0044
-3 6 8 0.2979 0.0004
-3 6 9 0.1939 0.0033
-3 6 10 0.0560 0.0033
-3 6 11 -0.0798 0.0019
-3 6 12 -0.1605 0.0010
-3 6 13 -0.1450 0.0006
-3 6 14 -0.0383 -0.0001
-3 6 15 0.1022 -0.0016
-3 6 16 0.1983 -0.0027
-3 6 17 0.2014 -0.0015
-3 6 18 0.1214 0.0022
-3 6 19 0.0142 0.0065
-3 7 1 0.0138 -0.0036
-3 7 2 -0.0325 -0.0026
-3 7 3 -0.0215 -0.0033
-3 7 4 0.0224 -0.0062
-3 7 5 0.0621 -0.0095
-3 7 6 0.0746 -0.0107
-3 7 7 0.0587 -0.0091
-3 7 8 0.0251 -0.0061
-3 7 9 -0.0160 -0.0036
-3 7 10 -0.0558 -0.0022
-3 7 11 -0.0800 -0.0011
-3 7 12 -0.0683 0.0000
-3 7 13 -0.0086 0.0004
-3 7 14 0.0849 -0.0008
-3 7 15 0.1687 -0.0030
-3 7 16 0.1931 -0.0041
-3 7 17 0.1364 -0.0020
-3 7 18 0.0235 0.0026
-3 7 19 -0.0869 0.0064
-3 8 1 0.0835 0.0036
-3 8 2 0.0727 0.0039
-3 8 3 0.0672 0.0040
-3 8 4 0.0582 0.0030
-3 8 5 0.0350 0.0012
-3 8 6 -0.0034 -0.0006
-3 8 7 -0.0456 -0.0019
-3 8 8 -0.0757 -0.0029
-3 8 9 -0.0839 -0.0030
-3 8 10 -0.0703 -0.0013
-3 8 11 -0.0401 0.0029
-3 8 12 0.0022 0.0087
-3 8 13 0.0522 0.0132
-3 8 14 0.0990 0.0146
-3 8 15 0.1230 0.0134
-3 8 16 0.1047 0.0129
-3 8 17 0.0409 0.0152
-3 8 18 -0.0450 0.0193
-3 8 19 -0.1119 0.0207
-3 9 1 0.0291 -0.0013
-3 9 2 0.0932 0.0006
-3 9 3 0.1284 0.0043
-3 9 4 0.1343 0.0084
-3 9 5 0.1185 0.0111
-3 9 6 0.0934 0.0111
-3 9 7 0.0730 0.0078
-3 9 8 0.0677 0.0028
-3 9 9 0.0796 -0.0009
-3 9 10 0.1010 0.0001
-3 9 11 0.1179 0.0071
-3 9 12 0.1192 0.0174
-3 9 13 0.1027 0.0260
-3 9 14 0.0750 0.0293
-3 9 15 0.0446 0.0283
-3 9 16 0.0164 0.0272
-3 9 17 -0.0082 0.0296
-3 9 18 -0.0264 0.0344
-3 10 1 -0.0984 -0.0165
-3 10 2 -0.0050 -0.0133
-3 10 3 0.0604 -0.0065
-3 10 4 0.1024 0.0020
-3 10 5 0.1371 0.0090
-3 10 6 0.1773 0.0112
-3 10 7 0.2257 0.0071
-3 10 8 0.2757 -0.0011
-3 10 9 0.3153 -0.0079
-3 10 10 0.3300 -0.0080
-3 10 11 0.3062 0.0002
-3 10 12 0.2387 0.0123
-3 10 13 0.1387 0.0207
-3 10 14 0.0347 0.0207
-3 10 15 -0.0389 0.0138
-3 10 16 -0.0603 0.0073
-3 10 17 -0.0322 0.0078
-3 10 18 0.0213 0.0154
-3 11 1 -0.1377 -0.0215
-3 11 2 -0.0827 -0.0198
-3 11 3 -0.0365 -0.0143
-3 11 4 0.0103 -0.0062
-3 11 5 0.0762 0.0010
-3 11 6 0.1681 0.0031
-3 11 7 0.2734 -0.0019
-3 11 8 0.3676 -0.0117
-3 11 9 0.4264 -0.0198
-3 11 10 0.4323 -0.0199
-3 11 11 0.3765 -0.0110
-3 11 12 0.2617 0.0007
-3 11 13 0.1090 0.0050
-3 11 14 -0.0400 -0.0039
-3 11 15 -0.1361 -0.0229
-3 11 16 -0.1477 -0.0409
-3 11 17 -0.0810 -0.0466
-3 12 1 -0.0739 -0.0027
-3 12 2 -0.0665 -0.0048
-3 12 3 -0.0542 -0.0052
-3 12 4 -0.0261 -0.0030
-3 12 5 0.0342 -0.0001
-3 12 6 0.1282 -0.0001
-3 12 7 0.2351 -0.0057
-3 12 8 0.3234 -0.0148
-3 12 9 0.3681 -0.0214
-3 12 10 0.3576 -0.0190
-3 12 11 0.2906 -0.0075
-3 12 12 0.1730 0.0051
-3 12 13 0.0235 0.0066
-3 12 14 -0.1204 -0.0103
-3 12 15 -0.2109 -0.0413
-3 12 16 -0.2139 -0.0719
-3 13 1 -0.0438 0.0272
-3 13 2 -0.0382 0.0210
-3 13 3 -0.0249 0.0133
-3 13 4 0.0004 0.0079
-3 13 5 0.0475 0.0057
-3 13 6 0.1140 0.0040
-3 13 7 0.1798 -0.0003
-3 13 8 0.2202 -0.0064
-3 13 9 0.2224 -0.0093
-3 13 10 0.1892 -0.0030
-3 13 11 0.1292 0.0127
-3 13 12 0.0474 0.0292
-3 13 13 -0.0504 0.0333
-3 13 14 -0.1458 0.0164
-3 13 15 -0.2059 -0.0179
-3 14 1 -0.1113 0.0435
-3 14 2 -0.0732 0.0343
-3 14 3 -0.0274 0.0214
-3 14 4 0.0190 0.0111
-3 14 5 0.0661 0.0064
-3 14 6 0.1081 0.0057
-3 14 7 0.1300 0.0049
-3 14 8 0.1190 0.0026
-3 14 9 0.0786 0.0025
-3 14 10 0.0278 0.0101
-3 14 11 -0.0148 0.0273
-3 14 12 -0.0463 0.0471
-3 14 13 -0.0759 0.0573
-3 15 4 0.0095 0.0009
-3 15 5 0.0574 -0.0024
-3 15 6 0.0853 0.0005
-3 15 7 0.0824 0.0042
-3 15 8 0.0442 0.0048
-3 15 9 -0.0163 0.0040
-2 -15 1 0.1018 0.0044
-2 -15 2 0.2476 0.0186
-2 -15 3 0.3275 0.0262
-2 -14 1 0.0726 -0.0003
-2 -14 2 0.2211 0.0077
-2 -14 3 0.3131 0.0117
-2 -14 4 0.3197 0.0098
-2 -14 5 0.2596 0.0040
-2 -13 1 -0.0686 -0.0069
-2 -13 2 0.0338 -0.0034
-2 -13 3 0.0981 -0.0019
-2 -13 4 0.0973 -0.0036
-2 -13 5 0.0412 -0.0072
-2 -13 6 -0.0285 -0.0103
-2 -13 7 -0.0675 -0.0114
-2 -12 1 -0.1666 -0.0061
-2 -12 2 -0.1145 -0.0047
-2 -12 3 -0.0833 -0.0043
-2 -12 4 -0.1014 -0.0056
-2 -12 5 -0.1733 -0.0077
-2 -12 6 -0.2717 -0.0094
-2 -12 7 -0.3520 -0.0103
-2 -12 8 -0.3780 -0.0112
-2 -11 1 -0.2141 -0.0004
-2 -11 2 -0.1691 0.0002
-2 -11 3 -0.1219 0.0005
-2 -11 4 -0.1106 -0.0000
-2 -11 5 -0.1652 -0.0010
-2 -11 6 -0.2847 -0.0018
-2 -11 7 -0.4324 -0.0032
-2 -11 8 -0.5523 -0.0065
-2 -11 9 -0.5961 -0.0127
-2 -11 10 -0.5449 -0.0201
-2 -10 1 -0.3306 0.0020
-2 -10 2 -0.2666 0.0019
-2 -10 3 -0.1594 0.0020
-2 -10 4 -0.0591 0.0024
-2 -10 5 -0.0253 0.0032
-2 -10 6 -0.0935 0.0042
-2 -10 7 -0.2502 0.0041
-2 -10 8 -0.4334 0.0006
-2 -10 9 -0.5628 -0.0078
-2 -10 10 -0.5812 -0.0193
-2 -10 11 -0.4824 -0.0289
-2 -9 1 -0.4819 0.0005
-2 -9 2 -0.4378 -0.0011
-2 -9 3 -0.3074 -0.0018
-2 -9 4 -0.1382 -0.0011
-2 -9 5 -0.0037 0.0010
-2 -9 6 0.0298 0.0042
-2 -9 7 -0.0566 0.0068
-2 -9 8 -0.2158 0.0059
-2 -9 9 -0.3578 -0.0009
-2 -9 10 -0.4008 -0.0125
-2 -9 11 -0.3187 -0.0239
-2 -9 12 -0.1533 -0.0290
-2 -8 1 -0.4083 0.0013
-2 -8 2 -0.4495 -0.0014
-2 -8 3 -0.4012 -0.0033
-2 -8 4 -0.2817 -0.0038
-2 -8 5 -0.1455 -0.0025
-2 -8 6 -0.0638 0.0008
-2 -8 7 -0.0804 0.0048
-2 -8 8 -0.1767 0.0068
-2 -8 9 -0.2767 0.0039
-2 -8 10 -0.2959 -0.0041
-2 -8 11 -0.1985 -0.0131
-2 -8 12 -0.0217 -0.0171
-2 -8 13 0.1504 -0.0127
-2 -7 1 0.0524 0.0059
-2 -7 2 -0.0944 0.0039
-2 -7 3 -0.2069 0.0016
-2 -7 4 -0.2560 -0.0006
-2 -7 5 -0.2466 -0.0021
-2 -7 6 -0.2246 -0.0018
-2 -7 7 -0.2425 0.0006
-2 -7 8 -0.3115 0.0034
-2 -7 9 -0.3852 0.0037
-2 -7 10 -0.3921 0.0003
-2 -7 11 -0.2934 -0.0041
-2 -7 12 -0.1176 -0.0044
-2 -7 13 0.0567 0.0029
-2 -7 14 0.1543 0.0155
-2 -6 1 0.6993 0.0072
-2 -6 2 0.4760 0.0081
-2 -6 3 0.2098 0.0075
-2 -6 4 -0.0241 0.0047
-2 -6 5 -0.1736 0.0007
-2 -6 6 -0.2472 -0.0026
-2 -6 7 -0.2967 -0.0034
-2 -6 8 -0.3637 -0.0018
-2 -6 9 -0.4386 -0.0002
-2 -6 10 -0.4706 -0.0005
-2 -6 11 -0.4183 -0.0015
-2 -6 12 -0.2920 0.0011
-2 -6 13 -0.1518 0.0104
-2 -6 14 -0.0628 0.0247
-2 -6 15 -0.0481 0.0370
-2 -5 1 1.2043 0.0002
-2 -5 2 0.9182 0.0044
-2 -5 3 0.5500 0.0066
-2 -5 4 0.2033 0.0054
-2 -5 5 -0.0310 0.0012
-2 -5 6 -0.1340 -0.0034
-2 -5 7 -0.1608 -0.0056
-2 -5 8 -0.1857 -0.0048
-2 -5 9 -0.2402 -0.0029
-2 -5 10 -0.2974 -0.0022
-2 -5 11 -0.3106 -0.0026
-2 -5 12 -0.2640 -0.0005
-2 -5 13 -0.1891 0.0076
-2 -5 14 -0.1347 0.0206
-2 -5 15 -0.1238 0.0325
-2 -5 16 -0.1374 0.0362
-2 -4 1 1.5514 -0.0096
-2 -4 2 1.1768 -0.0042
-2 -4 3 0.7382 -0.0001
-2 -4 4 0.3427 0.0007
-2 -4 5 0.0923 -0.0015
-2 -4 6 0.0158 -0.0045
-2 -4 7 0.0516 -0.0056
-2 -4 8 0.0976 -0.0039
-2 -4 9 0.0867 -0.0013
-2 -4 10 0.0243 -0.0007
-2 -4 11 -0.0369 -0.0021
-2 -4 12 -0.0540 -0.0027
-2 -4 13 -0.0293 0.0014
-2 -4 14 0.0019 0.0106
-2 -4 15 0.0102 0.0201
-2 -4 16 -0.0021 0.0234
-2 -3 1 2.0171 -0.0115
-2 -3 2 1.5584 -0.0078
-2 -3 3 1.0733 -0.0045
-2 -3 4 0.6464 -0.0032
-2 -3 5 0.3671 -0.0041
-2 -3 6 0.2666 -0.0051
-2 -3 7 0.2889 -0.0041
-2 -3 8 0.3277 -0.0009
-2 -3 9 0.3012 0.0024
-2 -3 10 0.2043 0.0031
-2 -3 11 0.0954 0.0007
-2 -3 12 0.0385 -0.0020
-2 -3 13 0.0513 -0.0012
-2 -3 14 0.1024 0.0040
-2 -3 15 0.1466 0.0104
-2 -3 16 0.1604 0.0124
-2 -3 17 0.1488 0.0077
-2 -2 1 2.6696 -0.0023
-2 -2 2 2.2256 -0.0016
-2 -2 3 1.7681 -0.0011
-2 -2 4 1.3354 -0.0017
-2 -2 5 0.9887 -0.0031
-2 -2 6 0.7660 -0.0037
-2 -2 7 0.6415 -0.0021
-2 -2 8 0.5383 0.0014
-2 -2 9 0.3889 0.0046
-2 -2 10 0.1904 0.0053
-2 -2 11 0.0042 0.0031
-2 -2 12 -0.0969 0.0005
-2 -2 13 -0.0862 0.0006
-2 -2 14 0.0014 0.0039
-2 -2 15 0.1013 0.0077
-2 -2 16 0.1641 0.0076
-2 -2 17 0.1763 0.0019
-2 -1 1 3.1090 0.0086
-2 -1 2 2.8181 0.0073
-2 -1 3 2.5008 0.0055
-2 -1 4 2.1343 0.0028
-2 -1 5 1.7459 0.0004
-2 -1 6 1.3870 -0.0007
-2 -1 7 1.0808 0.0005
-2 -1 8 0.8032 0.0032
-2 -1 9 0.5168 0.0055
-2 -1 10 0.2213 0.0059
-2 -1 11 -0.0320 0.0047
-2 -1 12 -0.1776 0.0039
-2 -1 13 -0.1897 0.0053
-2 -1 14 -0.1050 0.0084
-2 -1 15 0.0040 0.0101
-2 -1 16 0.0764 0.0069
-2 -1 17 0.0921 -0.0016
-2 -1 18 0.0663 -0.0114
-2 0 1 2.8843 0.0094
-2 0 2 2.7981 0.0082
-2 0 3 2.6747 0.0062
-2 0 4 2.4367 0.0035
-2 0 5 2.0823 0.0014
-2 0 6 1.6794 0.0010
-2 0 7 1.3019 0.0025
-2 0 8 0.9773 0.0047
-2 0 9 0.6904 0.0061
-2 0 10 0.4272 0.0062
-2 0 11 0.2067 0.0060
-2 0 12 0.0682 0.0072
-2 0 13 0.0292 0.0104
-2 0 14 0.0601 0.0136
-2 0 15 0.1003 0.0131
-2 0 16 0.1006 0.0064
-2 0 17 0.0529 -0.0055
-2 0 18 -0.0136 -0.0175
-2 1 1 2.0611 -0.0005
-2 1 2 2.1042 -0.0005
-2 1 3 2.1143 -0.0013
-2 1 4 1.9850 -0.0025
-2 1 5 1.7009 -0.0031
-2 1 6 1.3448 -0.0018
-2 1 7 1.0280 0.0009
-2 1 8 0.8115 0.0033
-2 1 9 0.6834 0.0041
-2 1 10 0.5977 0.0036
-2 1 11 0.5253 0.0037
-2 1 12 0.4682 0.0063
-2 1 13 0.4341 0.0108
-2 1 14 0.4078 0.0141
-2 1 15 0.3544 0.0120
-2 1 16 0.2495 0.0027
-2 1 17 0.1063 -0.0115
-2 1 18 -0.0291 -0.0246
-2 1 19 -0.1089 -0.0301
-2 2 1 1.1725 -0.0089
-2 2 2 1.2404 -0.0082
-2 2 3 1.2798 -0.0081
-2 2 4 1.1864 -0.0088
-2 2 5 0.9448 -0.0088
-2 2 6 0.6463 -0.0071
-2 2 7 0.4195 -0.0042
-2 2 8 0.3384 -0.0022
-2 2 9 0.3842 -0.0026
-2 2 10 0.4803 -0.0045
-2 2 11 0.5577 -0.0050
-2 2 12 0.5911 -0.0021
-2 2 13 0.5857 0.0033
-2 2 14 0.5449 0.0074
-2 2 15 0.4570 0.0055
-2 2 16 0.3144 -0.0039
-2 2 17 0.1379 -0.0180
-2 2 18 -0.0226 -0.0304
-2 2 19 -0.1156 -0.0351
-2 3 1 0.6324 -0.0055
-2 3 2 0.6925 -0.0043
-2 3 3 0.7222 -0.0044
-2 3 4 0.6362 -0.0061
-2 3 5 0.4213 -0.0078
-2 3 6 0.1611 -0.0079
-2 3 7 -0.0226 -0.0067
-2 3 8 -0.0585 -0.0063
-2 3 9 0.0316 -0.0085
-2 3 10 0.1633 -0.0121
-2 3 11 0.2600 -0.0140
-2 3 12 0.2976 -0.0115
-2 3 13 0.2959 -0.0055
-2 3 14 0.2776 -0.0001
-2 3 15 0.2420 -0.0000
-2 3 16 0.1745 -0.0070
-2 3 17 0.0759 -0.0185
-2 3 18 -0.0243 -0.0290
-2 3 19 -0.0845 -0.0333
-2 4 1 0.3889 0.0048
-2 4 2 0.4606 0.0072
-2 4 3 0.5113 0.0073
-2 4 4 0.4770 0.0045
-2 4 5 0.3377 0.0007
-2 4 6 0.1468 -0.0016
-2 4 7 -0.0060 -0.0021
-2 4 8 -0.0658 -0.0028
-2 4 9 -0.0513 -0.0056
-2 4 10 -0.0286 -0.0099
-2 4 11 -0.0487 -0.0126
-2 4 12 -0.1062 -0.0111
-2 4 13 -0.1528 -0.0056
-2 4 14 -0.1472 0.0002
-2 4 15 -0.0914 0.0022
-2 4 16 -0.0251 -0.0015
-2 4 17 0.0122 -0.0089
-2 4 18 0.0131 -0.0163
-2 4 19 0.0012 -0.0203
-2 5 1 0.1921 0.0079
-2 5 2 0.2585 0.0122
-2 5 3 0.3408 0.0135
-2 5 4 0.3953 0.0108
-2 5 5 0.3871 0.0066
-2 5 6 0.3259 0.0040
-2 5 7 0.2523 0.0040
-2 5 8 0.1932 0.0047
-2 5 9 0.1332 0.0036
-2 5 10 0.0339 0.0007
-2 5 11 -0.1182 -0.0019
-2 5 12 -0.2824 -0.0016
-2 5 13 -0.3841 0.0016
-2 5 14 -0.3691 0.0055
-2 5 15 -0.2458 0.0072
-2 5 16 -0.0793 0.0057
-2 5 17 0.0545 0.0025
-2 5 18 0.1158 -0.0006
-2 5 19 0.1146 -0.0025
-2 6 1 -0.0098 0.0001
-2 6 2 -0.0113 0.0051
-2 6 3 0.0505 0.0069
-2 6 4 0.1528 0.0050
-2 6 5 0.2516 0.0018
-2 6 6 0.3186 0.0005
-2 6 7 0.3492 0.0023
-2 6 8 0.3421 0.0054
-2 6 9 0.2821 0.0072
-2 6 10 0.1514 0.0065
-2 6 11 -0.0384 0.0047
-2 6 12 -0.2298 0.0035
-2 6 13 -0.3413 0.0034
-2 6 14 -0.3191 0.0035
-2 6 15 -0.1763 0.0028
-2 6 16 0.0118 0.0018
-2 6 17 0.1555 0.0020
-2 6 18 0.2041 0.0038
-2 6 19 0.1671 0.0059
-2 7 1 -0.0923 -0.0062
-2 7 2 -0.1819 -0.0034
-2 7 3 -0.1892 -0.0028
-2 7 4 -0.1169 -0.0049
-2 7 5 -0.0043 -0.0074
-2 7 6 0.1059 -0.0078
-2 7 7 0.1866 -0.0053
-2 7 8 0.2226 -0.0017
-2 7 9 0.2011 0.0008
-2 7 10 0.1152 0.0010
-2 7 11 -0.0193 -0.0002
-2 7 12 -0.1536 -0.0017
-2 7 13 -0.2235 -0.0035
-2 7 14 -0.1882 -0.0059
-2 7 15 -0.0622 -0.0084
-2 7 16 0.0880 -0.0093
-2 7 17 0.1840 -0.0066
-2 7 18 0.1846 -0.0011
-2 7 19 0.1068 0.0043
-2 8 1 -0.0421 -0.0014
-2 8 2 -0.1480 -0.0018
-2 8 3 -0.1959 -0.0032
-2 8 4 -0.1776 -0.0053
-2 8 5 -0.1176 -0.0070
-2 8 6 -0.0496 -0.0073
-2 8 7 0.0026 -0.0062
-2 8 8 0.0285 -0.0052
-2 8 9 0.0241 -0.0054
-2 8 10 -0.0119 -0.0062
-2 8 11 -0.0716 -0.0064
-2 8 12 -0.1303 -0.0055
-2 8 13 -0.1529 -0.0045
-2 8 14 -0.1155 -0.0047
-2 8 15 -0.0280 -0.0056
-2 8 16 0.0651 -0.0049
-2 8 17 0.1104 -0.0006
-2 8 18 0.0820 0.0061
-2 8 19 -0.0003 0.0109
-2 9 1 -0.0120 0.0061
-2 9 2 -0.0410 0.0042
-2 9 3 -0.0548 0.0029
-2 9 4 -0.0465 0.0029
-2 9 5 -0.0258 0.0039
-2 9 6 -0.0078 0.0050
-2 9 7 -0.0009 0.0046
-2 9 8 -0.0038 0.0017
-2 9 9 -0.0113 -0.0026
-2 9 10 -0.0221 -0.0051
-2 9 11 -0.0388 -0.0032
-2 9 12 -0.0599 0.0032
-2 9 13 -0.0744 0.0110
-2 9 14 -0.0680 0.0168
-2 9 15 -0.0370 0.0201
-2 9 16 0.0026 0.0231
-2 9 17 0.0228 0.0280
-2 9 18 0.0053 0.0337
-2 9 19 -0.0415 0.0354
-2 10 1 -0.0878 0.0019
-2 10 2 -0.0280 0.0007
-2 10 3 0.0213 0.0018
-2 10 4 0.0599 0.0058
-2 10 5 0.0883 0.0113
-2 10 6 0.1064 0.0154
-2 10 7 0.1164 0.0149
-2 10 8 0.1237 0.0093
-2 10 9 0.1335 0.0020
-2 10 10 0.1432 -0.0012
-2 10 11 0.1409 0.0037
-2 10 12 0.1142 0.0159
-2 10 13 0.0634 0.0301
-2 10 14 0.0064 0.0402
-2 10 15 -0.0320 0.0446
-2 10 16 -0.0381 0.0462
-2 10 17 -0.0198 0.0490
-2 10 18 0.0011 0.0530
-2 11 1 -0.1694 -0.0105
-2 11 2 -0.0917 -0.0107
-2 11 3 -0.0232 -0.0082
-2 11 4 0.0326 -0.0020
-2 11 5 0.0833 0.0062
-2 11 6 0.1363 0.0124
-2 11 7 0.1938 0.0123
-2 11 8 0.2532 0.0057
-2 11 9 0.3081 -0.0026
-2 11 10 0.3463 -0.0053
-2 11 11 0.3487 0.0023
-2 11 12 0.2978 0.0178
-2 11 13 0.1941 0.0332
-2 11 14 0.0664 0.0403
-2 11 15 -0.0380 0.0372
-2 11 16 -0.0796 0.0296
-2 11 17 -0.0528 0.0250
-2 11 18 0.0120 0.0267
-2 12 1 -0.1461 -0.0104
-2 12 2 -0.1122 -0.0113
-2 12 3 -0.0748 -0.0112
-2 12 4 -0.0352 -0.0080
-2 12 5 0.0188 -0.0023
-2 12 6 0.0970 0.0022
-2 12 7 0.1959 0.0013
-2 12 8 0.3002 -0.0054
-2 12 9 0.3906 -0.0130
-2 12 10 0.4464 -0.0139
-2 12 11 0.4461 -0.0041
-2 12 12 0.3737 0.0120
-2 12 13 0.2328 0.0238
-2 12 14 0.0595 0.0215
-2 12 15 -0.0855 0.0041
-2 12 16 -0.1473 -0.0193
-2 12 17 -0.1117 -0.0360
-2 13 1 -0.0721 0.0129
-2 13 2 -0.0731 0.0098
-2 13 3 -0.0617 0.0041
-2 13 4 -0.0384 -0.0003
-2 13 5 0.0092 -0.0016
-2 13 6 0.0893 -0.0018
-2 13 7 0.1934 -0.0045
-2 13 8 0.2991 -0.0106
-2 13 9 0.3826 -0.0161
-2 13 10 0.4250 -0.0141
-2 13 11 0.4112 -0.0020
-2 13 12 0.3306 0.0147
-2 13 13 0.1875 0.0235
-2 13 14 0.0144 0.0133
-2 13 15 -0.1312 -0.0163
-2 13 16 -0.1937 -0.0538
-2 14 1 -0.0750 0.0428
-2 14 2 -0.0658 0.0376
-2 14 3 -0.0398 0.0257
-2 14 4 -0.0026 0.0134
-2 14 5 0.0518 0.0052
-2 14 6 0.1266 0.0011
-2 14 7 0.2105 -0.0021
-2 14 8 0.2823 -0.0064
-2 14 9 0.3246 -0.0092
-2 14 10 0.3306 -0.0049
-2 14 11 0.2994 0.0092
-2 14 12 0.2290 0.0275
-2 14 13 0.1206 0.0375
-2 14 14 -0.0076 0.0276
-2 15 1 -0.1587 0.0541
-2 15 2 -0.1229 0.0473
-2 15 3 -0.0661 0.0319
-2 15 4 -0.0014 0.0157
-2 15 5 0.0679 0.0050
-2 15 6 0.1384 0.0010
-2 15 7 0.1983 0.0002
-2 15 8 0.2309 -0.0011
-2 15 9 0.2292 -0.0023
-2 15 10 0.2012 0.0015
-2 15 11 0.1610 0.0140
-2 15 12 0.1155 0.0320
-1 -15 1 -0.0412 -0.0025
-1 -15 2 0.0778 0.0162
-1 -14 1 0.0053 0.0060
-1 -14 2 0.1520 0.0191
-1 -14 3 0.2554 0.0268
-1 -14 4 0.2808 0.0271
-1 -13 1 -0.0633 0.0003
-1 -13 2 0.0604 0.0079
-1 -13 3 0.1581 0.0122
-1 -13 4 0.1989 0.0117
-1 -13 5 0.1858 0.0078
-1 -13 6 0.1508 0.0030
-1 -12 1 -0.1441 -0.0065
-1 -12 2 -0.0839 -0.0030
-1 -12 3 -0.0366 -0.0013
-1 -12 4 -0.0197 -0.0023
-1 -12 5 -0.0349 -0.0050
-1 -12 6 -0.0640 -0.0075
-1 -12 7 -0.0816 -0.0092
-1 -12 8 -0.0734 -0.0106
-1 -11 1 -0.1610 -0.0037
-1 -11 2 -0.1553 -0.0025
-1 -11 3 -0.1540 -0.0027
-1 -11 4 -0.1632 -0.0045
-1 -11 5 -0.1934 -0.0071
-1 -11 6 -0.2468 -0.0091
-1 -11 7 -0.3115 -0.0107
-1 -11 8 -0.3658 -0.0130
-1 -11 9 -0.3878 -0.0168
-1 -10 1 -0.1999 0.0038
-1 -10 2 -0.2159 0.0043
-1 -10 3 -0.2122 0.0034
-1 -10 4 -0.1930 0.0015
-1 -10 5 -0.1873 -0.0004
-1 -10 6 -0.2301 -0.0017
-1 -10 7 -0.3343 -0.0031
-1 -10 8 -0.4766 -0.0064
-1 -10 9 -0.6035 -0.0129
-1 -10 10 -0.6587 -0.0214
-1 -10 11 -0.6118 -0.0279
-1 -9 1 -0.3467 0.0060
-1 -9 2 -0.3837 0.0060
-1 -9 3 -0.3527 0.0052
-1 -9 4 -0.2588 0.0045
-1 -9 5 -0.1521 0.0047
-1 -9 6 -0.1061 0.0059
-1 -9 7 -0.1717 0.0068
-1 -9 8 -0.3389 0.0047
-1 -9 9 -0.5353 -0.0026
-1 -9 10 -0.6645 -0.0143
-1 -9 11 -0.6606 -0.0260
-1 -9 12 -0.5237 -0.0317
-1 -8 1 -0.4591 0.0027
-1 -8 2 -0.5519 0.0015
-1 -8 3 -0.5346 0.0002
-1 -8 4 -0.4040 0.0004
-1 -8 5 -0.2146 0.0025
-1 -8 6 -0.0637 0.0064
-1 -8 7 -0.0377 0.0103
-1 -8 8 -0.1533 0.0111
-1 -8 9 -0.3407 0.0060
-1 -8 10 -0.4835 -0.0053
-1 -8 11 -0.4904 -0.0187
-1 -8 12 -0.3495 -0.0279
-1 -8 13 -0.1293 -0.0280
-1 -7 1 -0.2614 0.0020
-1 -7 2 -0.4231 -0.0009
-1 -7 3 -0.4871 -0.0033
-1 -7 4 -0.4279 -0.0041
-1 -7 5 -0.2735 -0.0027
-1 -7 6 -0.1111 0.0008
-1 -7 7 -0.0406 0.0051
-1 -7 8 -0.1051 0.0080
-1 -7 9 -0.2552 0.0063
-1 -7 10 -0.3783 -0.0010
-1 -7 11 -0.3748 -0.0110
-1 -7 12 -0.2249 -0.0181
-1 -7 13 0.0019 -0.0172
-1 -7 14 0.1970 -0.0086
-1 -6 1 0.3225 0.0053
-1 -6 2 0.1270 0.0025
-1 -6 3 -0.0487 -0.0003
-1 -6 4 -0.1491 -0.0027
-1 -6 5 -0.1502 -0.0045
-1 -6 6 -0.0952 -0.0050
-1 -6 7 -0.0703 -0.0039
-1 -6 8 -0.1367 -0.0019
-1 -6 9 -0.2759 -0.0012
-1 -6 10 -0.3984 -0.0032
-1 -6 11 -0.4100 -0.0067
-1 -6 12 -0.2844 -0.0076
-1 -6 13 -0.0825 -0.0017
-1 -6 14 0.0930 0.0106
-1 -6 15 0.1671 0.0237
-1 -5 1 1.0737 0.0045
-1 -5 2 0.8708 0.0046
-1 -5 3 0.5901 0.0042
-1 -5 4 0.3148 0.0021
-1 -5 5 0.1268 -0.0020
-1 -5 6 0.0410 -0.0068
-1 -5 7 -0.0017 -0.0102
-1 -5 8 -0.0772 -0.0108
-1 -5 9 -0.2071 -0.0094
-1 -5 10 -0.3391 -0.0076
-1 -5 11 -0.3942 -0.0056
-1 -5 12 -0.3370 -0.0009
-1 -5 13 -0.2072 0.0093
-1 -5 14 -0.0875 0.0244
-1 -5 15 -0.0405 0.0391
-1 -4 1 1.7743 -0.0057
-1 -4 2 1.5219 -0.0010
-1 -4 3 1.1308 0.0030
-1 -4 4 0.7037 0.0040
-1 -4 5 0.3682 0.0009
-1 -4 6 0.1889 -0.0050
-1 -4 7 0.1300 -0.0104
-1 -4 8 0.0984 -0.0126
-1 -4 9 0.0256 -0.0114
-1 -4 10 -0.0824 -0.0083
-1 -4 11 -0.1674 -0.0042
-1 -4 12 -0.1827 0.0018
-1 -4 13 -0.1384 0.0118
-1 -4 14 -0.0889 0.0256
-1 -4 15 -0.0817 0.0385
-1 -4 16 -0.1174 0.0441
-1 -3 1 2.4547 -0.0169
-1 -3 2 2.0843 -0.0096
-1 -3 3 1.5641 -0.0024
-1 -3 4 1.0048 0.0019
-1 -3 5 0.5563 0.0016
-1 -3 6 0.3136 -0.0023
-1 -3 7 0.2576 -0.0065
-1 -3 8 0.2814 -0.0084
-1 -3 9 0.2768 -0.0072
-1 -3 10 0.2073 -0.0043
-1 -3 11 0.1121 -0.0014
-1 -3 12 0.0497 0.0021
-1 -3 13 0.0397 0.0080
-1 -3 14 0.0536 0.0167
-1 -3 15 0.0514 0.0251
-1 -3 16 0.0226 0.0280
-1 -3 17 -0.0094 0.0222
-1 -2 1 3.2041 -0.0156
-1 -2 2 2.7300 -0.0098
-1 -2 3 2.1196 -0.0036
-1 -2 4 1.4708 0.0005
-1 -2 5 0.9272 0.0011
-1 -2 6 0.5948 -0.0010
-1 -2 7 0.4721 -0.0034
-1 -2 8 0.4581 -0.0041
-1 -2 9 0.4305 -0.0028
-1 -2 10 0.3317 -0.0009
-1 -2 11 0.1921 -0.0001
-1 -2 12 0.0824 0.0001
-1 -2 13 0.0464 0.0014
-1 -2 14 0.0715 0.0048
-1 -2 15 0.1125 0.0085
-1 -2 16 0.1353 0.0088
-1 -2 17 0.1367 0.0033
-1 -1 1 3.8244 0.0003
-1 -1 2 3.3737 0.0018
-1 -1 3 2.8057 0.0031
-1 -1 4 2.1777 0.0032
-1 -1 5 1.5975 0.0016
-1 -1 6 1.1650 -0.0009
-1 -1 7 0.9027 -0.0027
-1 -1 8 0.7411 -0.0030
-1 -1 9 0.5775 -0.0020
-1 -1 10 0.3585 -0.0012
-1 -1 11 0.1160 -0.0017
-1 -1 12 -0.0698 -0.0032
-1 -1 13 -0.1398 -0.0040
-1 -1 14 -0.0995 -0.0034
-1 -1 15 -0.0056 -0.0026
-1 -1 16 0.0810 -0.0041
-1 -1 17 0.1295 -0.0094
-1 -1 18 0.1399 -0.0165
-1 0 1 3.8944 0.0167
-1 0 2 3.6014 0.0144
-1 0 3 3.2217 0.0110
-1 0 4 2.7520 0.0069
-1 0 5 2.2436 0.0028
-1 0 6 1.7792 -0.0004
-1 0 7 1.4078 -0.0019
-1 0 8 1.1078 -0.0018
-1 0 9 0.8151 -0.0012
-1 0 10 0.4911 -0.0012
-1 0 11 0.1652 -0.0021
-1 0 12 -0.0854 -0.0033
-1 0 13 -0.1993 -0.0037
-1 0 14 -0.1789 -0.0033
-1 0 15 -0.0856 -0.0035
-1 0 16 0.0061 -0.0063
-1 0 17 0.0528 -0.0122
-1 0 18 0.0523 -0.0187
-1 1 1 3.2400 0.0177
-1 1 2 3.1284 0.0143
-1 1 3 2.9765 0.0098
-1 1 4 2.7222 0.0051
-1 1 5 2.3618 0.0015
-1 1 6 1.9585 0.0001
-1 1 7 1.5868 0.0007
-1 1 8 1.2730 0.0021
-1 1 9 0.9893 0.0028
-1 1 10 0.7022 0.0024
-1 1 11 0.4202 0.0014
-1 1 12 0.1944 0.0012
-1 1 13 0.0732 0.0024
-1 1 14 0.0556 0.0040
-1 1 15 0.0888 0.0038
-1 1 16 0.1067 -0.0001
-1 1 17 0.0749 -0.0071
-1 1 18 0.0053 -0.0142
-1 1 19 -0.0653 -0.0171
-1 2 1 2.1930 0.0034
-1 2 2 2.1904 0.0010
-1 2 3 2.1860 -0.0015
-1 2 4 2.0834 -0.0036
-1 2 5 1.8446 -0.0039
-1 2 6 1.5229 -0.0018
-1 2 7 1.2158 0.0019
-1 2 8 0.9881 0.0051
-1 2 9 0.8367 0.0060
-1 2 10 0.7183 0.0047
-1 2 11 0.6037 0.0031
-1 2 12 0.5017 0.0034
-1 2 13 0.4364 0.0060
-1 2 14 0.4084 0.0092
-1 2 15 0.3819 0.0098
-1 2 16 0.3127 0.0059
-1 2 17 0.1867 -0.0016
-1 2 18 0.0345 -0.0093
-1 2 19 -0.0902 -0.0127
-1 3 1 1.2766 -0.0103
-1 3 2 1.3230 -0.0112
-1 3 3 1.3715 -0.0114
-1 3 4 1.3206 -0.0111
-1 3 5 1.1233 -0.0092
-1 3 6 0.8328 -0.0053
-1 3 7 0.5638 -0.0005
-1 3 8 0.4076 0.0028
-1 3 9 0.3761 0.0026
-1 3 10 0.4150 -0.0006
-1 3 11 0.4606 -0.0038
-1 3 12 0.4849 -0.0038
-1 3 13 0.4931 -0.0002
-1 3 14 0.4904 0.0049
-1 3 15 0.4598 0.0074
-1 3 16 0.3750 0.0051
-1 3 17 0.2314 -0.0014
-1 3 18 0.0639 -0.0085
-1 3 19 -0.0703 -0.0124
-1 4 1 0.7184 -0.0098
-1 4 2 0.8132 -0.0094
-1 4 3 0.8873 -0.0086
-1 4 4 0.8541 -0.0083
-1 4 5 0.6716 -0.0076
-1 4 6 0.3906 -0.0055
-1 4 7 0.1266 -0.0028
-1 4 8 -0.0210 -0.0016
-1 4 9 -0.0312 -0.0038
-1 4 10 0.0409 -0.0088
-1 4 11 0.1207 -0.0134
-1 4 12 0.1695 -0.0140
-1 4 13 0.1936 -0.0098
-1 4 14 0.2129 -0.0034
-1 4 15 0.2269 0.0013
-1 4 16 0.2131 0.0015
-1 4 17 0.1543 -0.0024
-1 4 18 0.0635 -0.0079
-1 4 19 -0.0185 -0.0120
-1 4 20 -0.0529 -0.0130
-1 5 1 0.3836 0.0003
-1 5 2 0.5186 0.0026
-1 5 3 0.6217 0.0038
-1 5 4 0.6319 0.0027
-1 5 5 0.5136 0.0005
-1 5 6 0.3016 -0.0008
-1 5 7 0.0862 -0.0008
-1 5 8 -0.0501 -0.0011
-1 5 9 -0.0889 -0.0037
-1 5 10 -0.0768 -0.0085
-1 5 11 -0.0753 -0.0128
-1 5 12 -0.1065 -0.0137
-1 5 13 -0.1416 -0.0100
-1 5 14 -0.1368 -0.0040
-1 5 15 -0.0773 0.0011
-1 5 16 0.0082 0.0029
-1 5 17 0.0741 0.0016
-1 5 18 0.0947 -0.0014
-1 5 19 0.0806 -0.0047
-1 5 20 0.0622 -0.0076
-1 6 1 0.1065 0.0050
-1 6 2 0.2071 0.0094
-1 6 3 0.2987 0.0112
-1 6 4 0.3531 0.0094
-1 6 5 0.3413 0.0055
-1 6 6 0.2705 0.0026
-1 6 7 0.1848 0.0021
-1 6 8 0.1275 0.0030
-1 6 9 0.1008 0.0030
-1 6 10 0.0659 0.0011
-1 6 11 -0.0171 -0.0014
-1 6 12 -0.1434 -0.0023
-1 6 13 -0.2570 -0.0008
-1 6 14 -0.2899 0.0019
-1 6 15 -0.2142 0.0042
-1 6 16 -0.0644 0.0052
-1 6 17 0.0876 0.0055
-1 6 18 0.1805 0.0058
-1 6 19 0.1974 0.0054
-1 6 20 0.1633 0.0034
-1 7 1 -0.0928 0.0000
-1 7 2 -0.1109 0.0048
-1 7 3 -0.1006 0.0065
-1 7 4 -0.0545 0.0046
-1 7 5 0.0081 0.0009
-1 7 6 0.0699 -0.0012
-1 7 7 0.1286 -0.0001
-1 7 8 0.1840 0.0033
-1 7 9 0.2180 0.0063
-1 7 10 0.1951 0.0073
-1 7 11 0.0923 0.0064
-1 7 12 -0.0683 0.0048
-1 7 13 -0.2169 0.0029
-1 7 14 -0.2743 0.0008
-1 7 15 -0.2048 -0.0015
-1 7 16 -0.0422 -0.0027
-1 7 17 0.1312 -0.0013
-1 7 18 0.2369 0.0026
-1 7 19 0.2442 0.0066
-1 7 20 0.1779 0.0079
-1 8 1 -0.1447 -0.0038
-1 8 2 -0.2722 -0.0014
-1 8 3 -0.3544 -0.0015
-1 8 4 -0.3586 -0.0038
-1 8 5 -0.2912 -0.0064
-1 8 6 -0.1799 -0.0070
-1 8 7 -0.0537 -0.0047
-1 8 8 0.0616 -0.0010
-1 8 9 0.1376 0.0018
-1 8 10 0.1446 0.0024
-1 8 11 0.0686 0.0010
-1 8 12 -0.0665 -0.0018
-1 8 13 -0.1981 -0.0056
-1 8 14 -0.2540 -0.0102
-1 8 15 -0.1978 -0.0147
-1 8 16 -0.0556 -0.0164
-1 8 17 0.0981 -0.0133
-1 8 18 0.1867 -0.0060
-1 8 19 0.1781 0.0015
-1 9 1 -0.1130 0.0018
-1 9 2 -0.2443 0.0005
-1 9 3 -0.3432 -0.0019
-1 9 4 -0.3733 -0.0043
-1 9 5 -0.3319 -0.0052
-1 9 6 -0.2428 -0.0041
-1 9 7 -0.1376 -0.0020
-1 9 8 -0.0435 -0.0010
-1 9 9 0.0178 -0.0023
-1 9 10 0.0281 -0.0055
-1 9 11 -0.0210 -0.0089
-1 9 12 -0.1154 -0.0111
-1 9 13 -0.2134 -0.0126
-1 9 14 -0.2616 -0.0141
-1 9 15 -0.2269 -0.0151
-1 9 16 -0.1218 -0.0134
-1 9 17 -0.0011 -0.0071
-1 9 18 0.0720 0.0024
-1 9 19 0.0672 0.0103
-1 10 1 -0.1255 0.0086
-1 10 2 -0.1686 0.0053
-1 10 3 -0.2014 0.0022
-1 10 4 -0.2021 0.0013
-1 10 5 -0.1671 0.0035
-1 10 6 -0.1099 0.0072
-1 10 7 -0.0505 0.0094
-1 10 8 -0.0037 0.0072
-1 10 9 0.0226 0.0008
-1 10 10 0.0226 -0.0063
-1 10 11 -0.0100 -0.0102
-1 10 12 -0.0744 -0.0087
-1 10 13 -0.1529 -0.0034
-1 10 14 -0.2111 0.0029
-1 10 15 -0.2163 0.0088
-1 10 16 -0.1617 0.0154
-1 10 17 -0.0765 0.0244
-1 10 18 -0.0085 0.0343
-1 10 19 0.0088 0.0398
-1 11 1 -0.1933 0.0055
-1 11 2 -0.1556 0.0023
-1 11 3 -0.1164 0.0001
-1 11 4 -0.0739 0.0016
-1 11 5 -0.0265 0.0073
-1 11 6 0.0223 0.0142
-1 11 7 0.0656 0.0175
-1 11 8 0.0991 0.0140
-1 11 9 0.1228 0.0054
-1 11 10 0.1350 -0.0026
-1 11 11 0.1259 -0.0040
-1 11 12 0.0829 0.0034
-1 11 13 0.0053 0.0162
-1 11 14 -0.0841 0.0289
-1 11 15 -0.1463 0.0381
-1 11 16 -0.1511 0.0449
-1 11 17 -0.1008 0.0518
-1 11 18 -0.0306 0.0590
-1 12 1 -0.2187 -0.0013
-1 12 2 -0.1703 -0.0036
-1 12 3 -0.1155 -0.0059
-1 12 4 -0.0646 -0.0045
-1 12 5 -0.0156 0.0016
-1 12 6 0.0361 0.0092
-1 12 7 0.0918 0.0132
-1 12 8 0.1493 0.0102
-1 12 9 0.2057 0.0026
-1 12 10 0.2534 -0.0029
-1 12 11 0.2754 0.0003
-1 12 12 0.2488 0.0131
-1 12 13 0.1625 0.0297
-1 12 14 0.0353 0.0419
-1 12 15 -0.0840 0.0454
-1 12 16 -0.1434 0.0425
-1 12 17 -0.1217 0.0394
-1 12 18 -0.0444 0.0399
-1 13 1 -0.1643 0.0065
-1 13 2 -0.1459 0.0042
-1 13 3 -0.1140 -0.0009
-1 13 4 -0.0818 -0.0044
-1 13 5 -0.0452 -0.0033
-1 13 6 0.0063 0.0005
-1 13 7 0.0766 0.0027
-1 13 8 0.1602 0.0001
-1 13 9 0.2461 -0.0051
-1 13 10 0.3193 -0.0065
-1 13 11 0.3583 0.0014
-1 13 12 0.3373 0.0177
-1 13 13 0.2419 0.0339
-1 13 14 0.0898 0.0397
-1 13 15 -0.0652 0.0305
-1 13 16 -0.1585 0.0111
-1 13 17 -0.1544 -0.0075
-1 14 1 -0.1106 0.0327
-1 14 2 -0.1055 0.0297
-1 14 3 -0.0825 0.0197
-1 14 4 -0.0552 0.0085
-1 14 5 -0.0199 0.0013
-1 14 6 0.0344 -0.0014
-1 14 7 0.1104 -0.0027
-1 14 8 0.1986 -0.0056
-1 14 9 0.2831 -0.0087
-1 14 10 0.3483 -0.0067
-1 14 11 0.3772 0.0045
-1 14 12 0.3501 0.0225
-1 14 13 0.2552 0.0374
-1 14 14 0.1068 0.0374
-1 14 15 -0.0476 0.0178
-1 14 16 -0.1457 -0.0148
-1 15 1 -0.1282 0.0567
-1 15 2 -0.1104 0.0528
-1 15 3 -0.0700 0.0388
-1 15 4 -0.0227 0.0216
-1 15 5 0.0306 0.0080
-1 15 6 0.0959 0.0007
-1 15 7 0.1721 -0.0026
-1 15 8 0.2468 -0.0052
-1 15 9 0.3052 -0.0071
-1 15 10 0.3384 -0.0040
-1 15 11 0.3418 0.0076
-1 15 12 0.3089 0.0255
-1 15 13 0.2329 0.0403
-1 15 14 0.1208 0.0403
-1 16 4 -0.0335 0.0185
-1 16 5 0.0339 0.0044
-1 16 6 0.1053 -0.0023
-1 16 7 0.1753 -0.0038
-1 16 8 0.2307 -0.0044
-1 16 9 0.2594 -0.0057
-1 16 10 0.2612 -0.0045
-1 16 11 0.2447 0.0033
0 -15 1 -0.0745 -0.0210
0 -14 1 -0.0543 -0.0013
0 -14 2 0.0612 0.0127
0 -14 3 0.1413 0.0214
0 -14 4 0.1500 0.0231
0 -13 1 -0.1174 0.0051
0 -13 2 -0.0042 0.0147
0 -13 3 0.0929 0.0206
0 -13 4 0.1371 0.0216
0 -13 5 0.1267 0.0192
0 -13 6 0.0932 0.0158
0 -12 1 -0.1894 -0.0025
0 -12 2 -0.1247 0.0036
0 -12 3 -0.0609 0.0081
0 -12 4 -0.0193 0.0096
0 -12 5 -0.0031 0.0091
0 -12 6 0.0051 0.0081
0 -12 7 0.0273 0.0070
0 -11 1 -0.1639 -0.0080
0 -11 2 -0.1602 -0.0047
0 -11 3 -0.1609 -0.0022
0 -11 4 -0.1622 -0.0016
0 -11 5 -0.1609 -0.0022
0 -11 6 -0.1519 -0.0031
0 -11 7 -0.1302 -0.0043
0 -11 8 -0.0971 -0.0067
0 -11 9 -0.0604 -0.0111
0 -10 1 -0.0879 -0.0020
0 -10 2 -0.1200 -0.0006
0 -10 3 -0.1663 -0.0005
0 -10 4 -0.1997 -0.0022
0 -10 5 -0.2131 -0.0048
0 -10 6 -0.2188 -0.0074
0 -10 7 -0.2350 -0.0102
0 -10 8 -0.2707 -0.0139
0 -10 9 -0.3167 -0.0195
0 -10 10 -0.3496 -0.0260
0 -9 1 -0.1195 0.0072
0 -9 2 -0.1760 0.0080
0 -9 3 -0.2321 0.0067
0 -9 4 -0.2464 0.0040
0 -9 5 -0.2166 0.0008
0 -9 6 -0.1831 -0.0021
0 -9 7 -0.2003 -0.0047
0 -9 8 -0.2950 -0.0084
0 -9 9 -0.4436 -0.0144
0 -9 10 -0.5820 -0.0225
0 -9 11 -0.6425 -0.0295
0 -8 1 -0.2781 0.0080
0 -8 2 -0.3885 0.0085
0 -8 3 -0.4550 0.0073
0 -8 4 -0.4264 0.0058
0 -8 5 -0.3075 0.0049
0 -8 6 -0.1694 0.0050
0 -8 7 -0.1100 0.0057
0 -8 8 -0.1877 0.0049
0 -8 9 -0.3783 0.0004
0 -8 10 -0.5858 -0.0084
0 -8 11 -0.7004 -0.0191
0 -8 12 -0.6626 -0.0266
0 -8 13 -0.4927 -0.0267
0 -7 1 -0.3453 0.0024
0 -7 2 -0.5324 0.0015
0 -7 3 -0.6413 0.0002
0 -7 4 -0.6111 0.0000
0 -7 5 -0.4417 0.0019
0 -7 6 -0.2172 0.0056
0 -7 7 -0.0662 0.0101
0 -7 8 -0.0802 0.0131
0 -7 9 -0.2493 0.0118
0 -7 10 -0.4654 0.0045
0 -7 11 -0.5913 -0.0073
0 -7 12 -0.5467 -0.0186
0 -7 13 -0.3509 -0.0240
0 -7 14 -0.0998 -0.0213
0 -6 1 -0.0848 0.0009
0 -6 2 -0.3064 -0.0024
0 -6 3 -0.4702 -0.0051
0 -6 4 -0.5074 -0.0057
0 -6 5 -0.3935 -0.0040
0 -6 6 -0.1919 -0.0004
0 -6 7 -0.0304 0.0044
0 -6 8 -0.0186 0.0088
0 -6 9 -0.1674 0.0103
0 -6 10 -0.3768 0.0067
0 -6 11 -0.5034 -0.0017
0 -6 12 -0.4565 -0.0110
0 -6 13 -0.2528 -0.0159
0 -6 14 0.0042 -0.0134
0 -6 15 0.1979 -0.0057
0 -5 1 0.5157 0.0046
0 -5 2 0.3358 0.0004
0 -5 3 0.1357 -0.0030
0 -5 4 -0.0134 -0.0050
0 -5 5 -0.0480 -0.0060
0 -5 6 0.0201 -0.0063
0 -5 7 0.0971 -0.0057
0 -5 8 0.0748 -0.0038
0 -5 9 -0.0810 -0.0017
0 -5 10 -0.2974 -0.0012
0 -5 11 -0.4451 -0.0033
0 -5 12 -0.4333 -0.0059
0 -5 13 -0.2719 -0.0050
0 -5 14 -0.0573 0.0017
0 -5 15 0.0998 0.0123
0 -4 1 1.3055 0.0033
0 -4 2 1.1802 0.0018
0 -4 3 0.9395 0.0010
0 -4 4 0.6540 0.0001
0 -4 5 0.4309 -0.0024
0 -4 6 0.3246 -0.0067
0 -4 7 0.2933 -0.0111
0 -4 8 0.2391 -0.0134
0 -4 9 0.0984 -0.0126
0 -4 10 -0.1013 -0.0097
0 -4 11 -0.2644 -0.0063
0 -4 12 -0.3087 -0.0022
0 -4 13 -0.2315 0.0046
0 -4 14 -0.1075 0.0154
0 -4 15 -0.0264 0.0284
0 -4 16 -0.0278 0.0380
0 -3 1 2.1961 -0.0086
0 -3 2 2.0436 -0.0052
0 -3 3 1.7027 -0.0005
0 -3 4 1.2469 0.0030
0 -3 5 0.8229 0.0028
0 -3 6 0.5485 -0.0016
0 -3 7 0.4334 -0.0080
0 -3 8 0.3904 -0.0127
0 -3 9 0.3202 -0.0134
0 -3 10 0.1925 -0.0102
0 -3 11 0.0560 -0.0047
0 -3 12 -0.0218 0.0019
0 -3 13 -0.0221 0.0104
0 -3 14 0.0105 0.0214
0 -3 15 0.0136 0.0331
0 -3 16 -0.0370 0.0409
0 -3 17 -0.1111 0.0404
0 -2 1 3.1679 -0.0210
0 -2 2 2.9075 -0.0142
0 -2 3 2.4164 -0.0054
0 -2 4 1.7732 0.0023
0 -2 5 1.1511 0.0059
0 -2 6 0.7133 0.0043
0 -2 7 0.5121 -0.0007
0 -2 8 0.4721 -0.0053
0 -2 9 0.4651 -0.0067
0 -2 10 0.4087 -0.0045
0 -2 11 0.3076 -0.0002
0 -2 12 0.2165 0.0048
0 -2 13 0.1716 0.0106
0 -2 14 0.1580 0.0177
0 -2 15 0.1344 0.0250
0 -2 16 0.0800 0.0292
0 -2 17 0.0151 0.0268
0 -1 1 4.0474 -0.0185
0 -1 2 3.7076 -0.0128
0 -1 3 3.1215 -0.0052
0 -1 4 2.3633 0.0019
0 -1 5 1.6049 0.0059
0 -1 6 1.0264 0.0058
0 -1 7 0.7093 0.0027
0 -1 8 0.5974 -0.0009
0 -1 9 0.5565 -0.0026
0 -1 10 0.4786 -0.0019
0 -1 11 0.3446 -0.0001
0 -1 12 0.2069 0.0016
0 -1 13 0.1213 0.0034
0 -1 14 0.0975 0.0056
0 -1 15 0.1034 0.0081
0 -1 16 0.1055 0.0087
0 -1 17 0.0982 0.0052
0 -1 18 0.0965 -0.0024
0 0 1 4.4564 0.0006
0 0 2 4.1536 0.0018
0 0 3 3.6258 0.0033
0 0 4 2.9209 0.0045
0 0 5 2.1738 0.0045
0 0 6 1.5469 0.0027
0 0 7 1.1332 -0.0003
0 0 8 0.9037 -0.0033
0 0 9 0.7449 -0.0052
0 0 10 0.5539 -0.0060
0 0 11 0.3109 -0.0063
0 0 12 0.0756 -0.0069
0 0 13 -0.0770 -0.0077
0 0 14 -0.1189 -0.0084
0 0 15 -0.0802 -0.0090
0 0 16 -0.0140 -0.0107
0 0 17 0.0433 -0.0145
0 0 18 0.0827 -0.0199
0 1 0 4.1672 0.0209
0 1 1 4.1244 0.0202
0 1 2 3.9401 0.0169
0 1 3 3.5988 0.0123
0 1 4 3.1049 0.0074
0 1 5 2.5293 0.0028
0 1 6 1.9892 -0.0009
0 1 7 1.5730 -0.0037
0 1 8 1.2807 -0.0057
0 1 9 1.0349 -0.0072
0 1 10 0.7548 -0.0086
0 1 11 0.4271 -0.0100
0 1 12 0.1140 -0.0113
0 1 13 -0.1012 -0.0126
0 1 14 -0.1801 -0.0138
0 1 15 -0.1510 -0.0155
0 1 16 -0.0785 -0.0183
0 1 17 -0.0169 -0.0223
0 1 18 0.0132 -0.0262
0 1 19 0.0167 -0.0275
0 2 0 3.2363 0.0239
0 2 1 3.2033 0.0227
0 2 2 3.1214 0.0181
0 2 3 2.9749 0.0116
0 2 4 2.7250 0.0051
0 2 5 2.3764 0.0003
0 2 6 1.9946 -0.0019
0 2 7 1.6588 -0.0019
0 2 8 1.3975 -0.0011
0 2 9 1.1723 -0.0011
0 2 10 0.9240 -0.0024
0 2 11 0.6354 -0.0042
0 2 12 0.3519 -0.0057
0 2 13 0.1440 -0.0062
0 2 14 0.0486 -0.0065
0 2 15 0.0417 -0.0077
0 2 16 0.0618 -0.0106
0 2 17 0.0569 -0.0147
0 2 18 0.0140 -0.0181
0 2 19 -0.0461 -0.0184
0 3 0 2.2003 0.0095
0 3 1 2.1568 0.0080
0 3 2 2.1325 0.0047
0 3 3 2.1104 0.0006
0 3 4 2.0230 -0.0028
0 3 5 1.8286 -0.0039
0 3 6 1.5575 -0.0018
0 3 7 1.2876 0.0026
0 3 8 1.0784 0.0066
0 3 9 0.9300 0.0081
0 3 10 0.7990 0.0065
0 3 11 0.6522 0.0036
0 3 12 0.4999 0.0017
0 3 13 0.3819 0.0019
0 3 14 0.3226 0.0032
0 3 15 0.3033 0.0038
0 3 16 0.2751 0.0022
0 3 17 0.2000 -0.0013
0 3 18 0.0803 -0.0044
0 3 19 -0.0449 -0.0049
0 3 20 -0.1307 -0.0014
0 4 0 1.3338 -0.0055
0 4 1 1.3424 -0.0074
0 4 2 1.3864 -0.0089
0 4 3 1.4429 -0.0098
0 4 4 1.4321 -0.0097
0 4 5 1.2923 -0.0075
0 4 6 1.0401 -0.0027
0 4 7 0.7616 0.0037
0 4 8 0.5480 0.0087
0 4 9 0.4346 0.0098
0 4 10 0.3934 0.0066
0 4 11 0.3750 0.0017
0 4 12 0.3545 -0.0014
0 4 13 0.3399 -0.0008
0 4 14 0.3433 0.0024
0 4 15 0.3525 0.0057
0 4 16 0.3320 0.0067
0 4 17 0.2537 0.0054
0 4 18 0.1253 0.0033
0 4 19 -0.0095 0.0023
0 4 20 -0.0995 0.0036
0 5 0 0.6561 -0.0082
0 5 1 0.7879 -0.0099
0 5 2 0.9364 -0.0098
0 5 3 1.0704 -0.0089
0 5 4 1.1119 -0.0080
0 5 5 0.9985 -0.0064
0 5 6 0.7438 -0.0032
0 5 7 0.4381 0.0010
0 5 8 0.1906 0.0041
0 5 9 0.0601 0.0034
0 5 10 0.0321 -0.0014
0 5 11 0.0518 -0.0076
0 5 12 0.0763 -0.0114
0 5 13 0.0988 -0.0106
0 5 14 0.1323 -0.0060
0 5 15 0.1770 -0.0005
0 5 16 0.2085 0.0034
0 5 17 0.1970 0.0048
0 5 18 0.1358 0.0045
0 5 19 0.0520 0.0035
0 5 20 -0.0116 0.0025
0 6 0 0.1428 -0.0029
0 6 1 0.3646 -0.0025
0 6 2 0.5807 -0.0005
0 6 3 0.7627 0.0009
0 6 4 0.8498 0.0005
0 6 5 0.7914 -0.0011
0 6 6 0.5965 -0.0019
0 6 7 0.3416 -0.0012
0 6 8 0.1247 -0.0002
0 6 9 0.0033 -0.0011
0 6 10 -0.0326 -0.0048
0 6 11 -0.0349 -0.0096
0 6 12 -0.0451 -0.0125
0 6 13 -0.0629 -0.0116
0 6 14 -0.0583 -0.0075
0 6 15 -0.0098 -0.0022
0 6 16 0.0698 0.0022
0 6 17 0.1413 0.0051
0 6 18 0.1703 0.0066
0 6 19 0.1526 0.0067
0 6 20 0.1130 0.0048
0 7 0 -0.1450 -0.0014
0 7 1 0.0378 0.0019
0 7 2 0.2004 0.0059
0 7 3 0.3366 0.0077
0 7 4 0.4203 0.0061
0 7 5 0.4226 0.0021
0 7 6 0.3450 -0.0014
0 7 7 0.2315 -0.0021
0 7 8 0.1414 -0.0005
0 7 9 0.1054 0.0015
0 7 10 0.1039 0.0019
0 7 11 0.0892 0.0009
0 7 12 0.0309 -0.0002
0 7 13 -0.0527 -0.0002
0 7 14 -0.1075 0.0009
0 7 15 -0.0871 0.0022
0 7 16 0.0094 0.0038
0 7 17 0.1350 0.0060
0 7 18 0.2283 0.0089
0 7 19 0.2534 0.0112
0 7 20 0.2162 0.0109
0 8 0 -0.1845 -0.0051
0 8 1 -0.1361 -0.0005
0 8 2 -0.1215 0.0039
0 8 3 -0.1137 0.0054
0 8 4 -0.0978 0.0033
0 8 5 -0.0757 -0.0010
0 8 6 -0.0506 -0.0041
0 8 7 -0.0146 -0.0038
0 8 8 0.0448 0.0000
0 8 9 0.1221 0.0052
0 8 10 0.1835 0.0092
0 8 11 0.1842 0.0109
0 8 12 0.1056 0.0104
0 8 13 -0.0199 0.0080
0 8 14 -0.1212 0.0043
0 8 15 -0.1332 0.0001
0 8 16 -0.0422 -0.0027
0 8 17 0.1043 -0.0021
0 8 18 0.2292 0.0022
0 8 19 0.2749 0.0076
0 8 20 0.2338 0.0105
0 9 0 -0.1110 -0.0046
0 9 1 -0.1703 -0.0014
0 9 2 -0.2752 0.0007
0 9 3 -0.3780 0.0005
0 9 4 -0.4354 -0.0021
0 9 5 -0.4279 -0.0052
0 9 6 -0.3591 -0.0064
0 9 7 -0.2448 -0.0045
0 9 8 -0.1052 -0.0000
0 9 9 0.0306 0.0046
0 9 10 0.1234 0.0076
0 9 11 0.1355 0.0078
0 9 12 0.0563 0.0053
0 9 13 -0.0786 0.0003
0 9 14 -0.1967 -0.0066
0 9 15 -0.2280 -0.0137
0 9 16 -0.1496 -0.0180
0 9 17 -0.0021 -0.0168
0 9 18 0.1356 -0.0101
0 9 19 0.1969 -0.0017
0 9 20 0.1660 0.0035
0 10 0 -0.1011 0.0038
0 10 1 -0.1732 0.0043
0 10 2 -0.2869 0.0030
0 10 3 -0.4003 0.0002
0 10 4 -0.4685 -0.0026
0 10 5 -0.4659 -0.0037
0 10 6 -0.3947 -0.0023
0 10 7 -0.2773 0.0007
0 10 8 -0.1439 0.0032
0 10 9 -0.0255 0.0032
0 10 10 0.0471 0.0005
0 10 11 0.0487 -0.0039
0 10 12 -0.0271 -0.0090
0 10 13 -0.1525 -0.0144
0 10 14 -0.2687 -0.0197
0 10 15 -0.3125 -0.0238
0 10 16 -0.2551 -0.0242
0 10 17 -0.1239 -0.0186
0 10 18 0.0125 -0.0082
0 10 19 0.0878 0.0023
0 11 0 -0.1792 0.0103
0 11 1 -0.2124 0.0096
0 11 2 -0.2608 0.0061
0 11 3 -0.3075 0.0017
0 11 4 -0.3283 -0.0005
0 11 5 -0.3060 0.0010
0 11 6 -0.2415 0.0055
0 11 7 -0.1524 0.0097
0 11 8 -0.0616 0.0101
0 11 9 0.0110 0.0052
0 11 10 0.0497 -0.0030
0 11 11 0.0409 -0.0110
0 11 12 -0.0223 -0.0160
0 11 13 -0.1280 -0.0175
0 11 14 -0.2379 -0.0167
0 11 15 -0.3005 -0.0138
0 11 16 -0.2804 -0.0076
0 11 17 -0.1856 0.0032
0 11 18 -0.0667 0.0168
0 11 19 0.0156 0.0278
0 12 0 -0.2332 0.0072
0 12 1 -0.2489 0.0078
0 12 2 -0.2443 0.0043
0 12 3 -0.2287 -0.0005
0 12 4 -0.2036 -0.0024
0 12 5 -0.1644 0.0009
0 12 6 -0.1102 0.0078
0 12 7 -0.0482 0.0136
0 12 8 0.0104 0.0137
0 12 9 0.0578 0.0075
0 12 10 0.0884 -0.0017
0 12 11 0.0932 -0.0083
0 12 12 0.0589 -0.0089
0 12 13 -0.0202 -0.0040
0 12 14 -0.1260 0.0033
0 12 15 -0.2161 0.0110
0 12 16 -0.2458 0.0195
0 12 17 -0.1998 0.0304
0 12 18 -0.1069 0.0430
0 13 0 -0.2014 0.0037
0 13 1 -0.2324 0.0076
0 13 2 -0.2184 0.0051
0 13 3 -0.1839 -0.0007
0 13 4 -0.1478 -0.0048
0 13 5 -0.1136 -0.0034
0 13 6 -0.0766 0.0025
0 13 7 -0.0339 0.0083
0 13 8 0.0130 0.0094
0 13 9 0.0613 0.0053
0 13 10 0.1075 0.0000
0 13 11 0.1402 -0.0008
0 13 12 0.1386 0.0055
0 13 13 0.0834 0.0164
0 13 14 -0.0217 0.0263
0 13 15 -0.1395 0.0317
0 13 16 -0.2155 0.0334
0 13 17 -0.2132 0.0355
0 14 0 -0.1504 0.0152
0 14 1 -0.1914 0.0228
0 14 2 -0.1799 0.0211
0 14 3 -0.1441 0.0124
0 14 4 -0.1101 0.0029
0 14 5 -0.0846 -0.0021
0 14 6 -0.0594 -0.0016
0 14 7 -0.0249 0.0012
0 14 8 0.0214 0.0022
0 14 9 0.0765 0.0008
0 14 10 0.1346 0.0007
0 14 11 0.1822 0.0066
0 14 12 0.1962 0.0193
0 14 13 0.1524 0.0337
0 14 14 0.0477 0.0421
0 14 15 -0.0852 0.0399
0 14 16 -0.1879 0.0289
0 15 0 -0.1517 0.0391
0 15 1 -0.1811 0.0494
0 15 2 -0.1594 0.0477
0 15 3 -0.1122 0.0357
0 15 4 -0.0668 0.0198
0 15 5 -0.0317 0.0072
0 15 6 0.0011 0.0009
0 15 7 0.0420 -0.0009
0 15 8 0.0926 -0.0014
0 15 9 0.1472 -0.0017
0 15 10 0.1986 0.0012
0 15 11 0.2369 0.0109
0 15 12 0.2453 0.0268
0 15 13 0.2044 0.0425
0 15 14 0.1092 0.0490
0 15 15 -0.0149 0.0407
0 16 2 -0.1619 0.0620
0 16 3 -0.1059 0.0482
0 16 4 -0.0466 0.0294
0 16 5 0.0058 0.0130
0 16 6 0.0558 0.0033
0 16 7 0.1094 -0.0008
0 16 8 0.1640 -0.0025
0 16 9 0.2110 -0.0032
0 16 10 0.2441 -0.0009
0 16 11 0.2612 0.0077
0 16 12 0.2579 0.0225
0 16 13 0.2246 0.0377
1 -15 0 -0.1043 -0.0484
1 -14 0 -0.0761 -0.0264
1 -14 1 0.0027 -0.0143
1 -14 2 0.0971 -0.0026
1 -14 3 0.1571 0.0035
1 -13 0 -0.1449 -0.0032
1 -13 1 -0.0757 0.0039
1 -13 2 0.0237 0.0105
1 -13 3 0.1074 0.0130
1 -13 4 0.1338 0.0109
1 -13 5 0.0968 0.0072
1 -12 0 -0.2395 0.0019
1 -12 1 -0.2165 0.0055
1 -12 2 -0.1556 0.0098
1 -12 3 -0.0864 0.0122
1 -12 4 -0.0423 0.0124
1 -12 5 -0.0348 0.0121
1 -12 6 -0.0453 0.0131
1 -12 7 -0.0430 0.0157
1 -11 0 -0.2254 -0.0067
1 -11 1 -0.2444 -0.0050
1 -11 2 -0.2464 -0.0015
1 -11 3 -0.2370 0.0024
1 -11 4 -0.2252 0.0056
1 -11 5 -0.2130 0.0085
1 -11 6 -0.1904 0.0118
1 -11 7 -0.1438 0.0150
1 -11 8 -0.0716 0.0162
1 -10 0 -0.0992 -0.0102
1 -10 1 -0.1065 -0.0095
1 -10 2 -0.1458 -0.0069
1 -10 3 -0.2001 -0.0038
1 -10 4 -0.2469 -0.0009
1 -10 5 -0.2684 0.0012
1 -10 6 -0.2568 0.0028
1 -10 7 -0.2155 0.0033
1 -10 8 -0.1576 0.0016
1 -10 9 -0.0997 -0.0033
1 -10 10 -0.0541 -0.0111
1 -9 0 -0.0060 -0.0016
1 -9 1 0.0312 -0.0007
1 -9 2 -0.0096 0.0004
1 -9 3 -0.0957 0.0010
1 -9 4 -0.1764 0.0006
1 -9 5 -0.2150 -0.0009
1 -9 6 -0.2092 -0.0035
1 -9 7 -0.1861 -0.0069
1 -9 8 -0.1794 -0.0115
1 -9 9 -0.2046 -0.0177
1 -9 10 -0.2495 -0.0252
1 -9 11 -0.2838 -0.0317
1 -8 0 -0.0353 0.0070
1 -8 1 -0.0032 0.0092
1 -8 2 -0.0615 0.0097
1 -8 3 -0.1655 0.0084
1 -8 4 -0.2426 0.0059
1 -8 5 -0.2448 0.0022
1 -8 6 -0.1841 -0.0020
1 -8 7 -0.1233 -0.0065
1 -8 8 -0.1298 -0.0111
1 -8 9 -0.2268 -0.0165
1 -8 10 -0.3760 -0.0229
1 -8 11 -0.5035 -0.0292
1 -8 12 -0.5463 -0.0322
1 -7 0 -0.0885 0.0050
1 -7 1 -0.1472 0.0079
1 -7 2 -0.2770 0.0082
1 -7 3 -0.4227 0.0069
1 -7 4 -0.4956 0.0051
1 -7 5 -0.4395 0.0035
1 -7 6 -0.2820 0.0020
1 -7 7 -0.1247 0.0009
1 -7 8 -0.0779 -0.0001
1 -7 9 -0.1842 -0.0023
1 -7 10 -0.3897 -0.0069
1 -7 11 -0.5803 -0.0139
1 -7 12 -0.6545 -0.0210
1 -7 13 -0.5800 -0.0240
1 -6 0 -0.0087 -0.0011
1 -6 1 -0.1673 0.0003
1 -6 2 -0.3742 -0.0007
1 -6 3 -0.5741 -0.0021
1 -6 4 -0.6706 -0.0022
1 -6 5 -0.5971 -0.0007
1 -6 6 -0.3821 0.0020
1 -6 7 -0.1493 0.0054
1 -6 8 -0.0423 0.0088
1 -6 9 -0.1272 0.0108
1 -6 10 -0.3478 0.0091
1 -6 11 -0.5642 0.0024
1 -6 12 -0.6452 -0.0076
1 -6 13 -0.5462 -0.0166
1 -6 14 -0.3220 -0.0201
1 -5 0 0.2450 0.0006
1 -5 1 0.0849 -0.0012
1 -5 2 -0.1174 -0.0047
1 -5 3 -0.3297 -0.0074
1 -5 4 -0.4640 -0.0077
1 -5 5 -0.4401 -0.0056
1 -5 6 -0.2644 -0.0022
1 -5 7 -0.0491 0.0021
1 -5 8 0.0546 0.0069
1 -5 9 -0.0362 0.0113
1 -5 10 -0.2740 0.0129
1 -5 11 -0.5129 0.0093
1 -5 12 -0.6081 0.0008
1 -5 13 -0.5073 -0.0089
1 -5 14 -0.2704 -0.0147
1 -5 15 -0.0161 -0.0141
1 -4 0 0.6538 0.0083
1 -4 1 0.5962 0.0043
1 -4 2 0.4885 -0.0007
1 -4 3 0.3160 -0.0044
1 -4 4 0.1417 -0.0059
1 -4 5 0.0606 -0.0059
1 -4 6 0.1100 -0.0056
1 -4 7 0.2217 -0.0052
1 -4 8 0.2644 -0.0035
1 -4 9 0.1465 0.0001
1 -4 10 -0.1068 0.0039
1 -4 11 -0.3676 0.0049
1 -4 12 -0.4968 0.0018
1 -4 13 -0.4397 -0.0033
1 -4 14 -0.2524 -0.0062
1 -4 15 -0.0496 -0.0041
1 -4 16 0.0761 0.0018
1 -3 0 1.2947 0.0081
1 -3 1 1.3429 0.0048
1 -3 2 1.3237 0.0015
1 -3 3 1.1710 -0.0003
1 -3 4 0.9191 -0.0007
1 -3 5 0.6797 -0.0015
1 -3 6 0.5476 -0.0043
1 -3 7 0.5193 -0.0085
1 -3 8 0.4995 -0.0116
1 -3 9 0.3886 -0.0110
1 -3 10 0.1721 -0.0070
1 -3 11 -0.0659 -0.0025
1 -3 12 -0.2129 0.0000
1 -3 13 -0.2180 0.0007
1 -3 14 -0.1243 0.0022
1 -3 15 -0.0257 0.0070
1 -3 16 0.0076 0.0141
1 -3 17 -0.0288 0.0198
1 -2 0 2.2558 -0.0053
1 -2 1 2.3377 -0.0062
1 -2 2 2.3174 -0.0053
1 -2 3 2.0955 -0.0022
1 -2 4 1.6885 0.0019
1 -2 5 1.2299 0.0041
1 -2 6 0.8749 0.0021
1 -2 7 0.6902 -0.0034
1 -2 8 0.6219 -0.0091
1 -2 9 0.5604 -0.0113
1 -2 10 0.4401 -0.0087
1 -2 11 0.2836 -0.0033
1 -2 12 0.1622 0.0018
1 -2 13 0.1192 0.0057
1 -2 14 0.1299 0.0096
1 -2 15 0.1291 0.0153
1 -2 16 0.0732 0.0223
1 -2 17 -0.0240 0.0272
1 -1 0 3.3566 -0.0194
1 -1 1 3.4364 -0.0185
1 -1 2 3.3581 -0.0145
1 -1 3 3.0154 -0.0074
1 -1 4 2.4211 0.0010
1 -1 5 1.7273 0.0073
1 -1 6 1.1377 0.0089
1 -1 7 0.7802 0.0056
1 -1 8 0.6408 0.0004
1 -1 9 0.6056 -0.0029
1 -1 10 0.5638 -0.0022
1 -1 11 0.4805 0.0017
1 -1 12 0.3889 0.0062
1 -1 13 0.3281 0.0099
1 -1 14 0.2942 0.0134
1 -1 15 0.2489 0.0178
1 -1 16 0.1658 0.0230
1 -1 17 0.0617 0.0263
1 -1 18 -0.0170 0.0249
1 0 0 4.1162 -0.0178
1 0 1 4.2295 -0.0170
1 0 2 4.1336 -0.0137
1 0 3 3.7351 -0.0075
1 0 4 3.0456 0.0002
1 0 5 2.2170 0.0069
1 0 6 1.4704 0.0100
1 0 7 0.9685 0.0088
1 0 8 0.7300 0.0051
1 0 9 0.6490 0.0016
1 0 10 0.5934 0.0007
1 0 11 0.4958 0.0021
1 0 12 0.3711 0.0044
1 0 13 0.2658 0.0063
1 0 14 0.2005 0.0078
1 0 15 0.1575 0.0099
1 0 16 0.1125 0.0124
1 0 17 0.0659 0.0138
1 0 18 0.0410 0.0120
1 1 0 4.1447 0.0003
1 1 1 4.3130 0.0001
1 1 2 4.2667 -0.0003
1 1 3 3.9368 0.0002
1 1 4 3.3271 0.0017
1 1 5 2.5590 0.0035
1 1 6 1.8277 0.0042
1 1 7 1.2936 0.0027
1 1 8 0.9931 -0.0003
1 1 9 0.8384 -0.0036
1 1 10 0.7031 -0.0058
1 1 11 0.5163 -0.0064
1 1 12 0.2954 -0.0061
1 1 13 0.1046 -0.0060
1 1 14 -0.0101 -0.0063
1 1 15 -0.0505 -0.0065
1 1 16 -0.0478 -0.0066
1 1 17 -0.0269 -0.0072
1 1 18 0.0061 -0.0091
1 1 19 0.0501 -0.0123
1 2 0 3.5176 0.0186
1 2 1 3.6798 0.0181
1 2 2 3.6798 0.0145
1 2 3 3.4817 0.0093
1 2 4 3.0758 0.0040
1 2 5 2.5297 -0.0001
1 2 6 1.9782 -0.0029
1 2 7 1.5481 -0.0049
1 2 8 1.2776 -0.0070
1 2 9 1.1021 -0.0094
1 2 10 0.9169 -0.0116
1 2 11 0.6634 -0.0133
1 2 12 0.3668 -0.0142
1 2 13 0.1047 -0.0149
1 2 14 -0.0596 -0.0160
1 2 15 -0.1173 -0.0178
1 2 16 -0.1053 -0.0201
1 2 17 -0.0681 -0.0225
1 2 18 -0.0308 -0.0247
1 2 19 -0.0008 -0.0258
1 3 0 2.6555 0.0213
1 3 1 2.7316 0.0215
1 3 2 2.7238 0.0176
1 3 3 2.6298 0.0109
1 3 4 2.4270 0.0037
1 3 5 2.1260 -0.0020
1 3 6 1.7928 -0.0047
1 3 7 1.5111 -0.0048
1 3 8 1.3188 -0.0040
1 3 9 1.1793 -0.0040
1 3 10 1.0177 -0.0054
1 3 11 0.7875 -0.0074
1 3 12 0.5111 -0.0090
1 3 13 0.2594 -0.0101
1 3 14 0.0950 -0.0111
1 3 15 0.0285 -0.0131
1 3 16 0.0218 -0.0164
1 3 17 0.0249 -0.0200
1 3 18 0.0101 -0.0225
1 3 19 -0.0212 -0.0224
1 3 20 -0.0551 -0.0192
1 4 0 1.8731 0.0089
1 4 1 1.8802 0.0096
1 4 2 1.8644 0.0077
1 4 3 1.8417 0.0038
1 4 4 1.7772 -0.0004
1 4 5 1.6368 -0.0028
1 4 6 1.4336 -0.0019
1 4 7 1.2234 0.0019
1 4 8 1.0558 0.0064
1 4 9 0.9330 0.0089
1 4 10 0.8153 0.0082
1 4 11 0.6658 0.0052
1 4 12 0.4896 0.0022
1 4 13 0.3304 0.0008
1 4 14 0.2307 0.0004
1 4 15 0.1946 -0.0003
1 4 16 0.1851 -0.0024
1 4 17 0.1567 -0.0054
1 4 18 0.0894 -0.0075
1 4 19 -0.0012 -0.0072
1 4 20 -0.0816 -0.0040
1 5 0 1.1784 -0.0042
1 5 1 1.2313 -0.0040
1 5 2 1.2904 -0.0040
1 5 3 1.3645 -0.0043
1 5 4 1.4030 -0.0046
1 5 5 1.3435 -0.0036
1 5 6 1.1707 0.0000
1 5 7 0.9330 0.0060
1 5 8 0.7048 0.0120
1 5 9 0.5339 0.0150
1 5 10 0.4191 0.0133
1 5 11 0.3329 0.0083
1 5 12 0.2590 0.0035
1 5 13 0.2065 0.0013
1 5 14 0.1921 0.0020
1 5 15 0.2112 0.0037
1 5 16 0.2309 0.0047
1 5 17 0.2123 0.0044
1 5 18 0.1408 0.0040
1 5 19 0.0380 0.0045
1 5 20 -0.0537 0.0064
1 6 0 0.5052 -0.0074
1 6 1 0.6846 -0.0079
1 6 2 0.8818 -0.0068
1 6 3 1.0809 -0.0053
1 6 4 1.2174 -0.0043
1 6 5 1.2171 -0.0033
1 6 6 1.0548 -0.0010
1 6 7 0.7799 0.0030
1 6 8 0.4876 0.0071
1 6 9 0.2598 0.0086
1 6 10 0.1255 0.0057
1 6 11 0.0647 -0.0003
1 6 12 0.0451 -0.0061
1 6 13 0.0506 -0.0086
1 6 14 0.0818 -0.0070
1 6 15 0.1350 -0.0031
1 6 16 0.1877 0.0009
1 6 17 0.2075 0.0040
1 6 18 0.1760 0.0061
1 6 19 0.1048 0.0076
1 6 20 0.0296 0.0081
1 7 0 -0.0415 -0.0039
1 7 1 0.2133 -0.0037
1 7 2 0.4894 -0.0016
1 7 3 0.7543 0.0003
1 7 4 0.9453 0.0003
1 7 5 0.9955 -0.0015
1 7 6 0.8807 -0.0032
1 7 7 0.6460 -0.0032
1 7 8 0.3837 -0.0016
1 7 9 0.1803 -0.0006
1 7 10 0.0712 -0.0020
1 7 11 0.0366 -0.0058
1 7 12 0.0350 -0.0098
1 7 13 0.0414 -0.0114
1 7 14 0.0582 -0.0098
1 7 15 0.0973 -0.0059
1 7 16 0.1557 -0.0014
1 7 17 0.2088 0.0030
1 7 18 0.2274 0.0067
1 7 19 0.2008 0.0094
1 7 20 0.1447 0.0098
1 8 0 -0.2927 -0.0027
1 8 1 -0.0895 -0.0005
1 8 2 0.1252 0.0028
1 8 3 0.3260 0.0049
1 8 4 0.4754 0.0038
1 8 5 0.5336 -0.0003
1 8 6 0.4861 -0.0049
1 8 7 0.3634 -0.0072
1 8 8 0.2301 -0.0060
1 8 9 0.1450 -0.0026
1 8 10 0.1254 0.0006
1 8 11 0.1419 0.0020
1 8 12 0.1499 0.0020
1 8 13 0.1282 0.0016
1 8 14 0.0944 0.0017
1 8 15 0.0859 0.0023
1 8 16 0.1240 0.0035
1 8 17 0.1943 0.0058
1 8 18 0.2556 0.0093
1 8 19 0.2706 0.0127
1 8 20 0.2305 0.0141
1 9 0 -0.2707 -0.0043
1 9 1 -0.1898 -0.0011
1 9 2 -0.1219 0.0025
1 9 3 -0.0696 0.0044
1 9 4 -0.0326 0.0029
1 9 5 -0.0143 -0.0013
1 9 6 -0.0151 -0.0059
1 9 7 -0.0210 -0.0077
1 9 8 -0.0070 -0.0049
1 9 9 0.0446 0.0013
1 9 10 0.1231 0.0085
1 9 11 0.1887 0.0140
1 9 12 0.1991 0.0165
1 9 13 0.1436 0.0159
1 9 14 0.0572 0.0126
1 9 15 -0.0000 0.0081
1 9 16 0.0150 0.0042
1 9 17 0.0971 0.0031
1 9 18 0.1968 0.0054
1 9 19 0.2543 0.0095
1 9 20 0.2387 0.0123
1 10 0 -0.1844 -0.0021
1 10 1 -0.1943 0.0002
1 10 2 -0.2383 0.0019
1 10 3 -0.3017 0.0021
1 10 4 -0.3570 0.0004
1 10 5 -0.3798 -0.0025
1 10 6 -0.3581 -0.0048
1 10 7 -0.2912 -0.0047
1 10 8 -0.1854 -0.0012
1 10 9 -0.0559 0.0047
1 10 10 0.0677 0.0109
1 10 11 0.1444 0.0152
1 10 12 0.1407 0.0160
1 10 13 0.0561 0.0127
1 10 14 -0.0649 0.0059
1 10 15 -0.1521 -0.0025
1 10 16 -0.1511 -0.0091
1 10 17 -0.0593 -0.0112
1 10 18 0.0711 -0.0080
1 10 19 0.1679 -0.0021
1 10 20 0.1850 0.0023
1 11 0 -0.1766 0.0052
1 11 1 -0.2156 0.0054
1 11 2 -0.2838 0.0041
1 11 3 -0.3681 0.0017
1 11 4 -0.4382 -0.0005
1 11 5 -0.4627 -0.0016
1 11 6 -0.4255 -0.0009
1 11 7 -0.3320 0.0011
1 11 8 -0.2032 0.0037
1 11 9 -0.0674 0.0057
1 11 10 0.0438 0.0062
1 11 11 0.0989 0.0047
1 11 12 0.0758 0.0008
1 11 13 -0.0213 -0.0057
1 11 14 -0.1517 -0.0141
1 11 15 -0.2500 -0.0221
1 11 16 -0.2610 -0.0266
1 11 17 -0.1752 -0.0248
1 11 18 -0.0385 -0.0172
1 11 19 0.0767 -0.0077
1 12 0 -0.2002 0.0093
1 12 1 -0.2484 0.0091
1 12 2 -0.2948 0.0057
1 12 3 -0.3411 0.0011
1 12 4 -0.3749 -0.0019
1 12 5 -0.3756 -0.0015
1 12 6 -0.3300 0.0019
1 12 7 -0.2432 0.0058
1 12 8 -0.1352 0.0075
1 12 9 -0.0308 0.0057
1 12 10 0.0481 0.0008
1 12 11 0.0828 -0.0057
1 12 12 0.0591 -0.0127
1 12 13 -0.0230 -0.0196
1 12 14 -0.1382 -0.0261
1 12 15 -0.2368 -0.0304
1 12 16 -0.2679 -0.0298
1 12 17 -0.2127 -0.0223
1 12 18 -0.1011 -0.0091
1 12 19 0.0056 0.0044
1 13 0 -0.1710 0.0066
1 13 1 -0.2380 0.0089
1 13 2 -0.2673 0.0057
1 13 3 -0.2762 -0.0004
1 13 4 -0.2758 -0.0050
1 13 5 -0.2627 -0.0050
1 13 6 -0.2284 -0.0007
1 13 7 -0.1721 0.0045
1 13 8 -0.1037 0.0068
1 13 9 -0.0368 0.0046
1 13 10 0.0179 -0.0008
1 13 11 0.0509 -0.0067
1 13 12 0.0495 -0.0113
1 13 13 0.0026 -0.0144
1 13 14 -0.0842 -0.0167
1 13 15 -0.1797 -0.0175
1 13 16 -0.2378 -0.0144
1 13 17 -0.2272 -0.0050
1 13 18 -0.1557 0.0097
1 14 0 -0.1268 0.0070
1 14 1 -0.2025 0.0140
1 14 2 -0.2188 0.0125
1 14 3 -0.2024 0.0049
1 14 4 -0.1821 -0.0032
1 14 5 -0.1686 -0.0069
1 14 6 -0.1561 -0.0052
1 14 7 -0.1361 -0.0009
1 14 8 -0.1067 0.0022
1 14 9 -0.0706 0.0024
1 14 10 -0.0308 0.0013
1 14 11 0.0072 0.0014
1 14 12 0.0290 0.0039
1 14 13 0.0139 0.0072
1 14 14 -0.0489 0.0089
1 14 15 -0.1427 0.0084
1 14 16 -0.2248 0.0082
1 14 17 -0.2525 0.0121
1 15 0 -0.1519 0.0213
1 15 1 -0.2061 0.0327
1 15 2 -0.1957 0.0327
1 15 3 -0.1495 0.0231
1 15 4 -0.1052 0.0101
1 15 5 -0.0817 0.0001
1 15 6 -0.0750 -0.0038
1 15 7 -0.0714 -0.0032
1 15 8 -0.0617 -0.0009
1 15 9 -0.0430 0.0014
1 15 10 -0.0151 0.0051
1 15 11 0.0185 0.0119
1 15 12 0.0448 0.0217
1 15 13 0.0410 0.0311
1 15 14 -0.0102 0.0354
1 15 15 -0.1011 0.0328
1 15 16 -0.1938 0.0258
1 16 0 -0.2176 0.0422
1 16 1 -0.2416 0.0554
1 16 2 -0.2053 0.0557
1 16 3 -0.1338 0.0444
1 16 4 -0.0644 0.0276
1 16 5 -0.0189 0.0125
1 16 6 0.0045 0.0034
1 16 7 0.0191 0.0001
1 16 8 0.0343 0.0001
1 16 9 0.0520 0.0021
1 16 10 0.0717 0.0069
1 16 11 0.0923 0.0163
1 16 12 0.1071 0.0294
1 16 13 0.1001 0.0417
1 16 14 0.0561 0.0477
1 17 5 -0.0107 0.0166
1 17 6 0.0271 0.0069
1 17 7 0.0590 0.0025
1 17 8 0.0892 0.0010
1 17 9 0.1145 0.0010
1 17 10 0.1311 0.0031
1 17 11 0.1399 0.0095
2 -14 0 -0.0514 -0.0385
2 -14 1 0.0122 -0.0275
2 -14 2 0.0951 -0.0161
2 -13 0 -0.0430 -0.0109
2 -13 1 0.0267 -0.0057
2 -13 2 0.1236 -0.0017
2 -13 3 0.2057 -0.0027
2 -13 4 0.2288 -0.0088
2 -12 0 -0.1575 0.0103
2 -12 1 -0.1253 0.0110
2 -12 2 -0.0505 0.0103
2 -12 3 0.0353 0.0062
2 -12 4 0.0884 -0.0008
2 -12 5 0.0850 -0.0073
2 -12 6 0.0389 -0.0095
2 -11 0 -0.2377 0.0094
2 -11 1 -0.2725 0.0085
2 -11 2 -0.2631 0.0076
2 -11 3 -0.2234 0.0062
2 -11 4 -0.1824 0.0043
2 -11 5 -0.1616 0.0037
2 -11 6 -0.1587 0.0062
2 -11 7 -0.1516 0.0121
2 -11 8 -0.1204 0.0194
2 -10 0 -0.1534 -0.0038
2 -10 1 -0.2152 -0.0047
2 -10 2 -0.2640 -0.0040
2 -10 3 -0.2968 -0.0016
2 -10 4 -0.3167 0.0021
2 -10 5 -0.3262 0.0069
2 -10 6 -0.3204 0.0126
2 -10 7 -0.2890 0.0187
2 -10 8 -0.2265 0.0238
2 -10 9 -0.1410 0.0253
2 -9 0 0.0106 -0.0080
2 -9 1 0.0029 -0.0089
2 -9 2 -0.0454 -0.0080
2 -9 3 -0.1245 -0.0050
2 -9 4 -0.2095 -0.0006
2 -9 5 -0.2734 0.0042
2 -9 6 -0.2991 0.0082
2 -9 7 -0.2841 0.0108
2 -9 8 -0.2388 0.0115
2 -9 9 -0.1791 0.0094
2 -9 10 -0.1191 0.0037
2 -9 11 -0.0664 -0.0047
2 -8 0 0.0767 0.0013
2 -8 1 0.1483 0.0009
2 -8 2 0.1348 0.0006
2 -8 3 0.0448 0.0012
2 -8 4 -0.0725 0.0023
2 -8 5 -0.1611 0.0030
2 -8 6 -0.1921 0.0021
2 -8 7 -0.1770 -0.0006
2 -8 8 -0.1510 -0.0043
2 -8 9 -0.1447 -0.0088
2 -8 10 -0.1636 -0.0142
2 -8 11 -0.1896 -0.0204
2 -8 12 -0.1983 -0.0256
2 -7 0 0.0308 0.0091
2 -7 1 0.1092 0.0101
2 -7 2 0.0876 0.0092
2 -7 3 -0.0250 0.0075
2 -7 4 -0.1586 0.0058
2 -7 5 -0.2325 0.0034
2 -7 6 -0.2128 -0.0004
2 -7 7 -0.1349 -0.0055
2 -7 8 -0.0735 -0.0108
2 -7 9 -0.0868 -0.0153
2 -7 10 -0.1771 -0.0192
2 -7 11 -0.2946 -0.0234
2 -7 12 -0.3754 -0.0274
2 -7 13 -0.3830 -0.0287
2 -6 0 0.0253 0.0047
2 -6 1 0.0234 0.0068
2 -6 2 -0.0716 0.0059
2 -6 3 -0.2457 0.0040
2 -6 4 -0.4120 0.0025
2 -6 5 -0.4696 0.0013
2 -6 6 -0.3814 -0.0008
2 -6 7 -0.2085 -0.0038
2 -6 8 -0.0698 -0.0067
2 -6 9 -0.0601 -0.0084
2 -6 10 -0.1863 -0.0097
2 -6 11 -0.3699 -0.0126
2 -6 12 -0.5050 -0.0178
2 -6 13 -0.5252 -0.0232
2 -6 14 -0.4333 -0.0245
2 -5 0 0.1447 -0.0037
2 -5 1 0.0681 -0.0023
2 -5 2 -0.0886 -0.0037
2 -5 3 -0.3139 -0.0052
2 -5 4 -0.5163 -0.0050
2 -5 5 -0.5818 -0.0032
2 -5 6 -0.4654 -0.0014
2 -5 7 -0.2391 -0.0004
2 -5 8 -0.0518 0.0009
2 -5 9 -0.0280 0.0032
2 -5 10 -0.1832 0.0055
2 -5 11 -0.4184 0.0046
2 -5 12 -0.5929 -0.0015
2 -5 13 -0.6143 -0.0113
2 -5 14 -0.4833 -0.0197
2 -5 15 -0.2726 -0.0221
2 -4 0 0.3346 -0.0029
2 -4 1 0.2727 -0.0037
2 -4 2 0.1480 -0.0065
2 -4 3 -0.0513 -0.0087
2 -4 4 -0.2526 -0.0082
2 -4 5 -0.3414 -0.0053
2 -4 6 -0.2566 -0.0021
2 -4 7 -0.0565 0.0005
2 -4 8 0.1093 0.0035
2 -4 9 0.1039 0.0084
2 -4 10 -0.0963 0.0140
2 -4 11 -0.3851 0.0164
2 -4 12 -0.6031 0.0119
2 -4 13 -0.6421 0.0009
2 -4 14 -0.5022 -0.0118
2 -4 15 -0.2695 -0.0198
2 -4 16 -0.0482 -0.0204
2 -3 0 0.6144 0.0056
2 -3 1 0.6313 0.0033
2 -3 2 0.6109 -0.0008
2 -3 3 0.4984 -0.0039
2 -3 4 0.3253 -0.0044
2 -3 5 0.1952 -0.0031
2 -3 6 0.1933 -0.0021
2 -3 7 0.3009 -0.0022
2 -3 8 0.3971 -0.0015
2 -3 9 0.3500 0.0023
2 -3 10 0.1238 0.0091
2 -3 11 -0.1896 0.0145
2 -3 12 -0.4372 0.0137
2 -3 13 -0.5113 0.0050
2 -3 14 -0.4121 -0.0077
2 -3 15 -0.2271 -0.0177
2 -3 16 -0.0583 -0.0207
2 -2 0 1.1755 0.0086
2 -2 1 1.2541 0.0064
2 -2 2 1.3157 0.0031
2 -2 3 1.2579 0.0008
2 -2 4 1.0665 0.0004
2 -2 5 0.8332 0.0007
2 -2 6 0.6768 -0.0008
2 -2 7 0.6387 -0.0046
2 -2 8 0.6483 -0.0082
2 -2 9 0.5891 -0.0079
2 -2 10 0.4027 -0.0028
2 -2 11 0.1404 0.0038
2 -2 12 -0.0807 0.0062
2 -2 13 -0.1719 0.0015
2 -2 14 -0.1350 -0.0081
2 -2 15 -0.0469 -0.0166
2 -2 16 0.0102 -0.0191
2 -2 17 0.0052 -0.0150
2 -1 0 2.0907 0.0002
2 -1 1 2.2001 -0.0008
2 -1 2 2.2811 -0.0018
2 -1 3 2.1961 -0.0012
2 -1 4 1.8976 0.0013
2 -1 5 1.4743 0.0037
2 -1 6 1.0866 0.0032
2 -1 7 0.8466 -0.0012
2 -1 8 0.7461 -0.0069
2 -1 9 0.6890 -0.0098
2 -1 10 0.5880 -0.0076
2 -1 11 0.4366 -0.0022
2 -1 12 0.2962 0.0017
2 -1 13 0.2245 0.0005
2 -1 14 0.2171 -0.0049
2 -1 15 0.2155 -0.0097
2 -1 16 0.1643 -0.0096
2 -1 17 0.0608 -0.0038
2 -1 18 -0.0480 0.0043
2 0 0 3.0156 -0.0102
2 0 1 3.1872 -0.0106
2 0 2 3.2818 -0.0099
2 0 3 3.1470 -0.0066
2 0 4 2.7194 -0.0008
2 0 5 2.0906 0.0053
2 0 6 1.4575 0.0085
2 0 7 0.9956 0.0071
2 0 8 0.7571 0.0026
2 0 9 0.6703 -0.0012
2 0 10 0.6254 -0.0014
2 0 11 0.5617 0.0018
2 0 12 0.4883 0.0054
2 0 13 0.4358 0.0063
2 0 14 0.4033 0.0047
2 0 15 0.3532 0.0037
2 0 16 0.2530 0.0067
2 0 17 0.1153 0.0140
2 0 18 -0.0069 0.0222
2 1 0 3.4082 -0.0098
2 1 1 3.6913 -0.0108
2 1 2 3.8446 -0.0107
2 1 3 3.7225 -0.0081
2 1 4 3.2595 -0.0025
2 1 5 2.5428 0.0044
2 1 6 1.7801 0.0096
2 1 7 1.1790 0.0111
2 1 8 0.8315 0.0089
2 1 9 0.6893 0.0056
2 1 10 0.6344 0.0039
2 1 11 0.5755 0.0050
2 1 12 0.4923 0.0073
2 1 13 0.4078 0.0090
2 1 14 0.3367 0.0096
2 1 15 0.2646 0.0109
2 1 16 0.1729 0.0149
2 1 17 0.0707 0.0217
2 1 18 -0.0040 0.0284
2 1 19 -0.0185 0.0310
2 2 0 3.0864 0.0020
2 2 1 3.4424 0.0003
2 2 2 3.6503 -0.0019
2 2 3 3.5966 -0.0031
2 2 4 3.2248 -0.0023
2 2 5 2.6033 0.0004
2 2 6 1.9119 0.0033
2 2 7 1.3438 0.0046
2 2 8 0.9971 0.0034
2 2 9 0.8367 0.0008
2 2 10 0.7502 -0.0015
2 2 11 0.6418 -0.0021
2 2 12 0.4882 -0.0012
2 2 13 0.3242 0.0003
2 2 14 0.1896 0.0014
2 2 15 0.0941 0.0027
2 2 16 0.0256 0.0051
2 2 17 -0.0219 0.0089
2 2 18 -0.0371 0.0124
2 2 19 -0.0099 0.0132
2 3 0 2.4056 0.0135
2 3 1 2.7039 0.0126
2 3 2 2.8765 0.0091
2 3 3 2.8652 0.0042
2 3 4 2.6332 -0.0004
2 3 5 2.2200 -0.0036
2 3 6 1.7471 -0.0050
2 3 7 1.3554 -0.0056
2 3 8 1.1191 -0.0063
2 3 9 1.0071 -0.0079
2 3 10 0.9218 -0.0099
2 3 11 0.7801 -0.0113
2 3 12 0.5693 -0.0114
2 3 13 0.3399 -0.0106
2 3 14 0.1529 -0.0100
2 3 15 0.0361 -0.0101
2 3 16 -0.0209 -0.0107
2 3 17 -0.0402 -0.0112
2 3 18 -0.0343 -0.0114
2 3 19 -0.0078 -0.0119
2 4 0 1.8095 0.0137
2 4 1 1.9576 0.0150
2 4 2 2.0187 0.0129
2 4 3 1.9945 0.0080
2 4 4 1.8710 0.0019
2 4 5 1.6569 -0.0036
2 4 6 1.4072 -0.0068
2 4 7 1.1995 -0.0074
2 4 8 1.0783 -0.0066
2 4 9 1.0201 -0.0060
2 4 10 0.9534 -0.0065
2 4 11 0.8172 -0.0078
2 4 12 0.6089 -0.0088
2 4 13 0.3815 -0.0088
2 4 14 0.1992 -0.0089
2 4 15 0.0925 -0.0101
2 4 16 0.0479 -0.0130
2 4 17 0.0321 -0.0167
2 4 18 0.0210 -0.0198
2 4 19 0.0081 -0.0212
2 4 20 -0.0052 -0.0207
2 5 0 1.3589 0.0040
2 5 1 1.4052 0.0068
2 5 2 1.4011 0.0076
2 5 3 1.3835 0.0061
2 5 4 1.3476 0.0029
2 5 5 1.2720 -0.0004
2 5 6 1.1562 -0.0017
2 5 7 1.0294 -0.0001
2 5 8 0.9240 0.0036
2 5 9 0.8423 0.0068
2 5 10 0.7540 0.0076
2 5 11 0.6276 0.0059
2 5 12 0.4640 0.0036
2 5 13 0.3013 0.0022
2 5 14 0.1845 0.0017
2 5 15 0.1307 0.0008
2 5 16 0.1188 -0.0018
2 5 17 0.1104 -0.0059
2 5 18 0.0796 -0.0096
2 5 19 0.0270 -0.0113
2 5 20 -0.0292 -0.0103
2 6 0 0.8386 -0.0054
2 6 1 0.9130 -0.0030
2 6 2 0.9749 -0.0004
2 6 3 1.0563 0.0015
2 6 4 1.1388 0.0020
2 6 5 1.1709 0.0019
2 6 6 1.1144 0.0028
2 6 7 0.9748 0.0061
2 6 8 0.7937 0.0111
2 6 9 0.6146 0.0152
2 6 10 0.4579 0.0159
2 6 11 0.3235 0.0128
2 6 12 0.2111 0.0081
2 6 13 0.1325 0.0048
2 6 14 0.1017 0.0040
2 6 15 0.1158 0.0045
2 6 16 0.1471 0.0046
2 6 17 0.1583 0.0034
2 6 18 0.1270 0.0017
2 6 19 0.0596 0.0009
2 6 20 -0.0149 0.0016
2 7 0 0.2074 -0.0070
2 7 1 0.3732 -0.0064
2 7 2 0.5701 -0.0040
2 7 3 0.7986 -0.0008
2 7 4 1.0141 0.0012
2 7 5 1.1427 0.0016
2 7 6 1.1269 0.0018
2 7 7 0.9657 0.0034
2 7 8 0.7164 0.0068
2 7 9 0.4587 0.0097
2 7 10 0.2535 0.0095
2 7 11 0.1229 0.0054
2 7 12 0.0605 -0.0006
2 7 13 0.0514 -0.0052
2 7 14 0.0823 -0.0063
2 7 15 0.1374 -0.0043
2 7 16 0.1921 -0.0012
2 7 17 0.2178 0.0015
2 7 18 0.1965 0.0032
2 7 19 0.1340 0.0045
2 7 20 0.0573 0.0052
2 8 0 -0.2830 -0.0037
2 8 1 -0.0833 -0.0041
2 8 2 0.1803 -0.0022
2 8 3 0.4798 0.0006
2 8 4 0.7562 0.0020
2 8 5 0.9328 0.0007
2 8 6 0.9526 -0.0023
2 8 7 0.8154 -0.0043
2 8 8 0.5824 -0.0039
2 8 9 0.3439 -0.0021
2 8 10 0.1719 -0.0014
2 8 11 0.0916 -0.0034
2 8 12 0.0852 -0.0075
2 8 13 0.1189 -0.0111
2 8 14 0.1667 -0.0119
2 8 15 0.2160 -0.0096
2 8 16 0.2586 -0.0055
2 8 17 0.2819 -0.0010
2 8 18 0.2723 0.0029
2 8 19 0.2257 0.0057
2 8 20 0.1547 0.0069
2 9 0 -0.4272 -0.0019
2 9 1 -0.2851 -0.0018
2 9 2 -0.0793 0.0001
2 9 3 0.1558 0.0026
2 9 4 0.3717 0.0033
2 9 5 0.5137 0.0005
2 9 6 0.5434 -0.0046
2 9 7 0.4634 -0.0092
2 9 8 0.3220 -0.0103
2 9 9 0.1892 -0.0077
2 9 10 0.1183 -0.0034
2 9 11 0.1190 -0.0001
2 9 12 0.1615 0.0010
2 9 13 0.2050 0.0005
2 9 14 0.2276 0.0002
2 9 15 0.2345 0.0009
2 9 16 0.2426 0.0028
2 9 17 0.2588 0.0055
2 9 18 0.2707 0.0086
2 9 19 0.2578 0.0111
2 9 20 0.2097 0.0121
2 10 0 -0.3303 -0.0020
2 10 1 -0.2732 -0.0013
2 10 2 -0.1816 0.0005
2 10 3 -0.0801 0.0026
2 10 4 0.0092 0.0033
2 10 5 0.0673 0.0010
2 10 6 0.0831 -0.0037
2 10 7 0.0622 -0.0080
2 10 8 0.0300 -0.0088
2 10 9 0.0201 -0.0046
2 10 10 0.0520 0.0030
2 10 11 0.1149 0.0110
2 10 12 0.1729 0.0165
2 10 13 0.1913 0.0186
2 10 14 0.1630 0.0176
2 10 15 0.1159 0.0152
2 10 16 0.0910 0.0128
2 10 17 0.1105 0.0118
2 10 18 0.1603 0.0123
2 10 19 0.2010 0.0134
2 10 20 0.1978 0.0135
2 11 0 -0.2342 0.0007
2 11 1 -0.2312 0.0007
2 11 2 -0.2220 0.0008
2 11 3 -0.2205 0.0015
2 11 4 -0.2278 0.0021
2 11 5 -0.2337 0.0015
2 11 6 -0.2264 -0.0007
2 11 7 -0.1982 -0.0030
2 11 8 -0.1455 -0.0031
2 11 9 -0.0689 0.0006
2 11 10 0.0219 0.0076
2 11 11 0.1034 0.0153
2 11 12 0.1434 0.0208
2 11 13 0.1203 0.0218
2 11 14 0.0430 0.0183
2 11 15 -0.0451 0.0122
2 11 16 -0.0896 0.0064
2 11 17 -0.0603 0.0031
2 11 18 0.0263 0.0030
2 11 19 0.1172 0.0043
2 12 0 -0.2117 0.0065
2 12 1 -0.2414 0.0051
2 12 2 -0.2667 0.0025
2 12 3 -0.2997 0.0005
2 12 4 -0.3373 -0.0000
2 12 5 -0.3595 0.0007
2 12 6 -0.3444 0.0014
2 12 7 -0.2834 0.0014
2 12 8 -0.1854 0.0013
2 12 9 -0.0708 0.0023
2 12 10 0.0364 0.0049
2 12 11 0.1112 0.0080
2 12 12 0.1309 0.0091
2 12 13 0.0854 0.0063
2 12 14 -0.0100 -0.0007
2 12 15 -0.1111 -0.0094
2 12 16 -0.1633 -0.0162
2 12 17 -0.1349 -0.0182
2 12 18 -0.0403 -0.0150
2 12 19 0.0664 -0.0098
2 13 0 -0.1678 0.0094
2 13 1 -0.2380 0.0084
2 13 2 -0.2819 0.0041
2 13 3 -0.3161 -0.0009
2 13 4 -0.3481 -0.0036
2 13 5 -0.3659 -0.0031
2 13 6 -0.3488 -0.0008
2 13 7 -0.2866 0.0009
2 13 8 -0.1891 0.0010
2 13 9 -0.0793 -0.0002
2 13 10 0.0186 -0.0013
2 13 11 0.0856 -0.0024
2 13 12 0.1077 -0.0048
2 13 13 0.0775 -0.0104
2 13 14 0.0036 -0.0195
2 13 15 -0.0830 -0.0293
2 13 16 -0.1378 -0.0354
2 13 17 -0.1291 -0.0343
2 13 18 -0.0617 -0.0260
2 14 0 -0.0767 0.0079
2 14 1 -0.1820 0.0104
2 14 2 -0.2355 0.0068
2 14 3 -0.2592 -0.0001
2 14 4 -0.2770 -0.0060
2 14 5 -0.2929 -0.0081
2 14 6 -0.2931 -0.0069
2 14 7 -0.2642 -0.0049
2 14 8 -0.2073 -0.0041
2 14 9 -0.1362 -0.0047
2 14 10 -0.0660 -0.0052
2 14 11 -0.0075 -0.0051
2 14 12 0.0296 -0.0059
2 14 13 0.0340 -0.0099
2 14 14 -0.0001 -0.0180
2 14 15 -0.0611 -0.0279
2 14 16 -0.1186 -0.0341
2 14 17 -0.1395 -0.0321
2 15 0 -0.0488 0.0100
2 15 1 -0.1482 0.0182
2 15 2 -0.1807 0.0172
2 15 3 -0.1719 0.0091
2 15 4 -0.1597 -0.0007
2 15 5 -0.1643 -0.0076
2 15 6 -0.1798 -0.0102
2 15 7 -0.1895 -0.0100
2 15 8 -0.1834 -0.0089
2 15 9 -0.1625 -0.0071
2 15 10 -0.1309 -0.0035
2 15 11 -0.0920 0.0023
2 15 12 -0.0522 0.0079
2 15 13 -0.0268 0.0096
2 15 14 -0.0337 0.0048
2 15 15 -0.0775 -0.0046
2 15 16 -0.1391 -0.0130
2 16 0 -0.1399 0.0218
2 16 1 -0.1963 0.0347
2 16 2 -0.1823 0.0361
2 16 3 -0.1237 0.0273
2 16 4 -0.0653 0.0141
2 16 5 -0.0376 0.0024
2 16 6 -0.0419 -0.0048
2 16 7 -0.0613 -0.0077
2 16 8 -0.0795 -0.0076
2 16 9 -0.0892 -0.0045
2 16 10 -0.0882 0.0025
2 16 11 -0.0745 0.0134
2 16 12 -0.0508 0.0251
2 16 13 -0.0302 0.0326
2 16 14 -0.0335 0.0318
2 16 15 -0.0725 0.0235
2 17 3 -0.1267 0.0416
2 17 4 -0.0405 0.0275
2 17 5 0.0157 0.0141
2 17 6 0.0368 0.0049
2 17 7 0.0362 0.0001
2 17 8 0.0289 -0.0012
2 17 9 0.0215 0.0008
2 17 10 0.0155 0.0071
2 17 11 0.0136 0.0180
2 17 12 0.0179 0.0308
3 -14 0 -0.1241 -0.0443
3 -13 0 -0.0308 -0.0289
3 -13 1 0.0156 -0.0258
3 -13 2 0.0917 -0.0213
3 -13 3 0.1657 -0.0195
3 -12 0 -0.0675 0.0004
3 -12 1 -0.0270 -0.0015
3 -12 2 0.0534 -0.0046
3 -12 3 0.1493 -0.0107
3 -12 4 0.2161 -0.0200
3 -12 5 0.2213 -0.0300
3 -11 0 -0.1883 0.0199
3 -11 1 -0.2049 0.0158
3 -11 2 -0.1673 0.0097
3 -11 3 -0.0863 0.0016
3 -11 4 -0.0005 -0.0080
3 -11 5 0.0499 -0.0170
3 -11 6 0.0514 -0.0224
3 -11 7 0.0225 -0.0214
3 -10 0 -0.2034 0.0159
3 -10 1 -0.2875 0.0126
3 -10 2 -0.3223 0.0083
3 -10 3 -0.3037 0.0041
3 -10 4 -0.2551 0.0007
3 -10 5 -0.2094 -0.0018
3 -10 6 -0.1856 -0.0021
3 -10 7 -0.1782 0.0009
3 -10 8 -0.1676 0.0079
3 -9 0 -0.0538 0.0007
3 -9 1 -0.1377 -0.0014
3 -9 2 -0.2057 -0.0030
3 -9 3 -0.2498 -0.0025
3 -9 4 -0.2743 0.0004
3 -9 5 -0.2902 0.0046
3 -9 6 -0.3037 0.0090
3 -9 7 -0.3108 0.0136
3 -9 8 -0.2996 0.0192
3 -9 9 -0.2608 0.0251
3 -9 10 -0.1957 0.0288
3 -8 0 0.0964 -0.0043
3 -8 1 0.0971 -0.0061
3 -8 2 0.0701 -0.0073
3 -8 3 0.0108 -0.0057
3 -8 4 -0.0703 -0.0012
3 -8 5 -0.1543 0.0047
3 -8 6 -0.2231 0.0096
3 -8 7 -0.2660 0.0130
3 -8 8 -0.2797 0.0158
3 -8 9 -0.2645 0.0190
3 -8 10 -0.2227 0.0210
3 -8 11 -0.1596 0.0193
3 -7 0 0.1059 0.0041
3 -7 1 0.1958 0.0027
3 -7 2 0.2291 0.0003
3 -7 3 0.1808 -0.0005
3 -7 4 0.0722 0.0014
3 -7 5 -0.0469 0.0044
3 -7 6 -0.1319 0.0063
3 -7 7 -0.1690 0.0059
3 -7 8 -0.1737 0.0049
3 -7 9 -0.1690 0.0051
3 -7 10 -0.1652 0.0061
3 -7 11 -0.1566 0.0052
3 -7 12 -0.1340 0.0003
3 -6 0 0.0675 0.0107
3 -6 1 0.1663 0.0104
3 -6 2 0.1988 0.0073
3 -6 3 0.1260 0.0041
3 -6 4 -0.0188 0.0030
3 -6 5 -0.1552 0.0030
3 -6 6 -0.2150 0.0019
3 -6 7 -0.1890 -0.0016
3 -6 8 -0.1252 -0.0058
3 -6 9 -0.0855 -0.0081
3 -6 10 -0.0996 -0.0082
3 -6 11 -0.1505 -0.0087
3 -6 12 -0.1977 -0.0127
3 -6 13 -0.2120 -0.0196
3 -5 0 0.1508 0.0051
3 -5 1 0.1926 0.0060
3 -5 2 0.1646 0.0032
3 -5 3 0.0244 -0.0001
3 -5 4 -0.1819 -0.0015
3 -5 5 -0.3469 -0.0013
3 -5 6 -0.3818 -0.0021
3 -5 7 -0.2840 -0.0056
3 -5 8 -0.1376 -0.0102
3 -5 9 -0.0496 -0.0130
3 -5 10 -0.0744 -0.0129
3 -5 11 -0.1847 -0.0129
3 -5 12 -0.3036 -0.0166
3 -5 13 -0.3636 -0.0244
3 -5 14 -0.3445 -0.0318
3 -4 0 0.3345 -0.0047
3 -4 1 0.3399 -0.0037
3 -4 2 0.2751 -0.0056
3 -4 3 0.0948 -0.0077
3 -4 4 -0.1524 -0.0072
3 -4 5 -0.3446 -0.0045
3 -4 6 -0.3775 -0.0026
3 -4 7 -0.2486 -0.0035
3 -4 8 -0.0658 -0.0059
3 -4 9 0.0301 -0.0064
3 -4 10 -0.0349 -0.0038
3 -4 11 -0.2230 -0.0012
3 -4 12 -0.4225 -0.0033
3 -4 13 -0.5286 -0.0121
3 -4 14 -0.5037 -0.0236
3 -4 15 -0.3795 -0.0303
3 -3 0 0.4860 -0.0065
3 -3 1 0.5130 -0.0059
3 -3 2 0.4870 -0.0075
3 -3 3 0.3488 -0.0085
3 -3 4 0.1284 -0.0067
3 -3 5 -0.0598 -0.0024
3 -3 6 -0.1032 0.0012
3 -3 7 0.0108 0.0021
3 -3 8 0.1740 0.0017
3 -3 9 0.2335 0.0039
3 -3 10 0.1058 0.0100
3 -3 11 -0.1647 0.0168
3 -3 12 -0.4431 0.0178
3 -3 13 -0.5994 0.0091
3 -3 14 -0.5852 -0.0065
3 -3 15 -0.4408 -0.0211
3 -3 16 -0.2470 -0.0274
3 -2 0 0.6678 0.0000
3 -2 1 0.7250 0.0003
3 -2 2 0.7690 -0.0013
3 -2 3 0.7167 -0.0025
3 -2 4 0.5590 -0.0012
3 -2 5 0.3848 0.0019
3 -2 6 0.3088 0.0041
3 -2 7 0.3678 0.0036
3 -2 8 0.4782 0.0024
3 -2 9 0.4978 0.0046
3 -2 10 0.3390 0.0124
3 -2 11 0.0391 0.0220
3 -2 12 -0.2686 0.0259
3 -2 13 -0.4520 0.0183
3 -2 14 -0.4633 0.0001
3 -2 15 -0.3489 -0.0208
3 -2 16 -0.1955 -0.0350
3 -2 17 -0.0681 -0.0382
3 -1 0 1.1195 0.0049
3 -1 1 1.1754 0.0052
3 -1 2 1.2585 0.0037
3 -1 3 1.2575 0.0021
3 -1 4 1.1186 0.0022
3 -1 5 0.8997 0.0032
3 -1 6 0.7217 0.0028
3 -1 7 0.6613 -0.0006
3 -1 8 0.6835 -0.0048
3 -1 9 0.6748 -0.0053
3 -1 10 0.5446 0.0005
3 -1 11 0.3034 0.0098
3 -1 12 0.0518 0.0149
3 -1 13 -0.1035 0.0089
3 -1 14 -0.1287 -0.0085
3 -1 15 -0.0734 -0.0303
3 -1 16 -0.0157 -0.0467
3 -1 17 0.0001 -0.0516
3 0 0 1.8378 0.0028
3 0 1 1.9116 0.0030
3 0 2 2.0214 0.0017
3 0 3 2.0303 0.0005
3 0 4 1.8466 0.0008
3 0 5 1.5045 0.0019
3 0 6 1.1392 0.0014
3 0 7 0.8804 -0.0024
3 0 8 0.7582 -0.0081
3 0 9 0.7017 -0.0115
3 0 10 0.6194 -0.0092
3 0 11 0.4830 -0.0028
3 0 12 0.3402 0.0018
3 0 13 0.2542 -0.0017
3 0 14 0.2375 -0.0145
3 0 15 0.2407 -0.0310
3 0 16 0.2024 -0.0425
3 0 17 0.1059 -0.0430
3 0 18 -0.0099 -0.0331
3 1 0 2.3869 -0.0012
3 1 1 2.5663 -0.0020
3 1 2 2.7556 -0.0036
3 1 3 2.7988 -0.0041
3 1 4 2.5796 -0.0021
3 1 5 2.1173 0.0015
3 1 6 1.5617 0.0041
3 1 7 1.0912 0.0034
3 1 8 0.8002 -0.0003
3 1 9 0.6639 -0.0041
3 1 10 0.5960 -0.0045
3 1 11 0.5338 -0.0012
3 1 12 0.4740 0.0024
3 1 13 0.4399 0.0018
3 1 14 0.4288 -0.0043
3 1 15 0.3982 -0.0121
3 1 16 0.3052 -0.0154
3 1 17 0.1530 -0.0096
3 1 18 -0.0031 0.0038
3 2 0 2.3320 -0.0005
3 2 1 2.6664 -0.0030
3 2 2 2.9751 -0.0057
3 2 3 3.1010 -0.0065
3 2 4 2.9222 -0.0041
3 2 5 2.4476 0.0010
3 2 6 1.8262 0.0064
3 2 7 1.2568 0.0094
3 2 8 0.8713 0.0090
3 2 9 0.6783 0.0068
3 2 10 0.5999 0.0054
3 2 11 0.5543 0.0063
3 2 12 0.5081 0.0087
3 2 13 0.4659 0.0103
3 2 14 0.4274 0.0100
3 2 15 0.3676 0.0094
3 2 16 0.2604 0.0123
3 2 17 0.1155 0.0212
3 2 18 -0.0166 0.0344
3 2 19 -0.0804 0.0463
3 3 0 1.7722 0.0048
3 3 1 2.1773 0.0014
3 3 2 2.5336 -0.0025
3 3 3 2.7148 -0.0050
3 3 4 2.6198 -0.0049
3 3 5 2.2521 -0.0020
3 3 6 1.7359 0.0022
3 3 7 1.2484 0.0056
3 3 8 0.9159 0.0068
3 3 9 0.7540 0.0058
3 3 10 0.6904 0.0041
3 3 11 0.6400 0.0036
3 3 12 0.5633 0.0049
3 3 13 0.4690 0.0072
3 3 14 0.3760 0.0096
3 3 15 0.2841 0.0121
3 3 16 0.1816 0.0162
3 3 17 0.0731 0.0230
3 3 18 -0.0106 0.0315
3 3 19 -0.0357 0.0381
3 4 0 1.2213 0.0087
3 4 1 1.5394 0.0066
3 4 2 1.7956 0.0031
3 4 3 1.9265 -0.0005
3 4 4 1.8772 -0.0034
3 4 5 1.6517 -0.0049
3 4 6 1.3330 -0.0051
3 4 7 1.0422 -0.0044
3 4 8 0.8649 -0.0040
3 4 9 0.8022 -0.0044
3 4 10 0.7856 -0.0056
3 4 11 0.7391 -0.0066
3 4 12 0.6333 -0.0062
3 4 13 0.4919 -0.0043
3 4 14 0.3551 -0.0017
3 4 15 0.2441 0.0006
3 4 16 0.1557 0.0022
3 4 17 0.0836 0.0038
3 4 18 0.0353 0.0057
3 4 19 0.0240 0.0070
3 4 20 0.0472 0.0057
3 5 0 0.9735 0.0061
3 5 1 1.1282 0.0070
3 5 2 1.2106 0.0064
3 5 3 1.2279 0.0043
3 5 4 1.1760 0.0009
3 5 5 1.0613 -0.0031
3 5 6 0.9199 -0.0065
3 5 7 0.8075 -0.0082
3 5 8 0.7606 -0.0082
3 5 9 0.7659 -0.0075
3 5 10 0.7688 -0.0073
3 5 11 0.7156 -0.0077
3 5 12 0.5948 -0.0078
3 5 13 0.4406 -0.0066
3 5 14 0.3020 -0.0047
3 5 15 0.2058 -0.0035
3 5 16 0.1475 -0.0043
3 5 17 0.1081 -0.0071
3 5 18 0.0770 -0.0105
3 5 19 0.0559 -0.0132
3 5 20 0.0464 -0.0148
3 6 0 0.8136 -0.0013
3 6 1 0.8687 0.0020
3 6 2 0.8568 0.0046
3 6 3 0.8273 0.0061
3 6 4 0.8042 0.0055
3 6 5 0.7850 0.0028
3 6 6 0.7619 -0.0004
3 6 7 0.7364 -0.0020
3 6 8 0.7134 -0.0009
3 6 9 0.6856 0.0018
3 6 10 0.6321 0.0039
3 6 11 0.5358 0.0041
3 6 12 0.4045 0.0032
3 6 13 0.2720 0.0029
3 6 14 0.1755 0.0037
3 6 15 0.1294 0.0047
3 6 16 0.1176 0.0036
3 6 17 0.1104 -0.0000
3 6 18 0.0882 -0.0052
3 6 19 0.0510 -0.0095
3 6 20 0.0114 -0.0116
3 7 0 0.4258 -0.0068
3 7 1 0.4859 -0.0040
3 7 2 0.5187 -0.0001
3 7 3 0.5725 0.0041
3 7 4 0.6626 0.0068
3 7 5 0.7619 0.0069
3 7 6 0.8250 0.0053
3 7 7 0.8199 0.0047
3 7 8 0.7441 0.0068
3 7 9 0.6172 0.0107
3 7 10 0.4656 0.0137
3 7 11 0.3143 0.0134
3 7 12 0.1868 0.0106
3 7 13 0.1042 0.0076
3 7 14 0.0770 0.0067
3 7 15 0.0952 0.0078
3 7 16 0.1294 0.0087
3 7 17 0.1453 0.0076
3 7 18 0.1237 0.0046
3 7 19 0.0698 0.0011
3 7 20 0.0069 -0.0011
3 8 0 -0.1206 -0.0059
3 8 1 -0.0303 -0.0059
3 8 2 0.0986 -0.0034
3 8 3 0.2851 0.0010
3 8 4 0.5137 0.0050
3 8 5 0.7285 0.0063
3 8 6 0.8591 0.0050
3 8 7 0.8601 0.0036
3 8 8 0.7359 0.0045
3 8 9 0.5360 0.0076
3 8 10 0.3274 0.0099
3 8 11 0.1656 0.0088
3 8 12 0.0791 0.0041
3 8 13 0.0684 -0.0014
3 8 14 0.1138 -0.0042
3 8 15 0.1834 -0.0033
3 8 16 0.2416 -0.0001
3 8 17 0.2599 0.0027
3 8 18 0.2275 0.0037
3 8 19 0.1553 0.0031
3 8 20 0.0711 0.0019
3 9 0 -0.4747 -0.0013
3 9 1 -0.4051 -0.0036
3 9 2 -0.2431 -0.0032
3 9 3 0.0007 -0.0001
3 9 4 0.2853 0.0033
3 9 5 0.5412 0.0041
3 9 6 0.6945 0.0014
3 9 7 0.7023 -0.0025
3 9 8 0.5769 -0.0044
3 9 9 0.3814 -0.0033
3 9 10 0.1975 -0.0012
3 9 11 0.0876 -0.0015
3 9 12 0.0717 -0.0052
3 9 13 0.1303 -0.0105
3 9 14 0.2226 -0.0139
3 9 15 0.3086 -0.0132
3 9 16 0.3602 -0.0090
3 9 17 0.3645 -0.0038
3 9 18 0.3219 0.0002
3 9 19 0.2444 0.0020
3 9 20 0.1528 0.0018
3 10 0 -0.4782 0.0014
3 10 1 -0.4651 -0.0012
3 10 2 -0.3490 -0.0019
3 10 3 -0.1547 0.0002
3 10 4 0.0720 0.0030
3 10 5 0.2724 0.0035
3 10 6 0.3909 0.0001
3 10 7 0.3985 -0.0055
3 10 8 0.3093 -0.0096
3 10 9 0.1771 -0.0097
3 10 10 0.0693 -0.0065
3 10 11 0.0325 -0.0033
3 10 12 0.0723 -0.0026
3 10 13 0.1576 -0.0043
3 10 14 0.2448 -0.0060
3 10 15 0.3034 -0.0054
3 10 16 0.3250 -0.0020
3 10 17 0.3164 0.0028
3 10 18 0.2859 0.0067
3 10 19 0.2372 0.0084
3 10 20 0.1730 0.0076
3 11 0 -0.3194 0.0017
3 11 1 -0.3418 -0.0005
3 11 2 -0.2870 -0.0018
3 11 3 -0.1811 -0.0006
3 11 4 -0.0594 0.0025
3 11 5 0.0449 0.0043
3 11 6 0.1068 0.0024
3 11 7 0.1153 -0.0025
3 11 8 0.0799 -0.0071
3 11 9 0.0298 -0.0077
3 11 10 0.0003 -0.0034
3 11 11 0.0129 0.0034
3 11 12 0.0611 0.0091
3 11 13 0.1162 0.0118
3 11 14 0.1488 0.0122
3 11 15 0.1496 0.0124
3 11 16 0.1338 0.0137
3 11 17 0.1242 0.0161
3 11 18 0.1306 0.0179
3 11 19 0.1412 0.0176
3 12 0 -0.2218 0.0036
3 12 1 -0.2516 0.0008
3 12 2 -0.2333 -0.0023
3 12 3 -0.1911 -0.0028
3 12 4 -0.1487 0.0000
3 12 5 -0.1157 0.0038
3 12 6 -0.0897 0.0050
3 12 7 -0.0658 0.0026
3 12 8 -0.0412 -0.0014
3 12 9 -0.0138 -0.0030
3 12 10 0.0187 0.0003
3 12 11 0.0548 0.0074
3 12 12 0.0836 0.0147
3 12 13 0.0878 0.0191
3 12 14 0.0580 0.0195
3 12 15 0.0058 0.0178
3 12 16 -0.0374 0.0163
3 12 17 -0.0407 0.0163
3 12 18 0.0023 0.0167
3 12 19 0.0660 0.0157
3 13 0 -0.1817 0.0081
3 13 1 -0.2307 0.0042
3 13 2 -0.2416 -0.0015
3 13 3 -0.2371 -0.0051
3 13 4 -0.2372 -0.0041
3 13 5 -0.2409 0.0003
3 13 6 -0.2305 0.0041
3 13 7 -0.1900 0.0041
3 13 8 -0.1200 0.0007
3 13 9 -0.0362 -0.0026
3 13 10 0.0416 -0.0023
3 13 11 0.0979 0.0021
3 13 12 0.1218 0.0077
3 13 13 0.1069 0.0104
3 13 14 0.0561 0.0083
3 13 15 -0.0106 0.0031
3 13 16 -0.0593 -0.0016
3 13 17 -0.0596 -0.0032
3 13 18 -0.0075 -0.0017
3 14 0 -0.0959 0.0117
3 14 1 -0.1882 0.0085
3 14 2 -0.2354 0.0013
3 14 3 -0.2588 -0.0055
3 14 4 -0.2833 -0.0079
3 14 5 -0.3112 -0.0054
3 14 6 -0.3216 -0.0017
3 14 7 -0.2923 -0.0008
3 14 8 -0.2200 -0.0040
3 14 9 -0.1233 -0.0083
3 14 10 -0.0283 -0.0098
3 14 11 0.0457 -0.0070
3 14 12 0.0895 -0.0027
3 14 13 0.1001 -0.0015
3 14 14 0.0795 -0.0064
3 14 15 0.0400 -0.0156
3 14 16 0.0053 -0.0240
3 14 17 -0.0002 -0.0271
3 14 18 0.0302 -0.0237
3 15 0 0.0032 0.0127
3 15 1 -0.1160 0.0136
3 15 2 -0.1785 0.0078
3 15 3 -0.2048 -0.0009
3 15 4 -0.2292 -0.0074
3 15 5 -0.2666 -0.0093
3 15 6 -0.3028 -0.0087
3 15 7 -0.3124 -0.0092
3 15 8 -0.2830 -0.0125
3 15 9 -0.2234 -0.0161
3 15 10 -0.1522 -0.0160
3 15 11 -0.0839 -0.0107
3 15 12 -0.0246 -0.0034
3 15 13 0.0207 -0.0003
3 15 14 0.0451 -0.0055
3 15 15 0.0447 -0.0176
3 15 16 0.0274 -0.0301
3 15 17 0.0105 -0.0359
3 16 0 -0.0085 0.0151
3 16 1 -0.1048 0.0220
3 16 2 -0.1353 0.0198
3 16 3 -0.1206 0.0111
3 16 4 -0.1045 0.0012
3 16 5 -0.1170 -0.0058
3 16 6 -0.1553 -0.0099
3 16 7 -0.1956 -0.0133
3 16 8 -0.2165 -0.0171
3 16 9 -0.2132 -0.0190
3 16 10 -0.1918 -0.0152
3 16 11 -0.1573 -0.0047
3 16 12 -0.1114 0.0084
3 16 13 -0.0594 0.0164
3 16 14 -0.0159 0.0136
3 16 15 0.0027 0.0007
3 17 2 -0.1518 0.0329
3 17 3 -0.0815 0.0253
3 17 4 -0.0090 0.0142
3 17 5 0.0265 0.0043
3 17 6 0.0171 -0.0028
3 17 7 -0.0184 -0.0083
3 17 8 -0.0564 -0.0126
3 17 9 -0.0843 -0.0135
3 17 10 -0.0998 -0.0076
3 17 11 -0.1015 0.0061
3 17 12 -0.0863 0.0231
3 17 13 -0.0564 0.0349
4 -13 0 -0.0663 -0.0315
4 -13 1 -0.0637 -0.0353
4 -12 0 -0.0344 -0.0201
4 -12 1 -0.0177 -0.0277
4 -12 2 0.0309 -0.0326
4 -12 3 0.1000 -0.0351
4 -12 4 0.1551 -0.0369
4 -11 0 -0.1174 0.0050
4 -11 1 -0.1230 -0.0041
4 -11 2 -0.0842 -0.0134
4 -11 3 -0.0002 -0.0215
4 -11 4 0.0971 -0.0287
4 -11 5 0.1645 -0.0357
4 -11 6 0.1782 -0.0419
4 -10 0 -0.2017 0.0227
4 -10 1 -0.2731 0.0157
4 -10 2 -0.2890 0.0067
4 -10 3 -0.2329 -0.0017
4 -10 4 -0.1276 -0.0092
4 -10 5 -0.0204 -0.0168
4 -10 6 0.0484 -0.0248
4 -10 7 0.0679 -0.0309
4 -10 8 0.0547 -0.0313
4 -9 0 -0.1308 0.0190
4 -9 1 -0.2536 0.0156
4 -9 2 -0.3299 0.0101
4 -9 3 -0.3330 0.0055
4 -9 4 -0.2738 0.0024
4 -9 5 -0.1920 -0.0012
4 -9 6 -0.1296 -0.0066
4 -9 7 -0.1064 -0.0127
4 -9 8 -0.1137 -0.0150
4 -9 9 -0.1276 -0.0103
4 -8 0 0.0466 0.0045
4 -8 1 -0.0489 0.0030
4 -8 2 -0.1238 0.0002
4 -8 3 -0.1601 -0.0008
4 -8 4 -0.1620 0.0008
4 -8 5 -0.1524 0.0027
4 -8 6 -0.1571 0.0023
4 -8 7 -0.1879 -0.0004
4 -8 8 -0.2350 -0.0012
4 -8 9 -0.2734 0.0041
4 -8 10 -0.2784 0.0153
4 -7 0 0.1281 -0.0015
4 -7 1 0.1248 -0.0027
4 -7 2 0.1203 -0.0053
4 -7 3 0.1049 -0.0060
4 -7 4 0.0709 -0.0029
4 -7 5 0.0156 0.0020
4 -7 6 -0.0585 0.0054
4 -7 7 -0.1446 0.0065
4 -7 8 -0.2296 0.0085
4 -7 9 -0.2933 0.0155
4 -7 10 -0.3136 0.0279
4 -7 11 -0.2782 0.0401
4 -7 12 -0.1942 0.0443
4 -6 0 0.0671 0.0051
4 -6 1 0.1366 0.0038
4 -6 2 0.2005 -0.0002
4 -6 3 0.2144 -0.0031
4 -6 4 0.1629 -0.0021
4 -6 5 0.0665 0.0021
4 -6 6 -0.0392 0.0063
4 -6 7 -0.1280 0.0083
4 -6 8 -0.1920 0.0104
4 -6 9 -0.2319 0.0165
4 -6 10 -0.2434 0.0271
4 -6 11 -0.2178 0.0373
4 -6 12 -0.1543 0.0395
4 -6 13 -0.0707 0.0299
4 -5 0 0.0607 0.0111
4 -5 1 0.1339 0.0103
4 -5 2 0.2027 0.0053
4 -5 3 0.1959 -0.0000
4 -5 4 0.0967 -0.0018
4 -5 5 -0.0476 0.0003
4 -5 6 -0.1661 0.0028
4 -5 7 -0.2163 0.0028
4 -5 8 -0.2071 0.0016
4 -5 9 -0.1770 0.0028
4 -5 10 -0.1553 0.0079
4 -5 11 -0.1426 0.0133
4 -5 12 -0.1225 0.0120
4 -5 13 -0.0874 0.0009
4 -5 14 -0.0496 -0.0158
4 -4 0 0.2545 0.0067
4 -4 1 0.3044 0.0067
4 -4 2 0.3401 0.0021
4 -4 3 0.2769 -0.0033
4 -4 4 0.1029 -0.0056
4 -4 5 -0.1073 -0.0041
4 -4 6 -0.2497 -0.0026
4 -4 7 -0.2684 -0.0046
4 -4 8 -0.1926 -0.0095
4 -4 9 -0.1044 -0.0133
4 -4 10 -0.0715 -0.0133
4 -4 11 -0.1035 -0.0118
4 -4 12 -0.1607 -0.0146
4 -4 13 -0.1976 -0.0254
4 -4 14 -0.1976 -0.0402
4 -4 15 -0.1727 -0.0496
4 -3 0 0.5215 -0.0029
4 -3 1 0.5819 -0.0023
4 -3 2 0.6132 -0.0049
4 -3 3 0.5263 -0.0080
4 -3 4 0.3110 -0.0079
4 -3 5 0.0574 -0.0045
4 -3 6 -0.1077 -0.0017
4 -3 7 -0.1181 -0.0032
4 -3 8 -0.0179 -0.0087
4 -3 9 0.0769 -0.0136
4 -3 10 0.0687 -0.0141
4 -3 11 -0.0549 -0.0115
4 -3 12 -0.2255 -0.0117
4 -3 13 -0.3558 -0.0195
4 -3 14 -0.3981 -0.0330
4 -3 15 -0.3590 -0.0435
4 -3 16 -0.2722 -0.0421
4 -2 0 0.6846 -0.0077
4 -2 1 0.7731 -0.0063
4 -2 2 0.8362 -0.0067
4 -2 3 0.7833 -0.0068
4 -2 4 0.5943 -0.0039
4 -2 5 0.3538 0.0017
4 -2 6 0.1934 0.0064
4 -2 7 0.1860 0.0065
4 -2 8 0.2840 0.0028
4 -2 9 0.3557 0.0003
4 -2 10 0.2879 0.0035
4 -2 11 0.0700 0.0111
4 -2 12 -0.2066 0.0162
4 -2 13 -0.4214 0.0117
4 -2 14 -0.5043 -0.0029
4 -2 15 -0.4616 -0.0200
4 -2 16 -0.3445 -0.0297
4 -1 0 0.8299 -0.0055
4 -1 1 0.9025 -0.0034
4 -1 2 0.9795 -0.0025
4 -1 3 0.9702 -0.0014
4 -1 4 0.8326 0.0019
4 -1 5 0.6272 0.0070
4 -1 6 0.4754 0.0108
4 -1 7 0.4572 0.0106
4 -1 8 0.5376 0.0076
4 -1 9 0.5906 0.0069
4 -1 10 0.5005 0.0131
4 -1 11 0.2539 0.0249
4 -1 12 -0.0539 0.0340
4 -1 13 -0.2935 0.0314
4 -1 14 -0.3910 0.0141
4 -1 15 -0.3589 -0.0116
4 -1 16 -0.2606 -0.0343
4 -1 17 -0.1527 -0.0452
4 0 0 1.1648 -0.0009
4 0 1 1.1841 0.0012
4 0 2 1.2438 0.0017
4 0 3 1.2507 0.0017
4 0 4 1.1346 0.0027
4 0 5 0.9229 0.0047
4 0 6 0.7236 0.0054
4 0 7 0.6325 0.0027
4 0 8 0.6477 -0.0020
4 0 9 0.6719 -0.0038
4 0 10 0.5983 0.0016
4 0 11 0.4019 0.0130
4 0 12 0.1572 0.0226
4 0 13 -0.0281 0.0205
4 0 14 -0.0977 0.0024
4 0 15 -0.0773 -0.0268
4 0 16 -0.0350 -0.0551
4 0 17 -0.0183 -0.0719
4 0 18 -0.0264 -0.0733
4 1 0 1.5899 0.0024
4 1 1 1.6126 0.0034
4 1 2 1.6948 0.0023
4 1 3 1.7322 0.0004
4 1 4 1.6242 -0.0007
4 1 5 1.3657 -0.0009
4 1 6 1.0554 -0.0019
4 1 7 0.8149 -0.0057
4 1 8 0.6935 -0.0115
4 1 9 0.6422 -0.0153
4 1 10 0.5744 -0.0133
4 1 11 0.4510 -0.0055
4 1 12 0.3092 0.0019
4 1 13 0.2159 0.0007
4 1 14 0.1969 -0.0136
4 1 15 0.2116 -0.0374
4 1 16 0.1932 -0.0602
4 1 17 0.1116 -0.0720
4 1 18 -0.0028 -0.0684
4 2 0 1.6873 0.0044
4 2 1 1.8265 0.0033
4 2 2 2.0255 0.0003
4 2 3 2.1621 -0.0026
4 2 4 2.1094 -0.0037
4 2 5 1.8355 -0.0028
4 2 6 1.4310 -0.0017
4 2 7 1.0421 -0.0026
4 2 8 0.7691 -0.0061
4 2 9 0.6159 -0.0096
4 2 10 0.5232 -0.0100
4 2 11 0.4422 -0.0062
4 2 12 0.3746 -0.0013
4 2 13 0.3477 -0.0008
4 2 14 0.3613 -0.0079
4 2 15 0.3676 -0.0205
4 2 16 0.3072 -0.0313
4 2 17 0.1656 -0.0327
4 2 18 -0.0074 -0.0220
4 2 19 -0.1340 -0.0034
4 3 0 1.2504 0.0060
4 3 1 1.5400 0.0024
4 3 2 1.8804 -0.0022
4 3 3 2.1419 -0.0052
4 3 4 2.1899 -0.0051
4 3 5 1.9777 -0.0018
4 3 6 1.5834 0.0028
4 3 7 1.1576 0.0062
4 3 8 0.8267 0.0069
4 3 9 0.6284 0.0057
4 3 10 0.5248 0.0048
4 3 11 0.4633 0.0059
4 3 12 0.4241 0.0087
4 3 13 0.4125 0.0108
4 3 14 0.4208 0.0102
4 3 15 0.4084 0.0078
4 3 16 0.3292 0.0074
4 3 17 0.1773 0.0134
4 3 18 0.0047 0.0267
4 3 19 -0.1132 0.0432
4 4 0 0.6208 0.0069
4 4 1 0.9583 0.0020
4 4 2 1.3258 -0.0032
4 4 3 1.6177 -0.0063
4 4 4 1.7252 -0.0060
4 4 5 1.6073 -0.0026
4 4 6 1.3249 0.0024
4 4 7 1.0040 0.0069
4 4 8 0.7569 0.0094
4 4 9 0.6217 0.0098
4 4 10 0.5649 0.0090
4 4 11 0.5336 0.0085
4 4 12 0.5018 0.0095
4 4 13 0.4737 0.0118
4 4 14 0.4527 0.0145
4 4 15 0.4183 0.0173
4 4 16 0.3400 0.0212
4 4 17 0.2136 0.0277
4 4 18 0.0773 0.0374
4 4 19 -0.0115 0.0474
4 5 0 0.3010 0.0061
4 5 1 0.5494 0.0024
4 5 2 0.7864 -0.0016
4 5 3 0.9628 -0.0041
4 5 4 1.0275 -0.0046
4 5 5 0.9653 -0.0038
4 5 6 0.8185 -0.0026
4 5 7 0.6674 -0.0014
4 5 8 0.5784 -0.0006
4 5 9 0.5627 -0.0004
4 5 10 0.5801 -0.0012
4 5 11 0.5810 -0.0022
4 5 12 0.5466 -0.0024
4 5 13 0.4930 -0.0007
4 5 14 0.4426 0.0026
4 5 15 0.3963 0.0065
4 5 16 0.3361 0.0098
4 5 17 0.2522 0.0126
4 5 18 0.1622 0.0155
4 5 19 0.1000 0.0182
4 5 20 0.0849 0.0190
4 6 0 0.3437 0.0024
4 6 1 0.4638 0.0019
4 6 2 0.5232 0.0011
4 6 3 0.5354 0.0008
4 6 4 0.5128 0.0006
4 6 5 0.4690 -0.0007
4 6 6 0.4274 -0.0035
4 6 7 0.4162 -0.0066
4 6 8 0.4485 -0.0083
4 6 9 0.5060 -0.0086
4 6 10 0.5473 -0.0083
4 6 11 0.5379 -0.0084
4 6 12 0.4771 -0.0085
4 6 13 0.3960 -0.0074
4 6 14 0.3298 -0.0044
4 6 15 0.2900 -0.0007
4 6 16 0.2611 0.0015
4 6 17 0.2232 0.0010
4 6 18 0.1736 -0.0016
4 6 19 0.1281 -0.0047
4 6 20 0.1010 -0.0069
4 7 0 0.3511 -0.0027
4 7 1 0.4031 -0.0009
4 7 2 0.3745 0.0012
4 7 3 0.3166 0.0041
4 7 4 0.2774 0.0063
4 7 5 0.2810 0.0056
4 7 6 0.3267 0.0017
4 7 7 0.3974 -0.0029
4 7 8 0.4671 -0.0052
4 7 9 0.5063 -0.0043
4 7 10 0.4918 -0.0018
4 7 11 0.4200 -0.0001
4 7 12 0.3150 0.0001
4 7 13 0.2175 0.0005
4 7 14 0.1608 0.0025
4 7 15 0.1491 0.0060
4 7 16 0.1584 0.0085
4 7 17 0.1575 0.0078
4 7 18 0.1314 0.0035
4 7 19 0.0877 -0.0021
4 7 20 0.0446 -0.0066
4 8 0 0.0523 -0.0054
4 8 1 0.0877 -0.0043
4 8 2 0.0775 -0.0018
4 8 3 0.0747 0.0028
4 8 4 0.1232 0.0074
4 8 5 0.2312 0.0091
4 8 6 0.3686 0.0068
4 8 7 0.4863 0.0029
4 8 8 0.5412 0.0013
4 8 9 0.5147 0.0036
4 8 10 0.4172 0.0080
4 8 11 0.2837 0.0107
4 8 12 0.1607 0.0103
4 8 13 0.0874 0.0083
4 8 14 0.0787 0.0078
4 8 15 0.1177 0.0103
4 8 16 0.1656 0.0141
4 8 17 0.1839 0.0158
4 8 18 0.1560 0.0137
4 8 19 0.0930 0.0088
4 8 20 0.0225 0.0036
4 9 0 -0.3576 -0.0028
4 9 1 -0.3578 -0.0046
4 9 2 -0.3321 -0.0044
4 9 3 -0.2482 -0.0007
4 9 4 -0.0907 0.0046
4 9 5 0.1196 0.0078
4 9 6 0.3276 0.0069
4 9 7 0.4688 0.0035
4 9 8 0.5011 0.0016
4 9 9 0.4259 0.0036
4 9 10 0.2865 0.0079
4 9 11 0.1469 0.0103
4 9 12 0.0638 0.0081
4 9 13 0.0634 0.0029
4 9 14 0.1340 -0.0011
4 9 15 0.2340 -0.0008
4 9 16 0.3126 0.0035
4 9 17 0.3327 0.0084
4 9 18 0.2855 0.0104
4 9 19 0.1911 0.0086
4 9 20 0.0859 0.0047
4 10 0 -0.5288 0.0028
4 10 1 -0.5998 -0.0013
4 10 2 -0.5845 -0.0038
4 10 3 -0.4726 -0.0022
4 10 4 -0.2776 0.0023
4 10 5 -0.0415 0.0058
4 10 6 0.1726 0.0052
4 10 7 0.3026 0.0011
4 10 8 0.3167 -0.0027
4 10 9 0.2310 -0.0029
4 10 10 0.1036 -0.0002
4 10 11 0.0067 0.0015
4 10 12 -0.0079 -0.0012
4 10 13 0.0688 -0.0077
4 10 14 0.2036 -0.0140
4 10 15 0.3410 -0.0156
4 10 16 0.4299 -0.0115
4 10 17 0.4431 -0.0045
4 10 18 0.3834 0.0010
4 10 19 0.2764 0.0024
4 10 20 0.1579 0.0003
4 11 0 -0.4078 0.0059
4 11 1 -0.5293 0.0019
4 11 2 -0.5458 -0.0020
4 11 3 -0.4614 -0.0022
4 11 4 -0.3049 0.0016
4 11 5 -0.1213 0.0057
4 11 6 0.0378 0.0060
4 11 7 0.1276 0.0018
4 11 8 0.1286 -0.0038
4 11 9 0.0580 -0.0067
4 11 10 -0.0340 -0.0057
4 11 11 -0.0883 -0.0035
4 11 12 -0.0669 -0.0041
4 11 13 0.0282 -0.0084
4 11 14 0.1598 -0.0136
4 11 15 0.2780 -0.0153
4 11 16 0.3458 -0.0114
4 11 17 0.3518 -0.0039
4 11 18 0.3064 0.0029
4 11 19 0.2308 0.0055
4 12 0 -0.2212 0.0054
4 12 1 -0.3347 0.0022
4 12 2 -0.3583 -0.0026
4 12 3 -0.3046 -0.0043
4 12 4 -0.2060 -0.0008
4 12 5 -0.0970 0.0050
4 12 6 -0.0057 0.0083
4 12 7 0.0474 0.0063
4 12 8 0.0526 0.0006
4 12 9 0.0168 -0.0041
4 12 10 -0.0347 -0.0046
4 12 11 -0.0686 -0.0017
4 12 12 -0.0621 0.0010
4 12 13 -0.0168 0.0010
4 12 14 0.0440 -0.0009
4 12 15 0.0928 -0.0013
4 12 16 0.1158 0.0024
4 12 17 0.1169 0.0094
4 12 18 0.1079 0.0157
4 12 19 0.0957 0.0177
4 13 0 -0.1253 0.0055
4 13 1 -0.2065 0.0016
4 13 2 -0.2208 -0.0053
4 13 3 -0.1856 -0.0095
4 13 4 -0.1326 -0.0069
4 13 5 -0.0830 0.0008
4 13 6 -0.0406 0.0082
4 13 7 -0.0025 0.0099
4 13 8 0.0292 0.0056
4 13 9 0.0471 -0.0003
4 13 10 0.0473 -0.0029
4 13 11 0.0349 -0.0005
4 13 12 0.0192 0.0041
4 13 13 0.0048 0.0075
4 13 14 -0.0110 0.0083
4 13 15 -0.0303 0.0086
4 13 16 -0.0465 0.0112
4 13 17 -0.0460 0.0166
4 13 18 -0.0209 0.0221
4 13 19 0.0205 0.0237
4 14 0 -0.0695 0.0093
4 14 1 -0.1470 0.0038
4 14 2 -0.1728 -0.0062
4 14 3 -0.1649 -0.0140
4 14 4 -0.1545 -0.0141
4 14 5 -0.1550 -0.0063
4 14 6 -0.1535 0.0034
4 14 7 -0.1286 0.0080
4 14 8 -0.0741 0.0051
4 14 9 -0.0057 -0.0020
4 14 10 0.0514 -0.0069
4 14 11 0.0803 -0.0061
4 14 12 0.0793 -0.0009
4 14 13 0.0563 0.0041
4 14 14 0.0217 0.0057
4 14 15 -0.0135 0.0045
4 14 16 -0.0348 0.0040
4 14 17 -0.0285 0.0066
4 14 18 0.0090 0.0111
4 15 0 0.0111 0.0148
4 15 1 -0.0898 0.0096
4 15 2 -0.1440 -0.0017
4 15 3 -0.1678 -0.0128
4 15 4 -0.1942 -0.0169
4 15 5 -0.2376 -0.0122
4 15 6 -0.2801 -0.0039
4 15 7 -0.2896 0.0005
4 15 8 -0.2487 -0.0028
4 15 9 -0.1700 -0.0109
4 15 10 -0.0841 -0.0169
4 15 11 -0.0172 -0.0159
4 15 12 0.0220 -0.0089
4 15 13 0.0398 -0.0017
4 15 14 0.0460 0.0002
4 15 15 0.0486 -0.0037
4 15 16 0.0548 -0.0093
4 15 17 0.0713 -0.0116
4 16 0 0.0518 0.0192
4 16 1 -0.0540 0.0178
4 16 2 -0.1102 0.0085
4 16 3 -0.1309 -0.0036
4 16 4 -0.1547 -0.0115
4 16 5 -0.2061 -0.0121
4 16 6 -0.2742 -0.0085
4 16 7 -0.3248 -0.0076
4 16 8 -0.3306 -0.0129
4 16 9 -0.2912 -0.0215
4 16 10 -0.2278 -0.0264
4 16 11 -0.1625 -0.0221
4 16 12 -0.1036 -0.0103
4 16 13 -0.0481 0.0013
4 16 14 0.0066 0.0050
4 16 15 0.0560 -0.0012
4 16 16 0.0933 -0.0125
4 17 2 -0.1053 0.0208
4 17 3 -0.0766 0.0104
4 17 4 -0.0481 0.0006
4 17 5 -0.0575 -0.0044
4 17 6 -0.1080 -0.0060
4 17 7 -0.1722 -0.0092
4 17 8 -0.2183 -0.0166
4 17 9 -0.2327 -0.0252
4 17 10 -0.2216 -0.0278
4 17 11 -0.1956 -0.0192
4 17 12 -0.1572 -0.0019
4 17 13 -0.1036 0.0150
4 17 14 -0.0375 0.0214
4 18 7 0.0273 -0.0027
4 18 8 -0.0235 -0.0104
4 18 9 -0.0624 -0.0182
5 -12 0 -0.0119 -0.0100
5 -12 1 -0.0229 -0.0276
5 -12 2 -0.0139 -0.0409
5 -11 0 -0.0539 -0.0104
5 -11 1 -0.0626 -0.0300
5 -11 2 -0.0490 -0.0470
5 -11 3 -0.0027 -0.0552
5 -11 4 0.0582 -0.0537
5 -11 5 0.1004 -0.0467
5 -10 0 -0.1516 0.0056
5 -10 1 -0.1979 -0.0105
5 -10 2 -0.2110 -0.0263
5 -10 3 -0.1646 -0.0352
5 -10 4 -0.0682 -0.0355
5 -10 5 0.0391 -0.0318
5 -10 6 0.1162 -0.0301
5 -9 0 -0.1608 0.0205
5 -9 1 -0.2707 0.0117
5 -9 2 -0.3432 0.0010
5 -9 3 -0.3346 -0.0054
5 -9 4 -0.2420 -0.0062
5 -9 5 -0.1050 -0.0059
5 -9 6 0.0213 -0.0110
5 -9 7 0.0984 -0.0231
5 -9 8 0.1201 -0.0371
5 -8 0 -0.0112 0.0188
5 -8 1 -0.1506 0.0163
5 -8 2 -0.2640 0.0110
5 -8 3 -0.3005 0.0078
5 -8 4 -0.2491 0.0078
5 -8 5 -0.1438 0.0066
5 -8 6 -0.0405 -0.0020
5 -8 7 0.0156 -0.0191
5 -8 8 0.0120 -0.0380
5 -8 9 -0.0317 -0.0480
5 -8 10 -0.0816 -0.0426
5 -7 0 0.1460 0.0059
5 -7 1 0.0479 0.0062
5 -7 2 -0.0381 0.0037
5 -7 3 -0.0748 0.0021
5 -7 4 -0.0562 0.0030
5 -7 5 -0.0092 0.0031
5 -7 6 0.0228 -0.0029
5 -7 7 0.0054 -0.0163
5 -7 8 -0.0669 -0.0305
5 -7 9 -0.1676 -0.0348
5 -7 10 -0.2527 -0.0229
5 -7 11 -0.2851 0.0010
5 -6 0 0.1273 -0.0012
5 -6 1 0.1015 -0.0007
5 -6 2 0.0921 -0.0034
5 -6 3 0.1026 -0.0057
5 -6 4 0.1206 -0.0047
5 -6 5 0.1245 -0.0018
5 -6 6 0.0933 -0.0016
5 -6 7 0.0150 -0.0058
5 -6 8 -0.1036 -0.0096
5 -6 9 -0.2337 -0.0042
5 -6 10 -0.3314 0.0151
5 -6 11 -0.3581 0.0429
5 -6 12 -0.3023 0.0656
5 -5 0 0.0032 0.0031
5 -5 1 0.0136 0.0032
5 -5 2 0.0618 -0.0009
5 -5 3 0.1111 -0.0055
5 -5 4 0.1262 -0.0061
5 -5 5 0.0940 -0.0021
5 -5 6 0.0233 0.0027
5 -5 7 -0.0697 0.0057
5 -5 8 -0.1705 0.0089
5 -5 9 -0.2626 0.0187
5 -5 10 -0.3210 0.0382
5 -5 11 -0.3189 0.0621
5 -5 12 -0.2460 0.0777
5 -5 13 -0.1243 0.0743
5 -4 0 0.0336 0.0093
5 -4 1 0.0397 0.0094
5 -4 2 0.0984 0.0040
5 -4 3 0.1389 -0.0029
5 -4 4 0.1100 -0.0059
5 -4 5 0.0147 -0.0034
5 -4 6 -0.1014 0.0017
5 -4 7 -0.1917 0.0052
5 -4 8 -0.2400 0.0072
5 -4 9 -0.2572 0.0120
5 -4 10 -0.2549 0.0227
5 -4 11 -0.2288 0.0355
5 -4 12 -0.1677 0.0404
5 -4 13 -0.0770 0.0292
5 -4 14 0.0127 0.0035
5 -3 0 0.3086 0.0082
5 -3 1 0.3293 0.0084
5 -3 2 0.3928 0.0033
5 -3 3 0.4059 -0.0038
5 -3 4 0.3113 -0.0077
5 -3 5 0.1329 -0.0064
5 -3 6 -0.0457 -0.0031
5 -3 7 -0.1488 -0.0028
5 -3 8 -0.1623 -0.0066
5 -3 9 -0.1303 -0.0107
5 -3 10 -0.1071 -0.0109
5 -3 11 -0.1113 -0.0084
5 -3 12 -0.1233 -0.0104
5 -3 13 -0.1175 -0.0233
5 -3 14 -0.0924 -0.0455
5 -3 15 -0.0691 -0.0656
5 -2 0 0.6325 0.0011
5 -2 1 0.7111 0.0017
5 -2 2 0.8081 -0.0013
5 -2 3 0.8213 -0.0055
5 -2 4 0.6924 -0.0067
5 -2 5 0.4609 -0.0038
5 -2 6 0.2381 -0.0003
5 -2 7 0.1202 -0.0014
5 -2 8 0.1177 -0.0083
5 -2 9 0.1567 -0.0169
5 -2 10 0.1473 -0.0217
5 -2 11 0.0552 -0.0217
5 -2 12 -0.0827 -0.0224
5 -2 13 -0.2013 -0.0305
5 -2 14 -0.2607 -0.0462
5 -2 15 -0.2647 -0.0606
5 -2 16 -0.2366 -0.0618
5 -1 0 0.8295 -0.0053
5 -1 1 0.9496 -0.0040
5 -1 2 1.0732 -0.0039
5 -1 3 1.1031 -0.0038
5 -1 4 0.9812 -0.0009
5 -1 5 0.7499 0.0051
5 -1 6 0.5287 0.0105
5 -1 7 0.4216 0.0108
5 -1 8 0.4347 0.0052
5 -1 9 0.4745 -0.0016
5 -1 10 0.4283 -0.0033
5 -1 11 0.2537 0.0017
5 -1 12 0.0047 0.0079
5 -1 13 -0.2186 0.0069
5 -1 14 -0.3452 -0.0048
5 -1 15 -0.3679 -0.0213
5 -1 16 -0.3219 -0.0316
5 -1 17 -0.2416 -0.0279
5 0 0 0.9823 -0.0070
5 0 1 1.0673 -0.0049
5 0 2 1.1600 -0.0031
5 0 3 1.1796 -0.0009
5 0 4 1.0672 0.0034
5 0 5 0.8541 0.0097
5 0 6 0.6509 0.0151
5 0 7 0.5602 0.0159
5 0 8 0.5891 0.0121
5 0 9 0.6409 0.0085
5 0 10 0.5947 0.0114
5 0 11 0.4034 0.0220
5 0 12 0.1269 0.0342
5 0 13 -0.1206 0.0377
5 0 14 -0.2571 0.0260
5 0 15 -0.2772 0.0024
5 0 16 -0.2300 -0.0222
5 0 17 -0.1637 -0.0373
5 1 0 1.2066 -0.0037
5 1 1 1.2211 -0.0018
5 1 2 1.2584 -0.0009
5 1 3 1.2532 -0.0002
5 1 4 1.1402 0.0015
5 1 5 0.9295 0.0043
5 1 6 0.7133 0.0062
5 1 7 0.5929 0.0046
5 1 8 0.5902 0.0000
5 1 9 0.6277 -0.0032
5 1 10 0.5947 0.0003
5 1 11 0.4422 0.0119
5 1 12 0.2204 0.0251
5 1 13 0.0314 0.0296
5 1 14 -0.0560 0.0175
5 1 15 -0.0518 -0.0099
5 1 16 -0.0187 -0.0423
5 1 17 -0.0086 -0.0673
5 1 18 -0.0241 -0.0776
5 2 0 1.3301 0.0021
5 2 1 1.3432 0.0026
5 2 2 1.3975 0.0011
5 2 3 1.4286 -0.0013
5 2 4 1.3543 -0.0031
5 2 5 1.1560 -0.0038
5 2 6 0.9040 -0.0050
5 2 7 0.7025 -0.0084
5 2 8 0.6029 -0.0141
5 2 9 0.5676 -0.0186
5 2 10 0.5146 -0.0175
5 2 11 0.3990 -0.0095
5 2 12 0.2530 0.0009
5 2 13 0.1497 0.0049
5 2 14 0.1296 -0.0044
5 2 15 0.1613 -0.0270
5 2 16 0.1717 -0.0545
5 2 17 0.1132 -0.0755
5 2 18 0.0037 -0.0821
5 3 0 1.0534 0.0068
5 3 1 1.1639 0.0051
5 3 2 1.3368 0.0011
5 3 3 1.4939 -0.0031
5 3 4 1.5309 -0.0055
5 3 5 1.4000 -0.0059
5 3 6 1.1492 -0.0057
5 3 7 0.8835 -0.0071
5 3 8 0.6842 -0.0105
5 3 9 0.5587 -0.0141
5 3 10 0.4615 -0.0149
5 3 11 0.3577 -0.0111
5 3 12 0.2631 -0.0046
5 3 13 0.2211 -0.0008
5 3 14 0.2457 -0.0046
5 3 15 0.2903 -0.0164
5 3 16 0.2789 -0.0311
5 3 17 0.1711 -0.0402
5 3 18 0.0002 -0.0380
5 3 19 -0.1516 -0.0249
5 4 0 0.4213 0.0078
5 4 1 0.6363 0.0038
5 4 2 0.9284 -0.0017
5 4 3 1.2097 -0.0058
5 4 4 1.3684 -0.0064
5 4 5 1.3418 -0.0036
5 4 6 1.1586 0.0005
5 4 7 0.9144 0.0037
5 4 8 0.7010 0.0048
5 4 9 0.5523 0.0041
5 4 10 0.4483 0.0034
5 4 11 0.3631 0.0044
5 4 12 0.3018 0.0074
5 4 13 0.2900 0.0106
5 4 14 0.3296 0.0116
5 4 15 0.3737 0.0096
5 4 16 0.3529 0.0068
5 4 17 0.2336 0.0075
5 4 18 0.0521 0.0149
5 4 19 -0.1079 0.0280
5 5 0 -0.1157 0.0065
5 5 1 0.1112 0.0012
5 5 2 0.4006 -0.0048
5 5 3 0.6800 -0.0081
5 5 4 0.8630 -0.0071
5 5 5 0.8996 -0.0027
5 5 6 0.8096 0.0029
5 5 7 0.6663 0.0078
5 5 8 0.5431 0.0108
5 5 9 0.4683 0.0119
5 5 10 0.4248 0.0116
5 5 11 0.3879 0.0109
5 5 12 0.3587 0.0110
5 5 13 0.3591 0.0125
5 5 14 0.3957 0.0152
5 5 15 0.4359 0.0181
5 5 16 0.4245 0.0211
5 5 17 0.3313 0.0250
5 5 18 0.1828 0.0313
5 5 19 0.0473 0.0394
5 6 0 -0.2158 0.0050
5 6 1 -0.0592 0.0008
5 6 2 0.1062 -0.0041
5 6 3 0.2482 -0.0065
5 6 4 0.3349 -0.0053
5 6 5 0.3548 -0.0023
5 6 6 0.3297 0.0004
5 6 7 0.3037 0.0018
5 6 8 0.3101 0.0023
5 6 9 0.3467 0.0024
5 6 10 0.3826 0.0018
5 6 11 0.3906 0.0004
5 6 12 0.3747 -0.0012
5 6 13 0.3649 -0.0014
5 6 14 0.3833 0.0008
5 6 15 0.4170 0.0049
5 6 16 0.4259 0.0091
5 6 17 0.3791 0.0121
5 6 18 0.2859 0.0141
5 6 19 0.1898 0.0158
5 6 20 0.1326 0.0172
5 7 0 -0.0445 0.0034
5 7 1 0.0461 0.0019
5 7 2 0.0800 -0.0006
5 7 3 0.0683 -0.0012
5 7 4 0.0365 0.0003
5 7 5 0.0142 0.0014
5 7 6 0.0283 -0.0000
5 7 7 0.0920 -0.0037
5 7 8 0.1948 -0.0072
5 7 9 0.3003 -0.0088
5 7 10 0.3651 -0.0089
5 7 11 0.3666 -0.0092
5 7 12 0.3216 -0.0104
5 7 13 0.2738 -0.0111
5 7 14 0.2602 -0.0093
5 7 15 0.2828 -0.0049
5 7 16 0.3099 -0.0001
5 7 17 0.3062 0.0023
5 7 18 0.2630 0.0011
5 7 19 0.2019 -0.0020
5 7 20 0.1519 -0.0046
5 8 0 -0.0124 0.0007
5 8 1 0.0541 0.0010
5 8 2 0.0336 0.0004
5 8 3 -0.0383 0.0018
5 8 4 -0.1047 0.0049
5 8 5 -0.1157 0.0063
5 8 6 -0.0496 0.0035
5 8 7 0.0793 -0.0025
5 8 8 0.2268 -0.0077
5 8 9 0.3376 -0.0091
5 8 10 0.3711 -0.0069
5 8 11 0.3234 -0.0043
5 8 12 0.2302 -0.0037
5 8 13 0.1474 -0.0042
5 8 14 0.1163 -0.0029
5 8 15 0.1390 0.0017
5 8 16 0.1821 0.0079
5 8 17 0.2037 0.0117
5 8 18 0.1836 0.0107
5 8 19 0.1323 0.0057
5 8 20 0.0762 0.0000
5 9 0 -0.2381 -0.0007
5 9 1 -0.2036 -0.0017
5 9 2 -0.2291 -0.0027
5 9 3 -0.2774 -0.0007
5 9 4 -0.2934 0.0040
5 9 5 -0.2357 0.0074
5 9 6 -0.0998 0.0062
5 9 7 0.0777 0.0010
5 9 8 0.2368 -0.0036
5 9 9 0.3229 -0.0034
5 9 10 0.3141 0.0013
5 9 11 0.2318 0.0064
5 9 12 0.1302 0.0083
5 9 13 0.0670 0.0068
5 9 14 0.0718 0.0059
5 9 15 0.1318 0.0090
5 9 16 0.2019 0.0159
5 9 17 0.2345 0.0223
5 9 18 0.2075 0.0241
5 9 19 0.1334 0.0201
5 9 20 0.0462 0.0132
5 10 0 -0.4649 0.0019
5 10 1 -0.5153 -0.0017
5 10 2 -0.5653 -0.0050
5 10 3 -0.5867 -0.0044
5 10 4 -0.5467 0.0004
5 10 5 -0.4287 0.0053
5 10 6 -0.2486 0.0061
5 10 7 -0.0546 0.0023
5 10 8 0.0937 -0.0018
5 10 9 0.1552 -0.0015
5 10 10 0.1304 0.0036
5 10 11 0.0616 0.0092
5 10 12 0.0111 0.0103
5 10 13 0.0268 0.0063
5 10 14 0.1169 0.0013
5 10 15 0.2460 0.0008
5 10 16 0.3556 0.0063
5 10 17 0.3963 0.0146
5 10 18 0.3517 0.0199
5 10 19 0.2433 0.0192
5 10 20 0.1152 0.0135
5 11 0 -0.4570 0.0068
5 11 1 -0.6082 0.0025
5 11 2 -0.7068 -0.0027
5 11 3 -0.7342 -0.0042
5 11 4 -0.6823 -0.0007
5 11 5 -0.5583 0.0046
5 11 6 -0.3903 0.0066
5 11 7 -0.2246 0.0035
5 11 8 -0.1095 -0.0014
5 11 9 -0.0704 -0.0032
5 11 10 -0.0936 -0.0003
5 11 11 -0.1298 0.0037
5 11 12 -0.1209 0.0035
5 11 13 -0.0325 -0.0028
5 11 14 0.1253 -0.0114
5 11 15 0.3032 -0.0158
5 11 16 0.4386 -0.0125
5 11 17 0.4866 -0.0038
5 11 18 0.4388 0.0045
5 11 19 0.3220 0.0073
5 12 0 -0.2709 0.0088
5 12 1 -0.4645 0.0063
5 12 2 -0.5834 0.0007
5 12 3 -0.6171 -0.0026
5 12 4 -0.5765 -0.0005
5 12 5 -0.4827 0.0052
5 12 6 -0.3631 0.0090
5 12 7 -0.2501 0.0076
5 12 8 -0.1757 0.0023
5 12 9 -0.1563 -0.0020
5 12 10 -0.1797 -0.0024
5 12 11 -0.2066 -0.0006
5 12 12 -0.1905 -0.0014
5 12 13 -0.1061 -0.0075
5 12 14 0.0346 -0.0167
5 12 15 0.1885 -0.0227
5 12 16 0.3048 -0.0209
5 12 17 0.3507 -0.0123
5 12 18 0.3230 -0.0023
5 12 19 0.2438 0.0030
5 13 0 -0.0927 0.0065
5 13 1 -0.2538 0.0058
5 13 2 -0.3430 -0.0004
5 13 3 -0.3583 -0.0058
5 13 4 -0.3230 -0.0050
5 13 5 -0.2621 0.0019
5 13 6 -0.1916 0.0095
5 13 7 -0.1236 0.0123
5 13 8 -0.0731 0.0091
5 13 9 -0.0550 0.0036
5 13 10 -0.0721 0.0003
5 13 11 -0.1073 0.0001
5 13 12 -0.1309 -0.0004
5 13 13 -0.1195 -0.0043
5 13 14 -0.0715 -0.0111
5 13 15 -0.0059 -0.0160
5 13 16 0.0511 -0.0144
5 13 17 0.0830 -0.0059
5 13 18 0.0878 0.0049
5 14 0 0.0164 0.0048
5 14 1 -0.0917 0.0032
5 14 2 -0.1421 -0.0056
5 14 3 -0.1404 -0.0146
5 14 4 -0.1162 -0.0160
5 14 5 -0.0921 -0.0079
5 14 6 -0.0687 0.0045
5 14 7 -0.0351 0.0131
5 14 8 0.0105 0.0137
5 14 9 0.0520 0.0084
5 14 10 0.0671 0.0027
5 14 11 0.0454 0.0003
5 14 12 -0.0029 0.0003
5 14 13 -0.0559 -0.0008
5 14 14 -0.0948 -0.0041
5 14 15 -0.1123 -0.0070
5 14 16 -0.1094 -0.0053
5 14 17 -0.0898 0.0027
5 14 18 -0.0573 0.0134
5 15 0 0.0989 0.0082
5 15 1 0.0149 0.0039
5 15 2 -0.0279 -0.0087
5 15 3 -0.0385 -0.0221
5 15 4 -0.0486 -0.0271
5 15 5 -0.0772 -0.0196
5 15 6 -0.1120 -0.0046
5 15 7 -0.1218 0.0081
5 15 8 -0.0880 0.0115
5 15 9 -0.0227 0.0061
5 15 10 0.0385 -0.0018
5 15 11 0.0633 -0.0060
5 15 12 0.0430 -0.0052
5 15 13 -0.0064 -0.0029
5 15 14 -0.0587 -0.0025
5 15 15 -0.0927 -0.0037
5 15 16 -0.0977 -0.0030
5 15 17 -0.0727 0.0025
5 16 0 0.1406 0.0157
5 16 1 0.0591 0.0106
5 16 2 0.0082 -0.0038
5 16 3 -0.0208 -0.0204
5 16 4 -0.0609 -0.0292
5 16 5 -0.1329 -0.0250
5 16 6 -0.2207 -0.0119
5 16 7 -0.2826 0.0002
5 16 8 -0.2846 0.0028
5 16 9 -0.2279 -0.0044
5 16 10 -0.1466 -0.0142
5 16 11 -0.0808 -0.0185
5 16 12 -0.0503 -0.0149
5 16 13 -0.0475 -0.0074
5 16 14 -0.0506 -0.0023
5 16 15 -0.0405 -0.0020
5 16 16 -0.0106 -0.0039
5 17 1 0.0122 0.0204
5 17 2 -0.0234 0.0083
5 17 3 -0.0334 -0.0080
5 17 4 -0.0545 -0.0192
5 17 5 -0.1164 -0.0196
5 17 6 -0.2127 -0.0118
5 17 7 -0.3040 -0.0048
5 17 8 -0.3489 -0.0063
5 17 9 -0.3344 -0.0165
5 17 10 -0.2805 -0.0275
5 17 11 -0.2193 -0.0301
5 17 12 -0.1698 -0.0214
5 17 13 -0.1289 -0.0070
5 17 14 -0.0830 0.0039
5 18 6 -0.0558 -0.0038
5 18 7 -0.1338 -0.0021
5 18 8 -0.1987 -0.0080
5 18 9 -0.2278 -0.0207
5 18 10 -0.2244 -0.0320
6 -12 0 0.0264 0.0380
6 -11 0 -0.0044 0.0161
6 -11 1 -0.0139 -0.0139
6 -11 2 -0.0161 -0.0445
6 -11 3 0.0016 -0.0630
6 -10 0 -0.0974 0.0015
6 -10 1 -0.1130 -0.0284
6 -10 2 -0.1210 -0.0592
6 -10 3 -0.0964 -0.0765
6 -10 4 -0.0408 -0.0731
6 -10 5 0.0192 -0.0537
6 -9 0 -0.1628 0.0064
6 -9 1 -0.2193 -0.0153
6 -9 2 -0.2656 -0.0386
6 -9 3 -0.2592 -0.0502
6 -9 4 -0.1873 -0.0436
6 -9 5 -0.0751 -0.0244
6 -9 6 0.0340 -0.0060
6 -9 7 0.1070 0.0001
6 -8 0 -0.0761 0.0175
6 -8 1 -0.1817 0.0074
6 -8 2 -0.2842 -0.0055
6 -8 3 -0.3235 -0.0109
6 -8 4 -0.2711 -0.0041
6 -8 5 -0.1471 0.0089
6 -8 6 -0.0036 0.0149
6 -8 7 0.1077 0.0043
6 -8 8 0.1611 -0.0205
6 -8 9 0.1615 -0.0463
6 -7 0 0.1267 0.0170
6 -7 1 0.0118 0.0156
6 -7 2 -0.1154 0.0105
6 -7 3 -0.1876 0.0084
6 -7 4 -0.1696 0.0126
6 -7 5 -0.0760 0.0175
6 -7 6 0.0404 0.0119
6 -7 7 0.1221 -0.0111
6 -7 8 0.1367 -0.0464
6 -7 9 0.0898 -0.0776
6 -7 10 0.0139 -0.0885
6 -6 0 0.2373 0.0052
6 -6 1 0.1587 0.0073
6 -6 2 0.0636 0.0056
6 -6 3 0.0080 0.0040
6 -6 4 0.0181 0.0055
6 -6 5 0.0780 0.0062
6 -6 6 0.1414 -0.0021
6 -6 7 0.1583 -0.0242
6 -6 8 0.1027 -0.0538
6 -6 9 -0.0124 -0.0751
6 -6 10 -0.1422 -0.0731
6 -6 11 -0.2351 -0.0459
6 -5 0 0.1374 -0.0036
6 -5 1 0.0908 -0.0012
6 -5 2 0.0501 -0.0026
6 -5 3 0.0442 -0.0051
6 -5 4 0.0748 -0.0051
6 -5 5 0.1194 -0.0035
6 -5 6 0.1431 -0.0057
6 -5 7 0.1141 -0.0157
6 -5 8 0.0198 -0.0285
6 -5 9 -0.1217 -0.0316
6 -5 10 -0.2635 -0.0141
6 -5 11 -0.3498 0.0229
6 -5 12 -0.3460 0.0638
6 -4 0 -0.0117 -0.0019
6 -4 1 -0.0666 0.0003
6 -4 2 -0.0769 -0.0020
6 -4 3 -0.0485 -0.0064
6 -4 4 -0.0093 -0.0078
6 -4 5 0.0129 -0.0046
6 -4 6 0.0029 -0.0000
6 -4 7 -0.0443 0.0020
6 -4 8 -0.1267 0.0033
6 -4 9 -0.2310 0.0118
6 -4 10 -0.3258 0.0346
6 -4 11 -0.3681 0.0687
6 -4 12 -0.3275 0.0994
6 -4 13 -0.2104 0.1091
6 -3 0 0.0431 0.0049
6 -3 1 -0.0246 0.0069
6 -3 2 -0.0207 0.0033
6 -3 3 0.0144 -0.0033
6 -3 4 0.0272 -0.0072
6 -3 5 -0.0073 -0.0051
6 -3 6 -0.0749 0.0008
6 -3 7 -0.1461 0.0060
6 -3 8 -0.2044 0.0095
6 -3 9 -0.2512 0.0158
6 -3 10 -0.2865 0.0298
6 -3 11 -0.2937 0.0491
6 -3 12 -0.2489 0.0624
6 -3 13 -0.1486 0.0566
6 -3 14 -0.0252 0.0283
6 -2 0 0.3236 0.0080
6 -2 1 0.2995 0.0094
6 -2 2 0.3454 0.0056
6 -2 3 0.3924 -0.0016
6 -2 4 0.3697 -0.0069
6 -2 5 0.2624 -0.0067
6 -2 6 0.1188 -0.0032
6 -2 7 0.0047 -0.0014
6 -2 8 -0.0506 -0.0039
6 -2 9 -0.0684 -0.0076
6 -2 10 -0.0867 -0.0079
6 -2 11 -0.1180 -0.0044
6 -2 12 -0.1405 -0.0045
6 -2 13 -0.1279 -0.0172
6 -2 14 -0.0819 -0.0440
6 -2 15 -0.0347 -0.0740
6 -1 0 0.6269 0.0048
6 -1 1 0.6935 0.0058
6 -1 2 0.8079 0.0034
6 -1 3 0.8846 -0.0011
6 -1 4 0.8462 -0.0039
6 -1 5 0.6896 -0.0027
6 -1 6 0.4914 0.0003
6 -1 7 0.3453 -0.0002
6 -1 8 0.2876 -0.0070
6 -1 9 0.2762 -0.0173
6 -1 10 0.2375 -0.0252
6 -1 11 0.1346 -0.0281
6 -1 12 -0.0058 -0.0304
6 -1 13 -0.1245 -0.0393
6 -1 14 -0.1844 -0.0573
6 -1 15 -0.1931 -0.0764
6 -1 16 -0.1813 -0.0826
6 0 0 0.8266 -0.0010
6 0 1 0.9501 -0.0001
6 0 2 1.0957 -0.0001
6 0 3 1.1802 -0.0004
6 0 4 1.1307 0.0013
6 0 5 0.9536 0.0061
6 0 6 0.7403 0.0113
6 0 7 0.5973 0.0122
6 0 8 0.5606 0.0066
6 0 9 0.5693 -0.0024
6 0 10 0.5224 -0.0083
6 0 11 0.3651 -0.0075
6 0 12 0.1317 -0.0032
6 0 13 -0.0891 -0.0033
6 0 14 -0.2257 -0.0128
6 0 15 -0.2675 -0.0279
6 0 16 -0.2499 -0.0377
6 0 17 -0.2089 -0.0329
6 1 0 0.9812 -0.0039
6 1 1 1.0811 -0.0030
6 1 2 1.1845 -0.0021
6 1 3 1.2267 -0.0005
6 1 4 1.1464 0.0032
6 1 5 0.9540 0.0092
6 1 6 0.7409 0.0151
6 1 7 0.6138 0.0171
6 1 8 0.6060 0.0138
6 1 9 0.6478 0.0087
6 1 10 0.6240 0.0079
6 1 11 0.4699 0.0149
6 1 12 0.2216 0.0263
6 1 13 -0.0174 0.0332
6 1 14 -0.1599 0.0278
6 1 15 -0.1911 0.0104
6 1 16 -0.1581 -0.0106
6 1 17 -0.1138 -0.0246
6 2 0 1.0967 -0.0012
6 2 1 1.1468 -0.0008
6 2 2 1.1948 -0.0011
6 2 3 1.1949 -0.0014
6 2 4 1.0939 -0.0002
6 2 5 0.8954 0.0027
6 2 6 0.6789 0.0055
6 2 7 0.5444 0.0053
6 2 8 0.5289 0.0016
6 2 9 0.5721 -0.0025
6 2 10 0.5650 -0.0016
6 2 11 0.4431 0.0071
6 2 12 0.2391 0.0204
6 2 13 0.0515 0.0296
6 2 14 -0.0389 0.0258
6 2 15 -0.0291 0.0069
6 2 16 0.0181 -0.0206
6 2 17 0.0383 -0.0457
6 2 18 0.0175 -0.0601
6 3 0 0.9846 0.0045
6 3 1 1.0410 0.0040
6 3 2 1.1096 0.0013
6 3 3 1.1491 -0.0019
6 3 4 1.0996 -0.0040
6 3 5 0.9454 -0.0047
6 3 6 0.7439 -0.0053
6 3 7 0.5855 -0.0079
6 3 8 0.5188 -0.0129
6 3 9 0.5104 -0.0179
6 3 10 0.4783 -0.0187
6 3 11 0.3707 -0.0129
6 3 12 0.2152 -0.0024
6 3 13 0.0936 0.0059
6 3 14 0.0658 0.0045
6 3 15 0.1148 -0.0098
6 3 16 0.1632 -0.0327
6 3 17 0.1418 -0.0551
6 3 18 0.0468 -0.0684
6 4 0 0.5204 0.0072
6 4 1 0.6383 0.0056
6 4 2 0.8008 0.0013
6 4 3 0.9565 -0.0032
6 4 4 1.0299 -0.0056
6 4 5 0.9810 -0.0059
6 4 6 0.8402 -0.0056
6 4 7 0.6848 -0.0067
6 4 8 0.5742 -0.0100
6 4 9 0.5060 -0.0140
6 4 10 0.4329 -0.0159
6 4 11 0.3223 -0.0136
6 4 12 0.1990 -0.0074
6 4 13 0.1261 -0.0011
6 4 14 0.1417 0.0007
6 4 15 0.2128 -0.0049
6 4 16 0.2542 -0.0162
6 4 17 0.1975 -0.0276
6 4 18 0.0482 -0.0329
6 4 19 -0.1191 -0.0295
6 5 0 -0.0738 0.0052
6 5 1 0.0839 0.0023
6 5 2 0.3133 -0.0029
6 5 3 0.5553 -0.0068
6 5 4 0.7291 -0.0070
6 5 5 0.7828 -0.0039
6 5 6 0.7277 0.0003
6 5 7 0.6238 0.0033
6 5 8 0.5292 0.0042
6 5 9 0.4577 0.0034
6 5 10 0.3851 0.0024
6 5 11 0.2930 0.0026
6 5 12 0.2041 0.0048
6 5 13 0.1682 0.0084
6 5 14 0.2110 0.0118
6 5 15 0.2954 0.0132
6 5 16 0.3393 0.0122
6 5 17 0.2784 0.0105
6 5 18 0.1200 0.0111
6 5 19 -0.0600 0.0158
6 6 0 -0.4114 0.0029
6 6 1 -0.2775 -0.0007
6 6 2 -0.0806 -0.0064
6 6 3 0.1289 -0.0097
6 6 4 0.2908 -0.0083
6 6 5 0.3686 -0.0032
6 6 6 0.3713 0.0028
6 6 7 0.3424 0.0073
6 6 8 0.3218 0.0099
6 6 9 0.3153 0.0110
6 6 10 0.2995 0.0110
6 6 11 0.2579 0.0101
6 6 12 0.2102 0.0090
6 6 13 0.2010 0.0091
6 6 14 0.2567 0.0111
6 6 15 0.3499 0.0148
6 6 16 0.4113 0.0186
6 6 17 0.3818 0.0212
6 6 18 0.2615 0.0229
6 6 19 0.1112 0.0250
6 7 0 -0.3894 0.0040
6 7 1 -0.2974 0.0015
6 7 2 -0.1918 -0.0037
6 7 3 -0.1005 -0.0070
6 7 4 -0.0428 -0.0059
6 7 5 -0.0178 -0.0020
6 7 6 -0.0024 0.0014
6 7 7 0.0335 0.0027
6 7 8 0.1018 0.0026
6 7 9 0.1816 0.0025
6 7 10 0.2340 0.0024
6 7 11 0.2360 0.0011
6 7 12 0.2058 -0.0019
6 7 13 0.1915 -0.0049
6 7 14 0.2304 -0.0054
6 7 15 0.3137 -0.0023
6 7 16 0.3896 0.0026
6 7 17 0.4040 0.0063
6 7 18 0.3442 0.0071
6 7 19 0.2470 0.0058
6 8 0 -0.2738 0.0066
6 8 1 -0.1859 0.0062
6 8 2 -0.1417 0.0021
6 8 3 -0.1488 -0.0007
6 8 4 -0.1871 -0.0002
6 8 5 -0.2175 0.0018
6 8 6 -0.1996 0.0016
6 8 7 -0.1138 -0.0018
6 8 8 0.0234 -0.0061
6 8 9 0.1629 -0.0083
6 8 10 0.2486 -0.0081
6 8 11 0.2538 -0.0080
6 8 12 0.2003 -0.0103
6 8 13 0.1448 -0.0142
6 8 14 0.1380 -0.0161
6 8 15 0.1885 -0.0135
6 8 16 0.2597 -0.0075
6 8 17 0.3014 -0.0022
6 8 18 0.2887 -0.0011
6 8 19 0.2362 -0.0041
6 9 0 -0.3149 0.0068
6 9 1 -0.2141 0.0068
6 9 2 -0.1826 0.0033
6 9 3 -0.2192 0.0011
6 9 4 -0.2846 0.0023
6 9 5 -0.3204 0.0045
6 9 6 -0.2793 0.0035
6 9 7 -0.1515 -0.0019
6 9 8 0.0269 -0.0080
6 9 9 0.1900 -0.0106
6 9 10 0.2763 -0.0084
6 9 11 0.2639 -0.0050
6 9 12 0.1830 -0.0044
6 9 13 0.0968 -0.0071
6 9 14 0.0608 -0.0093
6 9 15 0.0893 -0.0067
6 9 16 0.1513 0.0010
6 9 17 0.1980 0.0093
6 9 18 0.1983 0.0130
6 9 19 0.1557 0.0103
6 10 0 -0.4516 0.0057
6 10 1 -0.3891 0.0035
6 10 2 -0.3794 -0.0012
6 10 3 -0.4202 -0.0035
6 10 4 -0.4742 -0.0012
6 10 5 -0.4871 0.0028
6 10 6 -0.4183 0.0035
6 10 7 -0.2667 -0.0008
6 10 8 -0.0758 -0.0065
6 10 9 0.0881 -0.0081
6 10 10 0.1719 -0.0038
6 10 11 0.1652 0.0029
6 10 12 0.1056 0.0063
6 10 13 0.0538 0.0045
6 10 14 0.0558 0.0014
6 10 15 0.1154 0.0028
6 10 16 0.1955 0.0108
6 10 17 0.2452 0.0218
6 10 18 0.2335 0.0292
6 10 19 0.1656 0.0287
6 11 0 -0.4779 0.0066
6 11 1 -0.5199 0.0024
6 11 2 -0.5768 -0.0039
6 11 3 -0.6447 -0.0072
6 11 4 -0.6996 -0.0049
6 11 5 -0.7055 0.0003
6 11 6 -0.6360 0.0029
6 11 7 -0.4958 0.0000
6 11 8 -0.3240 -0.0054
6 11 9 -0.1753 -0.0074
6 11 10 -0.0878 -0.0030
6 11 11 -0.0602 0.0045
6 11 12 -0.0533 0.0087
6 11 13 -0.0169 0.0063
6 11 14 0.0761 0.0006
6 11 15 0.2107 -0.0016
6 11 16 0.3379 0.0042
6 11 17 0.4041 0.0158
6 11 18 0.3821 0.0260
6 11 19 0.2839 0.0287
6 12 0 -0.3490 0.0086
6 12 1 -0.4953 0.0059
6 12 2 -0.6220 -0.0001
6 12 3 -0.7215 -0.0043
6 12 4 -0.7856 -0.0033
6 12 5 -0.8003 0.0017
6 12 6 -0.7538 0.0051
6 12 7 -0.6512 0.0031
6 12 8 -0.5208 -0.0027
6 12 9 -0.4017 -0.0067
6 12 10 -0.3197 -0.0049
6 12 11 -0.2685 0.0007
6 12 12 -0.2132 0.0038
6 12 13 -0.1151 0.0000
6 12 14 0.0389 -0.0088
6 12 15 0.2226 -0.0153
6 12 16 0.3826 -0.0135
6 12 17 0.4672 -0.0036
6 12 18 0.4530 0.0080
6 12 19 0.3550 0.0139
6 13 0 -0.1807 0.0073
6 13 1 -0.3611 0.0092
6 13 2 -0.5010 0.0052
6 13 3 -0.5917 0.0001
6 13 4 -0.6402 -0.0007
6 13 5 -0.6519 0.0035
6 13 6 -0.6245 0.0082
6 13 7 -0.5583 0.0085
6 13 8 -0.4681 0.0038
6 13 9 -0.3809 -0.0015
6 13 10 -0.3189 -0.0026
6 13 11 -0.2815 -0.0000
6 13 12 -0.2430 0.0014
6 13 13 -0.1714 -0.0035
6 13 14 -0.0533 -0.0139
6 13 15 0.0935 -0.0235
6 13 16 0.2278 -0.0253
6 13 17 0.3087 -0.0177
6 13 18 0.3161 -0.0059
6 14 0 -0.0366 0.0027
6 14 1 -0.1809 0.0079
6 14 2 -0.2786 0.0044
6 14 3 -0.3249 -0.0029
6 14 4 -0.3399 -0.0064
6 14 5 -0.3411 -0.0026
6 14 6 -0.3282 0.0055
6 14 7 -0.2908 0.0114
6 14 8 -0.2281 0.0117
6 14 9 -0.1591 0.0080
6 14 10 -0.1116 0.0052
6 14 11 -0.1009 0.0049
6 14 12 -0.1169 0.0046
6 14 13 -0.1316 -0.0004
6 14 14 -0.1201 -0.0105
6 14 15 -0.0769 -0.0210
6 14 16 -0.0172 -0.0248
6 14 17 0.0360 -0.0191
6 14 18 0.0656 -0.0074
6 15 0 0.1142 0.0002
6 15 1 0.0248 0.0042
6 15 2 -0.0269 -0.0024
6 15 3 -0.0422 -0.0142
6 15 4 -0.0488 -0.0216
6 15 5 -0.0682 -0.0180
6 15 6 -0.0942 -0.0054
6 15 7 -0.1000 0.0083
6 15 8 -0.0663 0.0158
6 15 9 -0.0034 0.0158
6 15 10 0.0526 0.0123
6 15 11 0.0657 0.0094
6 15 12 0.0254 0.0074
6 15 13 -0.0489 0.0032
6 15 14 -0.1227 -0.0050
6 15 15 -0.1677 -0.0142
6 15 16 -0.1733 -0.0185
6 15 17 -0.1456 -0.0140
6 16 0 0.2464 0.0039
6 16 1 0.1941 0.0039
6 16 2 0.1616 -0.0075
6 16 3 0.1436 -0.0247
6 16 4 0.1101 -0.0364
6 16 5 0.0400 -0.0342
6 16 6 -0.0526 -0.0189
6 16 7 -0.1242 0.0004
6 16 8 -0.1361 0.0132
6 16 9 -0.0859 0.0155
6 16 10 -0.0111 0.0107
6 16 11 0.0372 0.0053
6 16 12 0.0284 0.0025
6 16 13 -0.0314 0.0006
6 16 14 -0.1090 -0.0033
6 16 15 -0.1672 -0.0091
6 16 16 -0.1830 -0.0127
6 17 1 0.2175 0.0097
6 17 2 0.1947 -0.0042
6 17 3 0.1741 -0.0243
6 17 4 0.1248 -0.0393
6 17 5 0.0238 -0.0398
6 17 6 -0.1146 -0.0258
6 17 7 -0.2407 -0.0067
6 17 8 -0.3024 0.0057
6 17 9 -0.2821 0.0061
6 17 10 -0.2083 -0.0018
6 17 11 -0.1326 -0.0094
6 17 12 -0.0947 -0.0112
6 17 13 -0.1003 -0.0079
6 17 14 -0.1256 -0.0048
6 18 5 0.0064 -0.0306
6 18 6 -0.1108 -0.0210
6 18 7 -0.2384 -0.0072
6 18 8 -0.3243 -0.0002
6 18 9 -0.3405 -0.0052
6 18 10 -0.2989 -0.0175
6 18 11 -0.2375 -0.0268
7 -11 0 0.0274 0.0672
7 -10 0 -0.0586 0.0395
7 -10 1 -0.0653 0.0036
7 -10 2 -0.0681 -0.0424
7 -10 3 -0.0487 -0.0778
7 -9 0 -0.1683 0.0141
7 -9 1 -0.1778 -0.0206
7 -9 2 -0.1872 -0.0638
7 -9 3 -0.1672 -0.0939
7 -9 4 -0.1102 -0.0947
7 -9 5 -0.0369 -0.0666
7 -8 0 -0.1738 0.0098
7 -8 1 -0.2076 -0.0140
7 -8 2 -0.2505 -0.0449
7 -8 3 -0.2584 -0.0637
7 -8 4 -0.2069 -0.0561
7 -8 5 -0.1085 -0.0244
7 -8 6 -0.0007 0.0141
7 -8 7 0.0806 0.0382
7 -7 0 -0.0090 0.0165
7 -7 1 -0.0635 0.0064
7 -7 2 -0.1472 -0.0099
7 -7 3 -0.2014 -0.0184
7 -7 4 -0.1851 -0.0087
7 -7 5 -0.0992 0.0157
7 -7 6 0.0184 0.0378
7 -7 7 0.1199 0.0393
7 -7 8 0.1753 0.0143
7 -7 9 0.1818 -0.0247
7 -6 0 0.2077 0.0154
7 -6 1 0.1615 0.0149
7 -6 2 0.0646 0.0088
7 -6 3 -0.0172 0.0055
7 -6 4 -0.0345 0.0116
7 -6 5 0.0189 0.0235
7 -6 6 0.1081 0.0269
7 -6 7 0.1818 0.0078
7 -6 8 0.2029 -0.0343
7 -6 9 0.1654 -0.0832
7 -6 10 0.0922 -0.1152
7 -5 0 0.2775 0.0036
7 -5 1 0.2512 0.0067
7 -5 2 0.1715 0.0054
7 -5 3 0.1001 0.0036
7 -5 4 0.0799 0.0056
7 -5 5 0.1149 0.0092
7 -5 6 0.1730 0.0041
7 -5 7 0.2069 -0.0192
7 -5 8 0.1815 -0.0585
7 -5 9 0.0929 -0.0968
7 -5 10 -0.0288 -0.1123
7 -5 11 -0.1364 -0.0939
7 -4 0 0.1662 -0.0071
7 -4 1 0.1288 -0.0034
7 -4 2 0.0634 -0.0032
7 -4 3 0.0174 -0.0047
7 -4 4 0.0144 -0.0043
7 -4 5 0.0481 -0.0018
7 -4 6 0.0900 -0.0033
7 -4 7 0.1040 -0.0154
7 -4 8 0.0630 -0.0359
7 -4 9 -0.0354 -0.0511
7 -4 10 -0.1616 -0.0445
7 -4 11 -0.2650 -0.0101
7 -4 12 -0.3003 0.0399
7 -3 0 0.0590 -0.0076
7 -3 1 -0.0228 -0.0038
7 -3 2 -0.0921 -0.0035
7 -3 3 -0.1233 -0.0059
7 -3 4 -0.1193 -0.0065
7 -3 5 -0.0979 -0.0030
7 -3 6 -0.0778 0.0018
7 -3 7 -0.0748 0.0029
7 -3 8 -0.1025 0.0005
7 -3 9 -0.1664 0.0031
7 -3 10 -0.2506 0.0213
7 -3 11 -0.3164 0.0569
7 -3 12 -0.3210 0.0972
7 -3 13 -0.2476 0.1211
7 -2 0 0.1274 -0.0007
7 -2 1 0.0257 0.0029
7 -2 2 -0.0311 0.0024
7 -2 3 -0.0454 -0.0018
7 -2 4 -0.0475 -0.0051
7 -2 5 -0.0627 -0.0034
7 -2 6 -0.0906 0.0023
7 -2 7 -0.1169 0.0076
7 -2 8 -0.1371 0.0105
7 -2 9 -0.1630 0.0152
7 -2 10 -0.2039 0.0281
7 -2 11 -0.2457 0.0499
7 -2 12 -0.2531 0.0702
7 -2 13 -0.2001 0.0732
7 -2 14 -0.0979 0.0499
7 -1 0 0.3321 0.0051
7 -1 1 0.2829 0.0080
7 -1 2 0.2895 0.0068
7 -1 3 0.3202 0.0015
7 -1 4 0.3204 -0.0037
7 -1 5 0.2639 -0.0048
7 -1 6 0.1753 -0.0022
7 -1 7 0.1030 -0.0003
7 -1 8 0.0712 -0.0020
7 -1 9 0.0594 -0.0056
7 -1 10 0.0276 -0.0059
7 -1 11 -0.0388 -0.0015
7 -1 12 -0.1119 0.0015
7 -1 13 -0.1472 -0.0077
7 -1 14 -0.1271 -0.0341
7 -1 15 -0.0763 -0.0696
7 0 0 0.5291 0.0051
7 0 1 0.5736 0.0069
7 0 2 0.6655 0.0060
7 0 3 0.7505 0.0023
7 0 4 0.7605 -0.0012
7 0 5 0.6739 -0.0018
7 0 6 0.5385 -0.0003
7 0 7 0.4315 -0.0007
7 0 8 0.3918 -0.0064
7 0 9 0.3869 -0.0160
7 0 10 0.3466 -0.0245
7 0 11 0.2288 -0.0287
7 0 12 0.0581 -0.0315
7 0 13 -0.0970 -0.0403
7 0 14 -0.1823 -0.0592
7 0 15 -0.1957 -0.0824
7 0 16 -0.1750 -0.0955
7 1 0 0.6733 0.0016
7 1 1 0.7775 0.0022
7 1 2 0.9078 0.0020
7 1 3 1.0044 0.0011
7 1 4 1.0004 0.0013
7 1 5 0.8835 0.0041
7 1 6 0.7187 0.0081
7 1 7 0.6008 0.0095
7 1 8 0.5745 0.0052
7 1 9 0.5948 -0.0032
7 1 10 0.5655 -0.0105
7 1 11 0.4222 -0.0128
7 1 12 0.1872 -0.0113
7 1 13 -0.0495 -0.0124
7 1 14 -0.2021 -0.0215
7 1 15 -0.2473 -0.0363
7 1 16 -0.2228 -0.0470
7 1 17 -0.1790 -0.0432
7 2 0 0.7869 0.0005
7 2 1 0.8912 0.0002
7 2 2 0.9975 -0.0005
7 2 3 1.0554 -0.0008
7 2 4 1.0090 0.0009
7 2 5 0.8560 0.0053
7 2 6 0.6693 0.0106
7 2 7 0.5490 0.0135
7 2 8 0.5410 0.0120
7 2 9 0.5933 0.0074
7 2 10 0.5956 0.0046
7 2 11 0.4699 0.0075
7 2 12 0.2355 0.0150
7 2 13 -0.0076 0.0210
7 2 14 -0.1580 0.0187
7 2 15 -0.1851 0.0068
7 2 16 -0.1342 -0.0088
7 2 17 -0.0731 -0.0189
7 3 0 0.7875 0.0043
7 3 1 0.8797 0.0035
7 3 2 0.9626 0.0012
7 3 3 0.9962 -0.0010
7 3 4 0.9333 -0.0013
7 3 5 0.7728 0.0008
7 3 6 0.5823 0.0038
7 3 7 0.4580 0.0050
7 3 8 0.4470 0.0030
7 3 9 0.5034 -0.0006
7 3 10 0.5214 -0.0020
7 3 11 0.4238 0.0023
7 3 12 0.2272 0.0115
7 3 13 0.0291 0.0202
7 3 14 -0.0728 0.0214
7 3 15 -0.0552 0.0116
7 3 16 0.0232 -0.0062
7 3 17 0.0805 -0.0246
7 3 18 0.0791 -0.0365
7 4 0 0.5372 0.0080
7 4 1 0.6464 0.0076
7 4 2 0.7617 0.0042
7 4 3 0.8432 0.0003
7 4 4 0.8400 -0.0020
7 4 5 0.7381 -0.0022
7 4 6 0.5870 -0.0019
7 4 7 0.4705 -0.0032
7 4 8 0.4384 -0.0069
7 4 9 0.4628 -0.0117
7 4 10 0.4611 -0.0145
7 4 11 0.3707 -0.0126
7 4 12 0.2091 -0.0061
7 4 13 0.0629 0.0017
7 4 14 0.0141 0.0052
7 4 15 0.0698 0.0006
7 4 16 0.1576 -0.0118
7 4 17 0.1882 -0.0272
7 4 18 0.1276 -0.0394
7 5 0 0.0900 0.0058
7 5 1 0.2211 0.0059
7 5 2 0.3937 0.0026
7 5 3 0.5608 -0.0009
7 5 4 0.6603 -0.0023
7 5 5 0.6596 -0.0014
7 5 6 0.5844 -0.0001
7 5 7 0.5002 -0.0006
7 5 8 0.4571 -0.0035
7 5 9 0.4472 -0.0076
7 5 10 0.4166 -0.0110
7 5 11 0.3238 -0.0117
7 5 12 0.1895 -0.0089
7 5 13 0.0871 -0.0036
7 5 14 0.0797 0.0014
7 5 15 0.1593 0.0032
7 5 16 0.2458 0.0004
7 5 17 0.2491 -0.0057
7 5 18 0.1413 -0.0119
7 6 0 -0.2802 -0.0006
7 6 1 -0.1674 -0.0007
7 6 2 0.0142 -0.0037
7 6 3 0.2142 -0.0061
7 6 4 0.3679 -0.0051
7 6 5 0.4348 -0.0011
7 6 6 0.4248 0.0033
7 6 7 0.3858 0.0058
7 6 8 0.3607 0.0058
7 6 9 0.3509 0.0044
7 6 10 0.3220 0.0027
7 6 11 0.2474 0.0014
7 6 12 0.1486 0.0012
7 6 13 0.0877 0.0030
7 6 14 0.1143 0.0071
7 6 15 0.2138 0.0124
7 6 16 0.3083 0.0168
7 6 17 0.3123 0.0185
7 6 18 0.2002 0.0175
7 6 19 0.0256 0.0154
7 7 0 -0.3928 -0.0032
7 7 1 -0.3259 -0.0032
7 7 2 -0.1954 -0.0066
7 7 3 -0.0465 -0.0092
7 7 4 0.0707 -0.0077
7 7 5 0.1288 -0.0028
7 7 6 0.1387 0.0025
7 7 7 0.1375 0.0057
7 7 8 0.1545 0.0068
7 7 9 0.1843 0.0073
7 7 10 0.1938 0.0075
7 7 11 0.1591 0.0067
7 7 12 0.0984 0.0043
7 7 13 0.0664 0.0020
7 7 14 0.1093 0.0023
7 7 15 0.2186 0.0065
7 7 16 0.3286 0.0129
7 7 17 0.3629 0.0180
7 7 18 0.2926 0.0190
7 7 19 0.1577 0.0164
7 8 0 -0.3729 0.0017
7 8 1 -0.3199 0.0029
7 8 2 -0.2366 -0.0008
7 8 3 -0.1603 -0.0048
7 8 4 -0.1176 -0.0051
7 8 5 -0.1085 -0.0023
7 8 6 -0.1067 0.0004
7 8 7 -0.0780 0.0008
7 8 8 -0.0089 -0.0003
7 8 9 0.0777 -0.0005
7 8 10 0.1362 0.0007
7 8 11 0.1358 0.0008
7 8 12 0.0896 -0.0025
7 8 13 0.0504 -0.0082
7 8 14 0.0701 -0.0126
7 8 15 0.1566 -0.0118
7 8 16 0.2641 -0.0063
7 8 17 0.3284 -0.0002
7 8 18 0.3151 0.0020
7 8 19 0.2430 -0.0009
7 9 0 -0.4359 0.0088
7 9 1 -0.3455 0.0112
7 9 2 -0.2585 0.0074
7 9 3 -0.2105 0.0022
7 9 4 -0.2099 0.0002
7 9 5 -0.2317 0.0009
7 9 6 -0.2315 0.0010
7 9 7 -0.1730 -0.0019
7 9 8 -0.0550 -0.0058
7 9 9 0.0818 -0.0073
7 9 10 0.1778 -0.0053
7 9 11 0.1932 -0.0031
7 9 12 0.1372 -0.0051
7 9 13 0.0632 -0.0119
7 9 14 0.0312 -0.0191
7 9 15 0.0660 -0.0210
7 9 16 0.1426 -0.0161
7 9 17 0.2099 -0.0082
7 9 18 0.2304 -0.0035
7 9 19 0.2045 -0.0051
7 10 0 -0.5688 0.0117
7 10 1 -0.4454 0.0131
7 10 2 -0.3392 0.0082
7 10 3 -0.2893 0.0023
7 10 4 -0.2982 0.0002
7 10 5 -0.3289 0.0014
7 10 6 -0.3259 0.0017
7 10 7 -0.2498 -0.0016
7 10 8 -0.1041 -0.0066
7 10 9 0.0627 -0.0083
7 10 10 0.1844 -0.0049
7 10 11 0.2170 0.0003
7 10 12 0.1666 0.0015
7 10 13 0.0834 -0.0038
7 10 14 0.0278 -0.0114
7 10 15 0.0309 -0.0143
7 10 16 0.0791 -0.0087
7 10 17 0.1311 0.0021
7 10 18 0.1507 0.0109
7 10 19 0.1306 0.0122
7 11 0 -0.5852 0.0112
7 11 1 -0.4958 0.0089
7 11 2 -0.4198 0.0020
7 11 3 -0.3958 -0.0044
7 11 4 -0.4283 -0.0057
7 11 5 -0.4817 -0.0025
7 11 6 -0.4997 0.0001
7 11 7 -0.4403 -0.0018
7 11 8 -0.3035 -0.0067
7 11 9 -0.1335 -0.0089
7 11 10 0.0079 -0.0049
7 11 11 0.0788 0.0025
7 11 12 0.0811 0.0068
7 11 13 0.0553 0.0039
7 11 14 0.0492 -0.0031
7 11 15 0.0852 -0.0065
7 11 16 0.1476 -0.0007
7 11 17 0.1974 0.0127
7 11 18 0.2023 0.0256
7 11 19 0.1569 0.0305
7 12 0 -0.4381 0.0103
7 12 1 -0.4415 0.0061
7 12 2 -0.4476 -0.0015
7 12 3 -0.4852 -0.0079
7 12 4 -0.5628 -0.0086
7 12 5 -0.6549 -0.0042
7 12 6 -0.7136 -0.0003
7 12 7 -0.6972 -0.0016
7 12 8 -0.5978 -0.0074
7 12 9 -0.4473 -0.0118
7 12 10 -0.2963 -0.0099
7 12 11 -0.1813 -0.0028
7 12 12 -0.1044 0.0029
7 12 13 -0.0384 0.0018
7 12 14 0.0471 -0.0050
7 12 15 0.1584 -0.0097
7 12 16 0.2706 -0.0055
7 12 17 0.3427 0.0080
7 12 18 0.3448 0.0232
7 13 0 -0.2812 0.0081
7 13 1 -0.3702 0.0073
7 13 2 -0.4473 0.0027
7 13 3 -0.5275 -0.0024
7 13 4 -0.6237 -0.0035
7 13 5 -0.7266 0.0000
7 13 6 -0.8030 0.0035
7 13 7 -0.8159 0.0018
7 13 8 -0.7507 -0.0055
7 13 9 -0.6266 -0.0127
7 13 10 -0.4831 -0.0141
7 13 11 -0.3528 -0.0092
7 13 12 -0.2411 -0.0037
7 13 13 -0.1297 -0.0042
7 13 14 0.0014 -0.0112
7 13 15 0.1517 -0.0183
7 13 16 0.2933 -0.0177
7 13 17 0.3864 -0.0071
7 13 18 0.4023 0.0078
7 14 0 -0.2068 0.0022
7 14 1 -0.3236 0.0085
7 14 2 -0.4119 0.0087
7 14 3 -0.4768 0.0048
7 14 4 -0.5376 0.0021
7 14 5 -0.6028 0.0035
7 14 6 -0.6559 0.0064
7 14 7 -0.6658 0.0060
7 14 8 -0.6133 0.0005
7 14 9 -0.5086 -0.0067
7 14 10 -0.3860 -0.0098
7 14 11 -0.2791 -0.0070
7 14 12 -0.1988 -0.0027
7 14 13 -0.1301 -0.0032
7 14 14 -0.0500 -0.0109
7 14 15 0.0506 -0.0207
7 14 16 0.1569 -0.0248
7 14 17 0.2393 -0.0189
7 15 0 -0.1088 -0.0047
7 15 1 -0.1996 0.0064
7 15 2 -0.2537 0.0086
7 15 3 -0.2733 0.0033
7 15 4 -0.2851 -0.0029
7 15 5 -0.3105 -0.0040
7 15 6 -0.3433 0.0003
7 15 7 -0.3532 0.0054
7 15 8 -0.3133 0.0068
7 15 9 -0.2259 0.0047
7 15 10 -0.1246 0.0032
7 15 11 -0.0514 0.0049
7 15 12 -0.0281 0.0076
7 15 13 -0.0442 0.0062
7 15 14 -0.0684 -0.0024
7 15 15 -0.0721 -0.0146
7 15 16 -0.0461 -0.0231
7 15 17 -0.0018 -0.0221
7 16 0 0.1016 -0.0069
7 16 1 0.0586 0.0031
7 16 2 0.0423 0.0024
7 16 3 0.0476 -0.0079
7 16 4 0.0441 -0.0193
7 16 5 0.0057 -0.0228
7 16 6 -0.0612 -0.0155
7 16 7 -0.1179 -0.0023
7 16 8 -0.1228 0.0093
7 16 9 -0.0663 0.0151
7 16 10 0.0197 0.0168
7 16 11 0.0824 0.0176
7 16 12 0.0835 0.0181
7 16 13 0.0220 0.0153
7 16 14 -0.0699 0.0065
7 16 15 -0.1490 -0.0065
7 17 1 0.2966 0.0026
7 17 2 0.3045 -0.0036
7 17 3 0.3094 -0.0197
7 17 4 0.2799 -0.0362
7 17 5 0.1912 -0.0419
7 17 6 0.0544 -0.0323
7 17 7 -0.0808 -0.0127
7 17 8 -0.1563 0.0066
7 17 9 -0.1462 0.0179
7 17 10 -0.0745 0.0207
7 17 11 0.0011 0.0193
7 17 12 0.0281 0.0174
7 17 13 -0.0105 0.0144
7 17 14 -0.0919 0.0080
7 18 6 0.0389 -0.0393
7 18 7 -0.1397 -0.0189
7 18 8 -0.2644 0.0013
7 18 9 -0.2962 0.0118
7 18 10 -0.2459 0.0113
8 -10 0 -0.0081 0.0829
8 -10 1 -0.0413 0.0588
8 -9 0 -0.1328 0.0536
8 -9 1 -0.1555 0.0214
8 -9 2 -0.1674 -0.0322
8 -9 3 -0.1453 -0.0830
8 -8 0 -0.2330 0.0241
8 -8 1 -0.2448 -0.0068
8 -8 2 -0.2525 -0.0563
8 -8 3 -0.2259 -0.0999
8 -8 4 -0.1552 -0.1128
8 -8 5 -0.0615 -0.0862
8 -8 6 0.0181 -0.0338
8 -7 0 -0.1921 0.0147
8 -7 1 -0.1960 -0.0056
8 -7 2 -0.2129 -0.0409
8 -7 3 -0.2052 -0.0700
8 -7 4 -0.1499 -0.0712
8 -7 5 -0.0566 -0.0380
8 -7 6 0.0399 0.0141
8 -7 7 0.1058 0.0583
8 -6 0 -0.0131 0.0174
8 -6 1 -0.0011 0.0099
8 -6 2 -0.0293 -0.0093
8 -6 3 -0.0537 -0.0250
8 -6 4 -0.0376 -0.0211
8 -6 5 0.0232 0.0059
8 -6 6 0.1019 0.0409
8 -6 7 0.1630 0.0600
8 -6 8 0.1855 0.0476
8 -6 9 0.1720 0.0090
8 -5 0 0.1625 0.0143
8 -5 1 0.1985 0.0151
8 -5 2 0.1694 0.0076
8 -5 3 0.1230 0.0000
8 -5 4 0.1039 0.0028
8 -5 5 0.1262 0.0172
8 -5 6 0.1712 0.0306
8 -5 7 0.2058 0.0241
8 -5 8 0.2050 -0.0113
8 -5 9 0.1655 -0.0649
8 -5 10 0.1045 -0.1117
8 -4 0 0.2114 0.0017
8 -4 1 0.2530 0.0055
8 -4 2 0.2220 0.0043
8 -4 3 0.1671 0.0010
8 -4 4 0.1320 0.0020
8 -4 5 0.1321 0.0079
8 -4 6 0.1541 0.0094
8 -4 7 0.1690 -0.0065
8 -4 8 0.1513 -0.0442
8 -4 9 0.0936 -0.0909
8 -4 10 0.0111 -0.1226
8 -4 11 -0.0660 -0.1205
8 -3 0 0.1722 -0.0097
8 -3 1 0.1774 -0.0056
8 -3 2 0.1239 -0.0040
8 -3 3 0.0583 -0.0046
8 -3 4 0.0146 -0.0034
8 -3 5 0.0030 0.0010
8 -3 6 0.0132 0.0033
8 -3 7 0.0245 -0.0054
8 -3 8 0.0146 -0.0273
8 -3 9 -0.0291 -0.0515
8 -3 10 -0.0996 -0.0594
8 -3 11 -0.1695 -0.0380
8 -3 12 -0.2039 0.0077
8 -2 0 0.1743 -0.0113
8 -2 1 0.1230 -0.0071
8 -2 2 0.0400 -0.0046
8 -2 3 -0.0371 -0.0045
8 -2 4 -0.0906 -0.0035
8 -2 5 -0.1197 0.0012
8 -2 6 -0.1278 0.0074
8 -2 7 -0.1208 0.0093
8 -2 8 -0.1114 0.0048
8 -2 9 -0.1179 0.0003
8 -2 10 -0.1505 0.0084
8 -2 11 -0.1957 0.0360
8 -2 12 -0.2204 0.0758
8 -2 13 -0.1956 0.1080
8 -1 0 0.2557 -0.0050
8 -1 1 0.1839 -0.0008
8 -1 2 0.1080 0.0013
8 -1 3 0.0478 0.0001
8 -1 4 -0.0019 -0.0014
8 -1 5 -0.0497 0.0006
8 -1 6 -0.0879 0.0060
8 -1 7 -0.0992 0.0109
8 -1 8 -0.0801 0.0123
8 -1 9 -0.0540 0.0134
8 -1 10 -0.0537 0.0216
8 -1 11 -0.0894 0.0404
8 -1 12 -0.1354 0.0631
8 -1 13 -0.1507 0.0742
8 -1 14 -0.1154 0.0607
8 0 0 0.3425 0.0009
8 0 1 0.3116 0.0046
8 0 2 0.2970 0.0059
8 0 3 0.2938 0.0036
8 0 4 0.2728 -0.0001
8 0 5 0.2175 -0.0017
8 0 6 0.1499 -0.0003
8 0 7 0.1139 0.0010
8 0 8 0.1316 -0.0006
8 0 9 0.1753 -0.0041
8 0 10 0.1873 -0.0049
8 0 11 0.1300 0.0000
8 0 12 0.0203 0.0061
8 0 13 -0.0846 0.0029
8 0 14 -0.1352 -0.0177
8 0 15 -0.1266 -0.0519
8 1 0 0.3957 0.0018
8 1 1 0.4306 0.0042
8 1 2 0.4897 0.0050
8 1 3 0.5464 0.0030
8 1 4 0.5541 -0.0000
8 1 5 0.4935 -0.0017
8 1 6 0.4012 -0.0016
8 1 7 0.3450 -0.0022
8 1 8 0.3622 -0.0063
8 1 9 0.4201 -0.0136
8 1 10 0.4366 -0.0203
8 1 11 0.3482 -0.0233
8 1 12 0.1637 -0.0245
8 1 13 -0.0416 -0.0308
8 1 14 -0.1856 -0.0477
8 1 15 -0.2358 -0.0720
8 1 16 -0.2183 -0.0912
8 2 0 0.4542 0.0006
8 2 1 0.5299 0.0010
8 2 2 0.6235 0.0007
8 2 3 0.6977 -0.0006
8 2 4 0.7006 -0.0014
8 2 5 0.6168 -0.0005
8 2 6 0.4958 0.0019
8 2 7 0.4216 0.0033
8 2 8 0.4416 0.0013
8 2 9 0.5177 -0.0041
8 2 10 0.5489 -0.0096
8 2 11 0.4508 -0.0120
8 2 12 0.2257 -0.0119
8 2 13 -0.0378 -0.0141
8 2 14 -0.2313 -0.0233
8 2 15 -0.3014 -0.0387
8 2 16 -0.2719 -0.0518
8 3 0 0.4940 0.0028
8 3 1 0.5818 0.0016
8 3 2 0.6757 -0.0007
8 3 3 0.7369 -0.0029
8 3 4 0.7163 -0.0035
8 3 5 0.6040 -0.0014
8 3 6 0.4565 0.0025
8 3 7 0.3651 0.0059
8 3 8 0.3826 0.0066
8 3 9 0.4705 0.0047
8 3 10 0.5203 0.0026
8 3 11 0.4376 0.0032
8 3 12 0.2194 0.0065
8 3 13 -0.0406 0.0089
8 3 14 -0.2227 0.0057
8 3 15 -0.2663 -0.0041
8 3 16 -0.2006 -0.0161
8 3 17 -0.1033 -0.0231
8 4 0 0.3830 0.0079
8 4 1 0.4833 0.0068
8 4 2 0.5904 0.0033
8 4 3 0.6645 -0.0006
8 4 4 0.6573 -0.0026
8 4 5 0.5568 -0.0017
8 4 6 0.4150 0.0009
8 4 7 0.3203 0.0030
8 4 8 0.3281 0.0032
8 4 9 0.4084 0.0016
8 4 10 0.4613 0.0001
8 4 11 0.3969 0.0009
8 4 12 0.2109 0.0042
8 4 13 -0.0067 0.0078
8 4 14 -0.1412 0.0082
8 4 15 -0.1390 0.0030
8 4 16 -0.0404 -0.0065
8 4 17 0.0641 -0.0163
8 5 0 0.0840 0.0089
8 5 1 0.1997 0.0097
8 5 2 0.3453 0.0070
8 5 3 0.4767 0.0034
8 5 4 0.5385 0.0015
8 5 5 0.5063 0.0019
8 5 6 0.4156 0.0032
8 5 7 0.3418 0.0034
8 5 8 0.3400 0.0015
8 5 9 0.3952 -0.0019
8 5 10 0.4304 -0.0052
8 5 11 0.3724 -0.0069
8 5 12 0.2206 -0.0064
8 5 13 0.0549 -0.0041
8 5 14 -0.0261 -0.0018
8 5 15 0.0150 -0.0015
8 5 16 0.1257 -0.0043
8 5 17 0.2094 -0.0093
8 5 18 0.2018 -0.0147
8 6 0 -0.2070 0.0017
8 6 1 -0.1055 0.0042
8 6 2 0.0592 0.0036
8 6 3 0.2390 0.0025
8 6 4 0.3706 0.0032
8 6 5 0.4147 0.0059
8 6 6 0.3861 0.0084
8 6 7 0.3419 0.0087
8 6 8 0.3334 0.0063
8 6 9 0.3604 0.0025
8 6 10 0.3717 -0.0015
8 6 11 0.3159 -0.0048
8 6 12 0.1972 -0.0068
8 6 13 0.0831 -0.0068
8 6 14 0.0513 -0.0040
8 6 15 0.1221 0.0009
8 6 16 0.2352 0.0061
8 6 17 0.2945 0.0089
8 6 18 0.2427 0.0083
8 7 0 -0.2808 -0.0077
8 7 1 -0.2329 -0.0046
8 7 2 -0.1026 -0.0041
8 7 3 0.0641 -0.0037
8 7 4 0.2041 -0.0007
8 7 5 0.2727 0.0044
8 7 6 0.2718 0.0088
8 7 7 0.2430 0.0103
8 7 8 0.2299 0.0090
8 7 9 0.2397 0.0066
8 7 10 0.2394 0.0044
8 7 11 0.1938 0.0019
8 7 12 0.1095 -0.0012
8 7 13 0.0414 -0.0037
8 7 14 0.0501 -0.0029
8 7 15 0.1451 0.0030
8 7 16 0.2665 0.0123
8 7 17 0.3251 0.0208
8 7 18 0.2695 0.0243
8 8 0 -0.2197 -0.0092
8 8 1 -0.2199 -0.0059
8 8 2 -0.1414 -0.0059
8 8 3 -0.0251 -0.0064
8 8 4 0.0743 -0.0045
8 8 5 0.1200 -0.0001
8 8 6 0.1140 0.0036
8 8 7 0.0902 0.0044
8 8 8 0.0834 0.0031
8 8 9 0.0982 0.0022
8 8 10 0.1069 0.0027
8 8 11 0.0795 0.0027
8 8 12 0.0207 -0.0001
8 8 13 -0.0240 -0.0054
8 8 14 -0.0028 -0.0091
8 8 15 0.0947 -0.0068
8 8 16 0.2200 0.0015
8 8 17 0.2968 0.0114
8 8 18 0.2772 0.0169
8 9 0 -0.2950 -0.0015
8 9 1 -0.2878 0.0031
8 9 2 -0.2143 0.0023
8 9 3 -0.1168 -0.0009
8 9 4 -0.0419 -0.0024
8 9 5 -0.0131 -0.0013
8 9 6 -0.0189 -0.0005
8 9 7 -0.0249 -0.0019
8 9 8 -0.0033 -0.0045
8 9 9 0.0425 -0.0047
8 9 10 0.0792 -0.0017
8 9 11 0.0731 0.0014
8 9 12 0.0228 -0.0001
8 9 13 -0.0326 -0.0076
8 9 14 -0.0416 -0.0165
8 9 15 0.0178 -0.0202
8 9 16 0.1177 -0.0158
8 9 17 0.2005 -0.0067
8 9 18 0.2223 0.0000
8 10 0 -0.5565 0.0076
8 10 1 -0.4961 0.0130
8 10 2 -0.3760 0.0113
8 10 3 -0.2488 0.0056
8 10 4 -0.1604 0.0013
8 10 5 -0.1243 0.0001
8 10 6 -0.1172 -0.0006
8 10 7 -0.0978 -0.0030
8 10 8 -0.0394 -0.0061
8 10 9 0.0484 -0.0057
8 10 10 0.1244 -0.0005
8 10 11 0.1463 0.0059
8 10 12 0.1038 0.0068
8 10 13 0.0290 -0.0011
8 10 14 -0.0261 -0.0136
8 10 15 -0.0269 -0.0224
8 10 16 0.0213 -0.0215
8 10 17 0.0814 -0.0129
8 10 18 0.1169 -0.0039
8 11 0 -0.7304 0.0125
8 11 1 -0.6313 0.0153
8 11 2 -0.4762 0.0111
8 11 3 -0.3286 0.0036
8 11 4 -0.2385 -0.0014
8 11 5 -0.2146 -0.0019
8 11 6 -0.2229 -0.0008
8 11 7 -0.2116 -0.0018
8 11 8 -0.1467 -0.0040
8 11 9 -0.0359 -0.0034
8 11 10 0.0768 0.0028
8 11 11 0.1417 0.0114
8 11 12 0.1370 0.0149
8 11 13 0.0823 0.0086
8 11 14 0.0224 -0.0047
8 11 15 -0.0054 -0.0156
8 11 16 0.0064 -0.0162
8 11 17 0.0369 -0.0064
8 11 18 0.0585 0.0062
8 12 0 -0.6083 0.0139
8 12 1 -0.5264 0.0115
8 12 2 -0.3994 0.0043
8 12 3 -0.2913 -0.0043
8 12 4 -0.2529 -0.0084
8 12 5 -0.2912 -0.0066
8 12 6 -0.3657 -0.0027
8 12 7 -0.4137 -0.0018
8 12 8 -0.3893 -0.0042
8 12 9 -0.2901 -0.0055
8 12 10 -0.1552 -0.0014
8 12 11 -0.0375 0.0067
8 12 12 0.0304 0.0118
8 12 13 0.0512 0.0079
8 12 14 0.0530 -0.0036
8 12 15 0.0634 -0.0140
8 12 16 0.0892 -0.0143
8 12 17 0.1153 -0.0025
8 12 18 0.1212 0.0139
8 13 0 -0.3537 0.0131
8 13 1 -0.3300 0.0081
8 13 2 -0.2750 0.0005
8 13 3 -0.2401 -0.0070
8 13 4 -0.2709 -0.0097
8 13 5 -0.3761 -0.0064
8 13 6 -0.5169 -0.0016
8 13 7 -0.6274 -0.0010
8 13 8 -0.6527 -0.0061
8 13 9 -0.5789 -0.0122
8 13 10 -0.4368 -0.0133
8 13 11 -0.2773 -0.0085
8 13 12 -0.1401 -0.0033
8 13 13 -0.0361 -0.0044
8 13 14 0.0469 -0.0127
8 13 15 0.1234 -0.0212
8 13 16 0.1934 -0.0209
8 13 17 0.2410 -0.0084
8 13 18 0.2479 0.0102
8 14 0 -0.2567 0.0075
8 14 1 -0.2895 0.0066
8 14 2 -0.2929 0.0038
8 14 3 -0.2991 -0.0002
8 14 4 -0.3477 -0.0017
8 14 5 -0.4541 0.0008
8 14 6 -0.5918 0.0040
8 14 7 -0.7036 0.0025
8 14 8 -0.7353 -0.0057
8 14 9 -0.6676 -0.0164
8 14 10 -0.5247 -0.0225
8 14 11 -0.3545 -0.0212
8 14 12 -0.1980 -0.0163
8 14 13 -0.0707 -0.0148
8 14 14 0.0347 -0.0197
8 14 15 0.1305 -0.0265
8 14 16 0.2166 -0.0271
8 14 17 0.2783 -0.0167
8 15 0 -0.3113 -0.0028
8 15 1 -0.3703 0.0046
8 15 2 -0.3888 0.0088
8 15 3 -0.3831 0.0083
8 15 4 -0.3894 0.0063
8 15 5 -0.4335 0.0060
8 15 6 -0.5061 0.0068
8 15 7 -0.5652 0.0046
8 15 8 -0.5633 -0.0028
8 15 9 -0.4817 -0.0130
8 15 10 -0.3424 -0.0198
8 15 11 -0.1924 -0.0194
8 15 12 -0.0731 -0.0142
8 15 13 0.0019 -0.0108
8 15 14 0.0464 -0.0137
8 15 15 0.0837 -0.0206
8 15 16 0.1266 -0.0244
8 16 0 -0.2557 -0.0115
8 16 1 -0.3042 0.0017
8 16 2 -0.3073 0.0095
8 16 3 -0.2737 0.0090
8 16 4 -0.2384 0.0036
8 16 5 -0.2345 -0.0008
8 16 6 -0.2646 -0.0014
8 16 7 -0.2955 -0.0001
8 16 8 -0.2823 -0.0006
8 16 9 -0.2042 -0.0033
8 16 10 -0.0816 -0.0052
8 16 11 0.0362 -0.0030
8 16 12 0.1035 0.0026
8 16 13 0.1051 0.0061
8 16 14 0.0614 0.0031
8 16 15 0.0100 -0.0060
8 17 2 0.0171 0.0055
8 17 3 0.0607 0.0007
8 17 4 0.0911 -0.0103
8 17 5 0.0749 -0.0189
8 17 6 0.0089 -0.0191
8 17 7 -0.0707 -0.0114
8 17 8 -0.1109 -0.0012
8 17 9 -0.0804 0.0069
8 17 10 0.0071 0.0122
8 17 11 0.1009 0.0168
8 17 12 0.1468 0.0215
8 17 13 0.1202 0.0234
8 18 7 0.0072 -0.0232
8 18 8 -0.1155 -0.0044
8 18 9 -0.1536 0.0117
9 -9 0 -0.0267 0.0816
9 -8 0 -0.1541 0.0548
9 -8 1 -0.2146 0.0357
9 -8 2 -0.2595 -0.0134
9 -8 3 -0.2546 -0.0716
9 -7 0 -0.2267 0.0278
9 -7 1 -0.2629 0.0093
9 -7 2 -0.2893 -0.0362
9 -7 3 -0.2696 -0.0879
9 -7 4 -0.1903 -0.1165
9 -7 5 -0.0749 -0.1034
9 -7 6 0.0303 -0.0540
9 -6 0 -0.1808 0.0176
9 -6 1 -0.1783 0.0069
9 -6 2 -0.1815 -0.0258
9 -6 3 -0.1560 -0.0633
9 -6 4 -0.0825 -0.0799
9 -6 5 0.0234 -0.0594
9 -6 6 0.1212 -0.0087
9 -6 7 0.1739 0.0467
9 -5 0 -0.0724 0.0170
9 -5 1 -0.0252 0.0156
9 -5 2 -0.0055 -0.0024
9 -5 3 0.0175 -0.0256
9 -5 4 0.0677 -0.0345
9 -5 5 0.1399 -0.0173
9 -5 6 0.2045 0.0189
9 -5 7 0.2311 0.0510
9 -5 8 0.2104 0.0569
9 -5 9 0.1584 0.0321
9 -4 0 0.0012 0.0117
9 -4 1 0.0819 0.0157
9 -4 2 0.1157 0.0089
9 -4 3 0.1308 -0.0036
9 -4 4 0.1539 -0.0090
9 -4 5 0.1881 0.0001
9 -4 6 0.2151 0.0171
9 -4 7 0.2135 0.0239
9 -4 8 0.1762 0.0049
9 -4 9 0.1156 -0.0384
9 -4 10 0.0557 -0.0862
9 -3 0 0.0368 -0.0006
9 -3 1 0.1181 0.0046
9 -3 2 0.1418 0.0043
9 -3 3 0.1363 -0.0006
9 -3 4 0.1292 -0.0031
9 -3 5 0.1284 0.0015
9 -3 6 0.1248 0.0079
9 -3 7 0.1060 0.0031
9 -3 8 0.0674 -0.0229
9 -3 9 0.0155 -0.0650
9 -3 10 -0.0353 -0.1034
9 -3 11 -0.0684 -0.1159
9 -2 0 0.1159 -0.0106
9 -2 1 0.1629 -0.0062
9 -2 2 0.1504 -0.0033
9 -2 3 0.1090 -0.0034
9 -2 4 0.0641 -0.0026
9 -2 5 0.0249 0.0023
9 -2 6 -0.0088 0.0084
9 -2 7 -0.0383 0.0066
9 -2 8 -0.0638 -0.0095
9 -2 9 -0.0871 -0.0348
9 -2 10 -0.1097 -0.0530
9 -2 11 -0.1269 -0.0478
9 -2 12 -0.1274 -0.0163
9 -1 0 0.2540 -0.0115
9 -1 1 0.2612 -0.0078
9 -1 2 0.2156 -0.0041
9 -1 3 0.1456 -0.0024
9 -1 4 0.0692 -0.0007
9 -1 5 -0.0063 0.0044
9 -1 6 -0.0719 0.0120
9 -1 7 -0.1126 0.0163
9 -1 8 -0.1199 0.0128
9 -1 9 -0.1035 0.0045
9 -1 10 -0.0865 0.0024
9 -1 11 -0.0848 0.0170
9 -1 12 -0.0931 0.0472
9 -1 13 -0.0906 0.0784
9 0 0 0.3466 -0.0063
9 0 1 0.3442 -0.0026
9 0 2 0.3039 0.0008
9 0 3 0.2443 0.0017
9 0 4 0.1687 0.0015
9 0 5 0.0784 0.0035
9 0 6 -0.0075 0.0084
9 0 7 -0.0547 0.0130
9 0 8 -0.0412 0.0138
9 0 9 0.0171 0.0120
9 0 10 0.0731 0.0142
9 0 11 0.0840 0.0264
9 0 12 0.0449 0.0461
9 0 13 -0.0112 0.0611
9 0 14 -0.0450 0.0577
9 1 0 0.3229 -0.0023
9 1 1 0.3427 0.0013
9 1 2 0.3447 0.0041
9 1 3 0.3317 0.0041
9 1 4 0.2886 0.0021
9 1 5 0.2089 0.0006
9 1 6 0.1203 0.0010
9 1 7 0.0766 0.0018
9 1 8 0.1138 0.0005
9 1 9 0.2115 -0.0027
9 1 10 0.2989 -0.0038
9 1 11 0.3057 0.0008
9 1 12 0.2150 0.0089
9 1 13 0.0733 0.0117
9 1 14 -0.0492 0.0001
9 1 15 -0.1106 -0.0266
9 2 0 0.2646 -0.0023
9 2 1 0.3093 0.0001
9 2 2 0.3525 0.0019
9 2 3 0.3820 0.0017
9 2 4 0.3679 -0.0002
9 2 5 0.2979 -0.0020
9 2 6 0.2072 -0.0028
9 2 7 0.1650 -0.0036
9 2 8 0.2192 -0.0060
9 2 9 0.3457 -0.0102
9 2 10 0.4540 -0.0136
9 2 11 0.4501 -0.0137
9 2 12 0.3071 -0.0117
9 2 13 0.0844 -0.0136
9 2 14 -0.1184 -0.0253
9 2 15 -0.2312 -0.0464
9 2 16 -0.2487 -0.0675
9 3 0 0.2668 -0.0021
9 3 1 0.3203 -0.0021
9 3 2 0.3794 -0.0027
9 3 3 0.4225 -0.0039
9 3 4 0.4119 -0.0052
9 3 5 0.3330 -0.0055
9 3 6 0.2264 -0.0045
9 3 7 0.1711 -0.0033
9 3 8 0.2231 -0.0033
9 3 9 0.3576 -0.0048
9 3 10 0.4727 -0.0063
9 3 11 0.4597 -0.0062
9 3 12 0.2853 -0.0051
9 3 13 0.0181 -0.0068
9 3 14 -0.2215 -0.0152
9 3 15 -0.3444 -0.0301
9 3 16 -0.3412 -0.0450
9 4 0 0.2465 0.0022
9 4 1 0.3040 0.0005
9 4 2 0.3728 -0.0028
9 4 3 0.4260 -0.0063
9 4 4 0.4212 -0.0085
9 4 5 0.3411 -0.0084
9 4 6 0.2254 -0.0062
9 4 7 0.1554 -0.0033
9 4 8 0.1913 -0.0009
9 4 9 0.3131 0.0004
9 4 10 0.4204 0.0013
9 4 11 0.4030 0.0027
9 4 12 0.2263 0.0038
9 4 13 -0.0384 0.0028
9 4 14 -0.2636 -0.0028
9 4 15 -0.3559 -0.0129
9 4 16 -0.3105 -0.0238
9 4 17 -0.1958 -0.0299
9 5 0 0.0552 0.0073
9 5 1 0.1211 0.0064
9 5 2 0.2172 0.0026
9 5 3 0.3111 -0.0020
9 5 4 0.3534 -0.0049
9 5 5 0.3175 -0.0052
9 5 6 0.2325 -0.0035
9 5 7 0.1717 -0.0013
9 5 8 0.1961 0.0004
9 5 9 0.2959 0.0015
9 5 10 0.3863 0.0021
9 5 11 0.3694 0.0024
9 5 12 0.2146 0.0018
9 5 13 -0.0104 -0.0003
9 5 14 -0.1865 -0.0044
9 5 15 -0.2299 -0.0100
9 5 16 -0.1475 -0.0157
9 5 17 -0.0188 -0.0194
9 6 0 -0.2293 0.0054
9 6 1 -0.1696 0.0073
9 6 2 -0.0482 0.0060
9 6 3 0.0987 0.0038
9 6 4 0.2129 0.0030
9 6 5 0.2532 0.0043
9 6 6 0.2294 0.0061
9 6 7 0.1988 0.0069
9 6 8 0.2185 0.0063
9 6 9 0.2924 0.0051
9 6 10 0.3603 0.0035
9 6 11 0.3465 0.0014
9 6 12 0.2283 -0.0019
9 6 13 0.0639 -0.0060
9 6 14 -0.0470 -0.0094
9 6 15 -0.0411 -0.0105
9 6 16 0.0614 -0.0092
9 6 17 0.1755 -0.0065
9 7 0 -0.3259 -0.0040
9 7 1 -0.3094 -0.0003
9 7 2 -0.2050 0.0017
9 7 3 -0.0464 0.0033
9 7 4 0.1041 0.0066
9 7 5 0.1928 0.0112
9 7 6 0.2106 0.0147
9 7 7 0.1959 0.0152
9 7 8 0.1992 0.0130
9 7 9 0.2364 0.0098
9 7 10 0.2733 0.0070
9 7 11 0.2588 0.0038
9 7 12 0.1785 -0.0011
9 7 13 0.0786 -0.0068
9 7 14 0.0338 -0.0103
9 7 15 0.0847 -0.0084
9 7 16 0.1995 -0.0009
9 7 17 0.2945 0.0086
9 7 18 0.2976 0.0153
9 8 0 -0.1510 -0.0119
9 8 1 -0.1978 -0.0084
9 8 2 -0.1492 -0.0054
9 8 3 -0.0304 -0.0021
9 8 4 0.0993 0.0031
9 8 5 0.1828 0.0094
9 8 6 0.1986 0.0137
9 8 7 0.1707 0.0137
9 8 8 0.1415 0.0104
9 8 9 0.1341 0.0070
9 8 10 0.1339 0.0051
9 8 11 0.1098 0.0034
9 8 12 0.0538 -0.0008
9 8 13 0.0002 -0.0074
9 8 14 0.0023 -0.0126
9 8 15 0.0835 -0.0114
9 8 16 0.2079 -0.0021
9 8 17 0.2989 0.0112
9 8 18 0.2947 0.0213
9 9 0 -0.0106 -0.0106
9 9 1 -0.0927 -0.0073
9 9 2 -0.0809 -0.0051
9 9 3 0.0049 -0.0035
9 9 4 0.1103 -0.0006
9 9 5 0.1795 0.0035
9 9 6 0.1877 0.0058
9 9 7 0.1502 0.0041
9 9 8 0.1027 -0.0001
9 9 9 0.0692 -0.0028
9 9 10 0.0450 -0.0018
9 9 11 0.0102 0.0004
9 9 12 -0.0410 -0.0011
9 9 13 -0.0829 -0.0082
9 9 14 -0.0751 -0.0170
9 9 15 0.0006 -0.0204
9 9 16 0.1153 -0.0144
9 9 17 0.2072 -0.0017
9 9 18 0.2243 0.0099
9 10 0 -0.2113 -0.0028
9 10 1 -0.2750 0.0019
9 10 2 -0.2372 0.0033
9 10 3 -0.1240 0.0018
9 10 4 0.0072 0.0005
9 10 5 0.1016 0.0005
9 10 6 0.1354 -0.0000
9 10 7 0.1221 -0.0032
9 10 8 0.0944 -0.0072
9 10 9 0.0747 -0.0079
9 10 10 0.0600 -0.0028
9 10 11 0.0317 0.0046
9 10 12 -0.0190 0.0070
9 10 13 -0.0741 0.0000
9 10 14 -0.0987 -0.0130
9 10 15 -0.0698 -0.0233
9 10 16 0.0013 -0.0236
9 10 17 0.0743 -0.0142
9 10 18 0.1095 -0.0027
9 11 0 -0.6024 0.0040
9 11 1 -0.6166 0.0098
9 11 2 -0.5147 0.0102
9 11 3 -0.3389 0.0058
9 11 4 -0.1571 0.0011
9 11 5 -0.0260 -0.0010
9 11 6 0.0354 -0.0019
9 11 7 0.0474 -0.0039
9 11 8 0.0476 -0.0058
9 11 9 0.0604 -0.0035
9 11 10 0.0820 0.0054
9 11 11 0.0883 0.0173
9 11 12 0.0610 0.0235
9 11 13 0.0060 0.0175
9 11 14 -0.0482 0.0014
9 11 15 -0.0731 -0.0149
9 11 16 -0.0610 -0.0213
9 11 17 -0.0285 -0.0154
9 11 18 0.0001 -0.0038
9 12 0 -0.7438 0.0085
9 12 1 -0.7180 0.0112
9 12 2 -0.5756 0.0086
9 12 3 -0.3746 0.0017
9 12 4 -0.1919 -0.0041
9 12 5 -0.0839 -0.0055
9 12 6 -0.0598 -0.0037
9 12 7 -0.0842 -0.0023
9 12 8 -0.1047 -0.0017
9 12 9 -0.0869 0.0019
9 12 10 -0.0329 0.0115
9 12 11 0.0266 0.0245
9 12 12 0.0581 0.0325
9 12 13 0.0494 0.0278
9 12 14 0.0144 0.0112
9 12 15 -0.0216 -0.0077
9 12 16 -0.0409 -0.0173
9 12 17 -0.0425 -0.0129
9 13 0 -0.5030 0.0130
9 13 1 -0.4658 0.0096
9 13 2 -0.3362 0.0029
9 13 3 -0.1760 -0.0055
9 13 4 -0.0619 -0.0108
9 13 5 -0.0448 -0.0098
9 13 6 -0.1219 -0.0050
9 13 7 -0.2411 -0.0013
9 13 8 -0.3322 -0.0008
9 13 9 -0.3468 -0.0003
9 13 10 -0.2814 0.0047
9 13 11 -0.1713 0.0139
9 13 12 -0.0640 0.0207
9 13 13 0.0083 0.0174
9 13 14 0.0405 0.0030
9 13 15 0.0464 -0.0144
9 13 16 0.0424 -0.0233
9 13 17 0.0361 -0.0176
9 14 0 -0.2251 0.0151
9 14 1 -0.2017 0.0081
9 14 2 -0.1159 0.0007
9 14 3 -0.0191 -0.0064
9 14 4 0.0216 -0.0096
9 14 5 -0.0377 -0.0069
9 14 6 -0.1889 -0.0012
9 14 7 -0.3731 0.0016
9 14 8 -0.5120 -0.0016
9 14 9 -0.5495 -0.0079
9 14 10 -0.4776 -0.0113
9 14 11 -0.3331 -0.0091
9 14 12 -0.1713 -0.0052
9 14 13 -0.0359 -0.0067
9 14 14 0.0557 -0.0164
9 14 15 0.1083 -0.0290
9 14 16 0.1341 -0.0346
9 15 0 -0.2319 0.0088
9 15 1 -0.2381 0.0053
9 15 2 -0.1932 0.0029
9 15 3 -0.1301 0.0005
9 15 4 -0.1028 -0.0000
9 15 5 -0.1519 0.0027
9 15 6 -0.2755 0.0064
9 15 7 -0.4243 0.0060
9 15 8 -0.5282 -0.0016
9 15 9 -0.5358 -0.0139
9 15 10 -0.4412 -0.0240
9 15 11 -0.2818 -0.0273
9 15 12 -0.1131 -0.0252
9 15 13 0.0220 -0.0239
9 15 14 0.1084 -0.0279
9 15 15 0.1543 -0.0351
9 16 0 -0.3894 -0.0038
9 16 1 -0.4258 0.0004
9 16 2 -0.4053 0.0056
9 16 3 -0.3437 0.0083
9 16 4 -0.2831 0.0088
9 16 5 -0.2647 0.0091
9 16 6 -0.2984 0.0091
9 16 7 -0.3529 0.0063
9 16 8 -0.3751 -0.0019
9 16 9 -0.3252 -0.0140
9 16 10 -0.2037 -0.0245
9 16 11 -0.0496 -0.0284
9 16 12 0.0847 -0.0255
9 16 13 0.1636 -0.0211
9 16 14 0.1833 -0.0207
9 17 3 -0.3161 0.0107
9 17 4 -0.2371 0.0088
9 17 5 -0.1831 0.0044
9 17 6 -0.1712 0.0010
9 17 7 -0.1812 -0.0012
9 17 8 -0.1700 -0.0043
9 17 9 -0.1043 -0.0090
9 17 10 0.0131 -0.0129
9 17 11 0.1431 -0.0126
9 17 12 0.2342 -0.0076
10 -8 0 -0.0012 0.0648
10 -7 0 -0.0821 0.0435
10 -7 1 -0.1791 0.0420
10 -7 2 -0.2725 0.0089
10 -7 3 -0.3116 -0.0440
10 -6 0 -0.1062 0.0231
10 -6 1 -0.1754 0.0215
10 -6 2 -0.2451 -0.0092
10 -6 3 -0.2639 -0.0580
10 -6 4 -0.2055 -0.0979
10 -6 5 -0.0890 -0.1041
10 -5 0 -0.0871 0.0146
10 -5 1 -0.1063 0.0172
10 -5 2 -0.1320 -0.0045
10 -5 3 -0.1205 -0.0423
10 -5 4 -0.0472 -0.0727
10 -5 5 0.0696 -0.0734
10 -5 6 0.1799 -0.0398
10 -5 7 0.2358 0.0108
10 -4 0 -0.1075 0.0119
10 -4 1 -0.0775 0.0191
10 -4 2 -0.0585 0.0083
10 -4 3 -0.0180 -0.0166
10 -4 4 0.0633 -0.0383
10 -4 5 0.1687 -0.0392
10 -4 6 0.2542 -0.0158
10 -4 7 0.2806 0.0164
10 -4 8 0.2393 0.0353
10 -4 9 0.1565 0.0287
10 -3 0 -0.1739 0.0054
10 -3 1 -0.1162 0.0145
10 -3 2 -0.0724 0.0125
10 -3 3 -0.0190 -0.0008
10 -3 4 0.0581 -0.0148
10 -3 5 0.1434 -0.0171
10 -3 6 0.2009 -0.0060
10 -3 7 0.2023 0.0063
10 -3 8 0.1476 0.0031
10 -3 9 0.0649 -0.0219
10 -3 10 -0.0070 -0.0579
10 -2 0 -0.1621 -0.0044
10 -2 1 -0.1044 0.0034
10 -2 2 -0.0663 0.0066
10 -2 3 -0.0281 0.0023
10 -2 4 0.0211 -0.0040
10 -2 5 0.0680 -0.0047
10 -2 6 0.0867 0.0009
10 -2 7 0.0622 0.0038
10 -2 8 0.0028 -0.0080
10 -2 9 -0.0648 -0.0365
10 -2 10 -0.1123 -0.0698
10 -2 11 -0.1221 -0.0885
10 -1 0 0.0198 -0.0103
10 -1 1 0.0634 -0.0051
10 -1 2 0.0772 -0.0003
10 -1 3 0.0797 0.0006
10 -1 4 0.0798 -0.0001
10 -1 5 0.0677 0.0025
10 -1 6 0.0304 0.0089
10 -1 7 -0.0301 0.0126
10 -1 8 -0.0944 0.0054
10 -1 9 -0.1403 -0.0136
10 -1 10 -0.1565 -0.0339
10 -1 11 -0.1447 -0.0403
10 -1 12 -0.1121 -0.0250
10 0 0 0.2589 -0.0091
10 0 1 0.2966 -0.0058
10 0 2 0.2960 -0.0016
10 0 3 0.2727 0.0004
10 0 4 0.2310 0.0013
10 0 5 0.1634 0.0044
10 0 6 0.0714 0.0110
10 0 7 -0.0223 0.0169
10 0 8 -0.0847 0.0165
10 0 9 -0.0981 0.0090
10 0 10 -0.0737 0.0016
10 0 11 -0.0401 0.0045
10 0 12 -0.0184 0.0216
10 0 13 -0.0097 0.0448
10 1 0 0.3439 -0.0047
10 1 1 0.3916 -0.0020
10 1 2 0.4030 0.0013
10 1 3 0.3866 0.0026
10 1 4 0.3376 0.0021
10 1 5 0.2477 0.0026
10 1 6 0.1310 0.0057
10 1 7 0.0308 0.0096
10 1 8 -0.0057 0.0108
10 1 9 0.0342 0.0085
10 1 10 0.1144 0.0072
10 1 11 0.1752 0.0127
10 1 12 0.1777 0.0263
10 1 13 0.1275 0.0404
10 1 14 0.0615 0.0436
10 2 0 0.2444 -0.0030
10 2 1 0.3036 -0.0003
10 2 2 0.3382 0.0027
10 2 3 0.3479 0.0037
10 2 4 0.3174 0.0026
10 2 5 0.2352 0.0009
10 2 6 0.1239 0.0003
10 2 7 0.0433 0.0005
10 2 8 0.0516 -0.0002
10 2 9 0.1563 -0.0021
10 2 10 0.2972 -0.0027
10 2 11 0.3852 0.0014
10 2 12 0.3638 0.0099
10 2 13 0.2460 0.0167
10 2 14 0.0965 0.0136
10 3 0 0.1470 -0.0041
10 3 1 0.2035 -0.0024
10 3 2 0.2473 -0.0004
10 3 3 0.2718 0.0006
10 3 4 0.2538 -0.0000
10 3 5 0.1789 -0.0013
10 3 6 0.0744 -0.0024
10 3 7 0.0097 -0.0032
10 3 8 0.0500 -0.0042
10 3 9 0.1980 -0.0055
10 3 10 0.3763 -0.0055
10 3 11 0.4737 -0.0025
10 3 12 0.4220 0.0024
10 3 13 0.2419 0.0050
10 3 14 0.0233 -0.0004
10 3 15 -0.1405 -0.0150
10 4 0 0.1591 -0.0032
10 4 1 0.2024 -0.0039
10 4 2 0.2416 -0.0046
10 4 3 0.2672 -0.0054
10 4 4 0.2514 -0.0063
10 4 5 0.1762 -0.0067
10 4 6 0.0688 -0.0065
10 4 7 0.0009 -0.0058
10 4 8 0.0400 -0.0049
10 4 9 0.1879 -0.0036
10 4 10 0.3612 -0.0015
10 4 11 0.4405 0.0019
10 4 12 0.3544 0.0050
10 4 13 0.1310 0.0050
10 4 14 -0.1231 -0.0013
10 4 15 -0.2977 -0.0137
10 4 16 -0.3460 -0.0277
10 5 0 0.1303 0.0014
10 5 1 0.1617 -0.0008
10 5 2 0.2042 -0.0044
10 5 3 0.2462 -0.0080
10 5 4 0.2544 -0.0105
10 5 5 0.2037 -0.0114
10 5 6 0.1129 -0.0108
10 5 7 0.0469 -0.0093
10 5 8 0.0713 -0.0071
10 5 9 0.1916 -0.0040
10 5 10 0.3319 -0.0001
10 5 11 0.3803 0.0035
10 5 12 0.2712 0.0050
10 5 13 0.0376 0.0026
10 5 14 -0.2097 -0.0045
10 5 15 -0.3589 -0.0149
10 5 16 -0.3678 -0.0250
10 6 0 -0.0880 0.0040
10 6 1 -0.0724 0.0031
10 6 2 -0.0165 -0.0003
10 6 3 0.0665 -0.0043
10 6 4 0.1357 -0.0070
10 6 5 0.1533 -0.0077
10 6 6 0.1210 -0.0073
10 6 7 0.0877 -0.0066
10 6 8 0.1122 -0.0055
10 6 9 0.2072 -0.0031
10 6 10 0.3154 0.0002
10 6 11 0.3452 0.0027
10 6 12 0.2433 0.0022
10 6 13 0.0424 -0.0026
10 6 14 -0.1562 -0.0105
10 6 15 -0.2544 -0.0184
10 6 16 -0.2231 -0.0234
10 7 0 -0.3252 -0.0003
10 7 1 -0.3479 0.0013
10 7 2 -0.2986 0.0011
10 7 3 -0.1879 0.0004
10 7 4 -0.0613 0.0010
10 7 5 0.0296 0.0030
10 7 6 0.0654 0.0047
10 7 7 0.0742 0.0045
10 7 8 0.1042 0.0034
10 7 9 0.1765 0.0030
10 7 10 0.2582 0.0042
10 7 11 0.2849 0.0051
10 7 12 0.2179 0.0028
10 7 13 0.0846 -0.0038
10 7 14 -0.0350 -0.0119
10 7 15 -0.0676 -0.0171
10 7 16 -0.0022 -0.0166
10 7 17 0.1047 -0.0110
10 8 0 -0.2727 -0.0074
10 8 1 -0.3561 -0.0053
10 8 2 -0.3533 -0.0030
10 8 3 -0.2648 0.0001
10 8 4 -0.1335 0.0051
10 8 5 -0.0188 0.0108
10 8 6 0.0428 0.0145
10 8 7 0.0591 0.0139
10 8 8 0.0672 0.0103
10 8 9 0.0956 0.0071
10 8 10 0.1355 0.0065
10 8 11 0.1508 0.0066
10 8 12 0.1173 0.0039
10 8 13 0.0543 -0.0034
10 8 14 0.0160 -0.0119
10 8 15 0.0473 -0.0160
10 8 16 0.1418 -0.0117
10 8 17 0.2412 -0.0011
10 9 0 0.0313 -0.0082
10 9 1 -0.1058 -0.0085
10 9 2 -0.1605 -0.0066
10 9 3 -0.1201 -0.0029
10 9 4 -0.0205 0.0032
10 9 5 0.0776 0.0100
10 9 6 0.1268 0.0138
10 9 7 0.1191 0.0121
10 9 8 0.0815 0.0064
10 9 9 0.0466 0.0014
10 9 10 0.0252 0.0005
10 9 11 0.0052 0.0020
10 9 12 -0.0245 0.0009
10 9 13 -0.0512 -0.0061
10 9 14 -0.0420 -0.0161
10 9 15 0.0255 -0.0219
10 9 16 0.1343 -0.0180
10 9 17 0.2305 -0.0055
10 10 0 0.1623 -0.0022
10 10 1 0.0070 -0.0039
10 10 2 -0.0642 -0.0036
10 10 3 -0.0329 -0.0022
10 10 4 0.0673 0.0010
10 10 5 0.1736 0.0050
10 10 6 0.2314 0.0066
10 10 7 0.2214 0.0032
10 10 8 0.1620 -0.0034
10 10 9 0.0864 -0.0078
10 10 10 0.0173 -0.0063
10 10 11 -0.0414 -0.0007
10 10 12 -0.0914 0.0020
10 10 13 -0.1237 -0.0037
10 10 14 -0.1177 -0.0161
10 10 15 -0.0614 -0.0268
10 10 16 0.0298 -0.0276
10 10 17 0.1136 -0.0174
10 11 0 -0.1303 0.0025
10 11 1 -0.2683 0.0025
10 11 2 -0.2995 0.0026
10 11 3 -0.2136 0.0013
10 11 4 -0.0530 0.0004
10 11 5 0.1122 0.0008
10 11 6 0.2217 0.0004
10 11 7 0.2512 -0.0029
10 11 8 0.2155 -0.0077
10 11 9 0.1480 -0.0087
10 11 10 0.0767 -0.0021
10 11 11 0.0116 0.0095
10 11 12 -0.0472 0.0176
10 11 13 -0.0954 0.0141
10 11 14 -0.1199 -0.0006
10 11 15 -0.1090 -0.0176
10 11 16 -0.0672 -0.0258
10 11 17 -0.0174 -0.0209
10 12 0 -0.5428 0.0019
10 12 1 -0.6457 0.0041
10 12 2 -0.6147 0.0042
10 12 3 -0.4583 0.0009
10 12 4 -0.2350 -0.0028
10 12 5 -0.0231 -0.0042
10 12 6 0.1172 -0.0039
10 12 7 0.1674 -0.0043
10 12 8 0.1496 -0.0048
10 12 9 0.1037 -0.0011
10 12 10 0.0607 0.0104
10 12 11 0.0292 0.0271
10 12 12 0.0013 0.0397
10 12 13 -0.0308 0.0387
10 12 14 -0.0647 0.0227
10 12 15 -0.0897 0.0007
10 12 16 -0.0982 -0.0144
10 12 17 -0.0922 -0.0152
10 13 0 -0.6053 0.0025
10 13 1 -0.6648 0.0028
10 13 2 -0.5900 0.0005
10 13 3 -0.4084 -0.0050
10 13 4 -0.1909 -0.0100
10 13 5 -0.0171 -0.0107
10 13 6 0.0628 -0.0077
10 13 7 0.0486 -0.0040
10 13 8 -0.0183 -0.0009
10 13 9 -0.0830 0.0047
10 13 10 -0.1092 0.0166
10 13 11 -0.0932 0.0334
10 13 12 -0.0574 0.0467
10 13 13 -0.0296 0.0470
10 13 14 -0.0250 0.0314
10 13 15 -0.0414 0.0076
10 13 16 -0.0667 -0.0107
10 14 0 -0.3099 0.0094
10 14 1 -0.3242 0.0041
10 14 2 -0.2350 -0.0022
10 14 3 -0.0794 -0.0096
10 14 4 0.0703 -0.0144
10 14 5 0.1420 -0.0133
10 14 6 0.1020 -0.0077
10 14 7 -0.0286 -0.0019
10 14 8 -0.1867 0.0011
10 14 9 -0.3019 0.0032
10 14 10 -0.3320 0.0089
10 14 11 -0.2785 0.0192
10 14 12 -0.1783 0.0287
10 14 13 -0.0781 0.0286
10 14 14 -0.0112 0.0152
10 14 15 0.0126 -0.0058
10 15 0 -0.0861 0.0156
10 15 1 -0.0738 0.0065
10 15 2 0.0078 -0.0012
10 15 3 0.1251 -0.0075
10 15 4 0.2149 -0.0101
10 15 5 0.2169 -0.0073
10 15 6 0.1089 -0.0009
10 15 7 -0.0772 0.0038
10 15 8 -0.2704 0.0031
10 15 9 -0.3968 -0.0020
10 15 10 -0.4151 -0.0060
10 15 11 -0.3329 -0.0053
10 15 12 -0.1950 -0.0019
10 15 13 -0.0568 -0.0025
10 15 14 0.0417 -0.0116
10 16 1 -0.1840 0.0043
10 16 2 -0.1277 0.0007
10 16 3 -0.0357 -0.0009
10 16 4 0.0438 -0.0003
10 16 5 0.0609 0.0033
10 16 6 -0.0049 0.0080
10 16 7 -0.1282 0.0096
10 16 8 -0.2495 0.0045
10 16 9 -0.3081 -0.0063
10 16 10 -0.2748 -0.0175
10 16 11 -0.1644 -0.0237
10 16 12 -0.0237 -0.0243
10 16 13 0.0965 -0.0238
10 17 4 -0.2219 0.0076
10 17 5 -0.1541 0.0095
10 17 6 -0.1327 0.0105
10 17 7 -0.1465 0.0089
10 17 8 -0.1561 0.0024
10 17 9 -0.1215 -0.0086
10 17 10 -0.0290 -0.0200
10 17 11 0.0985 -0.0268
11 -6 0 0.0502 0.0239
11 -6 1 -0.0508 0.0370
11 -6 2 -0.1791 0.0252
11 -5 0 0.0976 0.0111
11 -5 1 0.0182 0.0238
11 -5 2 -0.0944 0.0134
11 -5 3 -0.1734 -0.0209
11 -5 4 -0.1708 -0.0610
11 -5 5 -0.0896 -0.0823
11 -4 0 0.0947 0.0046
11 -4 1 0.0525 0.0186
11 -4 2 -0.0195 0.0132
11 -4 3 -0.0613 -0.0142
11 -4 4 -0.0297 -0.0488
11 -4 5 0.0680 -0.0681
11 -4 6 0.1796 -0.0586
11 -3 0 -0.0483 0.0004
11 -3 1 -0.0646 0.0154
11 -3 2 -0.0963 0.0166
11 -3 3 -0.0940 -0.0010
11 -3 4 -0.0251 -0.0274
11 -3 5 0.0951 -0.0447
11 -3 6 0.2114 -0.0414
11 -3 7 0.2671 -0.0219
11 -3 8 0.2409 -0.0023
11 -2 0 -0.2427 -0.0054
11 -2 1 -0.2552 0.0087
11 -2 2 -0.2659 0.0155
11 -2 3 -0.2351 0.0083
11 -2 4 -0.1413 -0.0080
11 -2 5 -0.0081 -0.0210
11 -2 6 0.1080 -0.0222
11 -2 7 0.1564 -0.0147
11 -2 8 0.1249 -0.0110
11 -2 9 0.0438 -0.0204
11 -1 0 -0.2658 -0.0102
11 -1 1 -0.2842 0.0007
11 -1 2 -0.2941 0.0099
11 -1 3 -0.2622 0.0105
11 -1 4 -0.1762 0.0038
11 -1 5 -0.0646 -0.0026
11 -1 6 0.0202 -0.0029
11 -1 7 0.0393 0.0000
11 -1 8 -0.0071 -0.0028
11 -1 9 -0.0837 -0.0174
11 -1 10 -0.1454 -0.0394
11 -1 11 -0.1620 -0.0556
11 0 0 -0.0391 -0.0101
11 0 1 -0.0533 -0.0036
11 0 2 -0.0656 0.0043
11 0 3 -0.0489 0.0077
11 0 4 0.0013 0.0065
11 0 5 0.0556 0.0051
11 0 6 0.0724 0.0074
11 0 7 0.0322 0.0114
11 0 8 -0.0474 0.0104
11 0 9 -0.1267 -0.0001
11 0 10 -0.1719 -0.0158
11 0 11 -0.1722 -0.0260
11 0 12 -0.1370 -0.0222
11 1 0 0.2258 -0.0057
11 1 1 0.2331 -0.0029
11 1 2 0.2321 0.0017
11 1 3 0.2415 0.0039
11 1 4 0.2579 0.0031
11 1 5 0.2525 0.0022
11 1 6 0.1987 0.0044
11 1 7 0.1014 0.0086
11 1 8 -0.0017 0.0103
11 1 9 -0.0674 0.0063
11 1 10 -0.0792 -0.0008
11 1 11 -0.0535 -0.0037
11 1 12 -0.0207 0.0029
11 2 0 0.2721 -0.0020
11 2 1 0.3055 -0.0007
11 2 2 0.3270 0.0017
11 2 3 0.3465 0.0024
11 2 4 0.3522 0.0004
11 2 5 0.3164 -0.0022
11 2 6 0.2271 -0.0028
11 2 7 0.1121 -0.0011
11 2 8 0.0273 0.0004
11 2 9 0.0159 -0.0003
11 2 10 0.0734 -0.0017
11 2 11 0.1508 0.0005
11 2 12 0.1926 0.0086
11 2 13 0.1763 0.0193
11 3 0 0.1314 -0.0020
11 3 1 0.1782 -0.0007
11 3 2 0.2150 0.0015
11 3 3 0.2456 0.0025
11 3 4 0.2525 0.0013
11 3 5 0.2100 -0.0012
11 3 6 0.1171 -0.0032
11 3 7 0.0186 -0.0039
11 3 8 -0.0178 -0.0038
11 3 9 0.0474 -0.0037
11 3 10 0.1881 -0.0026
11 3 11 0.3248 0.0017
11 3 12 0.3794 0.0096
11 3 13 0.3273 0.0176
11 3 14 0.2068 0.0199
11 4 0 0.0566 -0.0028
11 4 1 0.1017 -0.0023
11 4 2 0.1364 -0.0007
11 4 3 0.1633 0.0009
11 4 4 0.1641 0.0015
11 4 5 0.1149 0.0012
11 4 6 0.0219 0.0004
11 4 7 -0.0623 -0.0002
11 4 8 -0.0655 -0.0003
11 4 9 0.0467 0.0006
11 4 10 0.2329 0.0031
11 4 11 0.3937 0.0080
11 4 12 0.4378 0.0142
11 4 13 0.3426 0.0189
11 4 14 0.1647 0.0179
11 5 0 0.1290 -0.0006
11 5 1 0.1654 -0.0021
11 5 2 0.1917 -0.0030
11 5 3 0.2122 -0.0030
11 5 4 0.2092 -0.0024
11 5 5 0.1591 -0.0016
11 5 6 0.0672 -0.0011
11 5 7 -0.0152 -0.0009
11 5 8 -0.0190 -0.0003
11 5 9 0.0868 0.0016
11 5 10 0.2565 0.0053
11 5 11 0.3878 0.0102
11 5 12 0.3894 0.0143
11 5 13 0.2458 0.0150
11 5 14 0.0265 0.0106
11 5 15 -0.1645 0.0014
11 6 0 0.1361 0.0026
11 6 1 0.1560 0.0000
11 6 2 0.1785 -0.0031
11 6 3 0.2105 -0.0056
11 6 4 0.2333 -0.0067
11 6 5 0.2178 -0.0066
11 6 6 0.1594 -0.0065
11 6 7 0.0966 -0.0068
11 6 8 0.0889 -0.0067
11 6 9 0.1658 -0.0048
11 6 10 0.2890 -0.0007
11 6 11 0.3690 0.0041
11 6 12 0.3271 0.0065
11 6 13 0.1561 0.0041
11 6 14 -0.0704 -0.0031
11 6 15 -0.2491 -0.0127
11 7 0 -0.0635 0.0010
11 7 1 -0.0815 -0.0002
11 7 2 -0.0704 -0.0027
11 7 3 -0.0188 -0.0051
11 7 4 0.0529 -0.0061
11 7 5 0.1066 -0.0060
11 7 6 0.1201 -0.0063
11 7 7 0.1109 -0.0080
11 7 8 0.1234 -0.0100
11 7 9 0.1859 -0.0098
11 7 10 0.2758 -0.0062
11 7 11 0.3268 -0.0015
11 7 12 0.2790 0.0005
11 7 13 0.1311 -0.0032
11 7 14 -0.0516 -0.0115
11 7 15 -0.1812 -0.0201
11 7 16 -0.2075 -0.0246
11 8 0 -0.2507 -0.0048
11 8 1 -0.3299 -0.0045
11 8 2 -0.3586 -0.0046
11 8 3 -0.3155 -0.0042
11 8 4 -0.2179 -0.0022
11 8 5 -0.1107 0.0005
11 8 6 -0.0337 0.0014
11 8 7 0.0077 -0.0012
11 8 8 0.0407 -0.0057
11 8 9 0.0933 -0.0083
11 8 10 0.1612 -0.0063
11 8 11 0.2059 -0.0016
11 8 12 0.1878 0.0010
11 8 13 0.1066 -0.0024
11 8 14 0.0092 -0.0104
11 8 15 -0.0431 -0.0177
11 8 16 -0.0219 -0.0189
11 9 0 -0.1339 -0.0050
11 9 1 -0.2736 -0.0068
11 9 2 -0.3636 -0.0068
11 9 3 -0.3672 -0.0046
11 9 4 -0.2923 0.0002
11 9 5 -0.1840 0.0057
11 9 6 -0.0940 0.0082
11 9 7 -0.0466 0.0051
11 9 8 -0.0305 -0.0018
11 9 9 -0.0177 -0.0073
11 9 10 0.0057 -0.0072
11 9 11 0.0287 -0.0025
11 9 12 0.0318 0.0010
11 9 13 0.0139 -0.0016
11 9 14 0.0006 -0.0097
11 9 15 0.0236 -0.0172
11 9 16 0.0892 -0.0175
11 10 0 0.1753 0.0055
11 10 1 0.0025 -0.0011
11 10 2 -0.1326 -0.0042
11 10 3 -0.1794 -0.0037
11 10 4 -0.1357 0.0003
11 10 5 -0.0444 0.0058
11 10 6 0.0356 0.0083
11 10 7 0.0648 0.0045
11 10 8 0.0417 -0.0040
11 10 9 -0.0075 -0.0114
11 10 10 -0.0541 -0.0120
11 10 11 -0.0854 -0.0064
11 10 12 -0.1019 -0.0012
11 10 13 -0.1030 -0.0031
11 10 14 -0.0786 -0.0126
11 10 15 -0.0196 -0.0231
11 10 16 0.0654 -0.0260
11 11 0 0.2510 0.0173
11 11 1 0.0726 0.0078
11 11 2 -0.0631 0.0020
11 11 3 -0.1007 -0.0007
11 11 4 -0.0370 -0.0001
11 11 5 0.0821 0.0028
11 11 6 0.1900 0.0041
11 11 7 0.2351 0.0002
11 11 8 0.2047 -0.0077
11 11 9 0.1217 -0.0136
11 11 10 0.0232 -0.0119
11 11 11 -0.0616 -0.0030
11 11 12 -0.1190 0.0056
11 11 13 -0.1443 0.0052
11 11 14 -0.1346 -0.0063
11 11 15 -0.0909 -0.0219
11 11 16 -0.0255 -0.0308
11 12 0 -0.0586 0.0166
11 12 1 -0.2318 0.0093
11 12 2 -0.3312 0.0040
11 12 3 -0.3105 -0.0005
11 12 4 -0.1773 -0.0028
11 12 5 0.0125 -0.0024
11 12 6 0.1844 -0.0015
11 12 7 0.2803 -0.0031
11 12 8 0.2827 -0.0070
11 12 9 0.2130 -0.0081
11 12 10 0.1120 -0.0009
11 12 11 0.0157 0.0137
11 12 12 -0.0568 0.0273
11 12 13 -0.1010 0.0297
11 12 14 -0.1187 0.0171
11 12 15 -0.1130 -0.0035
11 13 0 -0.3967 0.0054
11 13 1 -0.5527 0.0018
11 13 2 -0.6042 -0.0018
11 13 3 -0.5238 -0.0066
11 13 4 -0.3368 -0.0103
11 13 5 -0.1091 -0.0106
11 13 6 0.0835 -0.0081
11 13 7 0.1890 -0.0058
11 13 8 0.1983 -0.0042
11 13 9 0.1401 0.0003
11 13 10 0.0593 0.0124
11 13 11 -0.0089 0.0314
11 13 12 -0.0509 0.0491
11 13 13 -0.0720 0.0545
11 13 14 -0.0840 0.0425
11 13 15 -0.0943 0.0190
11 14 0 -0.3827 -0.0008
11 14 1 -0.4914 -0.0042
11 14 2 -0.4953 -0.0083
11 14 3 -0.3880 -0.0139
11 14 4 -0.2096 -0.0182
11 14 5 -0.0293 -0.0180
11 14 6 0.0878 -0.0134
11 14 7 0.1094 -0.0075
11 14 8 0.0486 -0.0025
11 14 9 -0.0490 0.0037
11 14 10 -0.1315 0.0154
11 14 11 -0.1673 0.0332
11 14 12 -0.1558 0.0504
11 14 13 -0.1195 0.0569
11 14 14 -0.0866 0.0465
11 15 0 -0.1188 0.0056
11 15 1 -0.1561 -0.0014
11 15 2 -0.1158 -0.0082
11 15 3 -0.0070 -0.0149
11 15 4 0.1242 -0.0190
11 15 5 0.2145 -0.0177
11 15 6 0.2155 -0.0115
11 15 7 0.1189 -0.0045
11 15 8 -0.0389 -0.0001
11 15 9 -0.1958 0.0026
11 15 10 -0.2950 0.0077
11 15 11 -0.3105 0.0178
11 15 12 -0.2546 0.0293
11 15 13 -0.1659 0.0341
11 16 2 0.0801 -0.0037
11 16 3 0.1825 -0.0095
11 16 4 0.2805 -0.0116
11 16 5 0.3215 -0.0087
11 16 6 0.2711 -0.0021
11 16 7 0.1346 0.0038
11 16 8 -0.0428 0.0051
11 16 9 -0.1972 0.0017
11 16 10 -0.2774 -0.0021
11 16 11 -0.2670 -0.0018
12 -5 0 0.1597 0.0033
12 -5 1 0.0981 0.0220
12 -4 0 0.2872 -0.0037
12 -4 1 0.2404 0.0149
12 -4 2 0.1177 0.0217
12 -4 3 -0.0102 0.0072
12 -4 4 -0.0750 -0.0218
12 -3 0 0.2960 -0.0095
12 -3 1 0.2615 0.0088
12 -3 2 0.1564 0.0182
12 -3 3 0.0505 0.0075
12 -3 4 0.0102 -0.0192
12 -3 5 0.0518 -0.0455
12 -3 6 0.1349 -0.0552
12 -2 0 0.0956 -0.0150
12 -2 1 0.0503 0.0027
12 -2 2 -0.0415 0.0158
12 -2 3 -0.1133 0.0122
12 -2 4 -0.1067 -0.0075
12 -2 5 -0.0171 -0.0310
12 -2 6 0.1041 -0.0438
12 -2 7 0.1884 -0.0416
12 -1 0 -0.1648 -0.0184
12 -1 1 -0.2378 -0.0025
12 -1 2 -0.3283 0.0136
12 -1 3 -0.3722 0.0181
12 -1 4 -0.3218 0.0083
12 -1 5 -0.1867 -0.0078
12 -1 6 -0.0293 -0.0192
12 -1 7 0.0780 -0.0219
12 -1 8 0.0990 -0.0210
12 -1 9 0.0497 -0.0240
12 0 0 -0.2162 -0.0166
12 0 1 -0.3088 -0.0045
12 0 2 -0.4003 0.0112
12 0 3 -0.4308 0.0203
12 0 4 -0.3639 0.0188
12 0 5 -0.2213 0.0110
12 0 6 -0.0706 0.0044
12 0 7 0.0202 0.0019
12 0 8 0.0251 -0.0000
12 0 9 -0.0318 -0.0070
12 0 10 -0.1002 -0.0193
12 1 0 -0.0028 -0.0098
12 1 1 -0.0895 -0.0031
12 1 2 -0.1711 0.0080
12 1 3 -0.1954 0.0158
12 1 4 -0.1387 0.0166
12 1 5 -0.0310 0.0127
12 1 6 0.0631 0.0094
12 1 7 0.0909 0.0088
12 1 8 0.0448 0.0082
12 1 9 -0.0397 0.0031
12 1 10 -0.1147 -0.0065
12 1 11 -0.1506 -0.0153
12 2 0 0.2204 -0.0025
12 2 1 0.1583 -0.0008
12 2 2 0.0999 0.0040
12 2 3 0.0860 0.0070
12 2 4 0.1270 0.0053
12 2 5 0.1878 0.0005
12 2 6 0.2139 -0.0033
12 2 7 0.1744 -0.0041
12 2 8 0.0853 -0.0035
12 2 9 -0.0069 -0.0049
12 2 10 -0.0622 -0.0088
12 2 11 -0.0728 -0.0119
12 2 12 -0.0585 -0.0101
12 3 0 0.2100 0.0004
12 3 1 0.1733 -0.0003
12 3 2 0.1405 0.0008
12 3 3 0.1407 0.0006
12 3 4 0.1735 -0.0029
12 3 5 0.2030 -0.0088
12 3 6 0.1872 -0.0139
12 3 7 0.1182 -0.0162
12 3 8 0.0328 -0.0158
12 3 9 -0.0157 -0.0147
12 3 10 -0.0011 -0.0135
12 3 11 0.0561 -0.0109
12 3 12 0.1088 -0.0052
12 4 0 0.0548 -0.0002
12 4 1 0.0382 -0.0012
12 4 2 0.0226 -0.0007
12 4 3 0.0299 -0.0004
12 4 4 0.0549 -0.0020
12 4 5 0.0649 -0.0053
12 4 6 0.0312 -0.0088
12 4 7 -0.0364 -0.0107
12 4 8 -0.0871 -0.0105
12 4 9 -0.0671 -0.0085
12 4 10 0.0336 -0.0047
12 4 11 0.1679 0.0009
12 4 12 0.2638 0.0083
12 4 13 0.2756 0.0157
12 5 0 0.0243 0.0009
12 5 1 0.0287 -0.0006
12 5 2 0.0240 -0.0004
12 5 3 0.0297 0.0011
12 5 4 0.0417 0.0029
12 5 5 0.0334 0.0040
12 5 6 -0.0142 0.0043
12 5 7 -0.0812 0.0042
12 5 8 -0.1123 0.0048
12 5 9 -0.0570 0.0068
12 5 10 0.0829 0.0108
12 5 11 0.2441 0.0163
12 5 12 0.3418 0.0220
12 5 13 0.3278 0.0259
12 5 14 0.2212 0.0258
12 6 0 0.1547 0.0049
12 6 1 0.1786 0.0022
12 6 2 0.1842 0.0008
12 6 3 0.1921 0.0015
12 6 4 0.2011 0.0043
12 6 5 0.1889 0.0077
12 6 6 0.1394 0.0101
12 6 7 0.0713 0.0109
12 6 8 0.0356 0.0109
12 6 9 0.0772 0.0117
12 6 10 0.1905 0.0144
12 6 11 0.3121 0.0183
12 6 12 0.3603 0.0211
12 6 13 0.2938 0.0204
12 6 14 0.1410 0.0155
12 7 0 0.1995 0.0058
12 7 1 0.2194 0.0029
12 7 2 0.2263 0.0004
12 7 3 0.2439 -0.0002
12 7 4 0.2736 0.0016
12 7 5 0.2929 0.0047
12 7 6 0.2794 0.0066
12 7 7 0.2394 0.0058
12 7 8 0.2105 0.0032
12 7 9 0.2302 0.0015
12 7 10 0.2967 0.0027
12 7 11 0.3597 0.0058
12 7 12 0.3533 0.0075
12 7 13 0.2478 0.0047
12 7 14 0.0759 -0.0027
12 8 0 0.0313 -0.0008
12 8 1 0.0082 -0.0020
12 8 2 -0.0112 -0.0034
12 8 3 0.0038 -0.0036
12 8 4 0.0587 -0.0016
12 8 5 0.1288 0.0013
12 8 6 0.1805 0.0021
12 8 7 0.2010 -0.0013
12 8 8 0.2084 -0.0075
12 8 9 0.2315 -0.0123
12 8 10 0.2761 -0.0123
12 8 11 0.3122 -0.0082
12 8 12 0.2949 -0.0044
12 8 13 0.2047 -0.0054
12 8 14 0.0695 -0.0116
12 8 15 -0.0519 -0.0190
12 9 0 -0.1266 -0.0068
12 9 1 -0.2121 -0.0075
12 9 2 -0.2859 -0.0080
12 9 3 -0.3057 -0.0069
12 9 4 -0.2570 -0.0035
12 9 5 -0.1629 0.0004
12 9 6 -0.0659 0.0012
12 9 7 0.0025 -0.0040
12 9 8 0.0413 -0.0134
12 9 9 0.0706 -0.0213
12 9 10 0.1057 -0.0226
12 9 11 0.1386 -0.0169
12 9 12 0.1460 -0.0094
12 9 13 0.1148 -0.0066
12 9 14 0.0601 -0.0100
12 9 15 0.0166 -0.0155
12 10 0 -0.0260 0.0017
12 10 1 -0.1535 -0.0031
12 10 2 -0.2813 -0.0062
12 10 3 -0.3532 -0.0065
12 10 4 -0.3423 -0.0036
12 10 5 -0.2654 0.0006
12 10 6 -0.1687 0.0015
12 10 7 -0.0969 -0.0045
12 10 8 -0.0667 -0.0160
12 10 9 -0.0646 -0.0265
12 10 10 -0.0662 -0.0290
12 10 11 -0.0579 -0.0223
12 10 12 -0.0423 -0.0122
12 10 13 -0.0265 -0.0066
12 10 14 -0.0089 -0.0088
12 10 15 0.0200 -0.0146
12 11 0 0.2076 0.0243
12 11 1 0.0717 0.0129
12 11 2 -0.0793 0.0042
12 11 3 -0.1794 -0.0009
12 11 4 -0.1925 -0.0016
12 11 5 -0.1301 0.0007
12 11 6 -0.0404 0.0011
12 11 7 0.0222 -0.0048
12 11 8 0.0282 -0.0162
12 11 9 -0.0154 -0.0269
12 11 10 -0.0776 -0.0294
12 11 11 -0.1266 -0.0218
12 11 12 -0.1459 -0.0102
12 11 13 -0.1339 -0.0039
12 11 14 -0.0962 -0.0076
12 11 15 -0.0401 -0.0173
12 12 0 0.2317 0.0411
12 12 1 0.0958 0.0262
12 12 2 -0.0472 0.0137
12 12 3 -0.1302 0.0042
12 12 4 -0.1177 -0.0006
12 12 5 -0.0229 -0.0010
12 12 6 0.1010 -0.0008
12 12 7 0.1910 -0.0043
12 12 8 0.2071 -0.0123
12 12 9 0.1492 -0.0193
12 12 10 0.0502 -0.0185
12 12 11 -0.0477 -0.0080
12 12 12 -0.1138 0.0057
12 12 13 -0.1378 0.0123
12 12 14 -0.1251 0.0060
12 13 0 -0.0156 0.0353
12 13 1 -0.1625 0.0227
12 13 2 -0.2856 0.0111
12 13 3 -0.3263 0.0007
12 13 4 -0.2597 -0.0059
12 13 5 -0.1078 -0.0075
12 13 6 0.0703 -0.0058
12 13 7 0.2078 -0.0051
12 13 8 0.2608 -0.0067
12 13 9 0.2261 -0.0071
12 13 10 0.1353 -0.0005
12 13 11 0.0333 0.0145
12 13 12 -0.0454 0.0317
12 13 13 -0.0876 0.0400
12 13 14 -0.0988 0.0326
12 14 0 -0.2268 0.0146
12 14 1 -0.3729 0.0066
12 14 2 -0.4685 -0.0017
12 14 3 -0.4712 -0.0105
12 14 4 -0.3722 -0.0169
12 14 5 -0.2032 -0.0180
12 14 6 -0.0231 -0.0142
12 14 7 0.1087 -0.0091
12 14 8 0.1582 -0.0049
12 14 9 0.1291 0.0002
12 14 10 0.0551 0.0108
12 14 11 -0.0217 0.0286
12 14 12 -0.0728 0.0480
12 14 13 -0.0922 0.0584
12 15 2 -0.3210 -0.0113
12 15 3 -0.2944 -0.0189
12 15 4 -0.2005 -0.0245
12 15 5 -0.0759 -0.0247
12 15 6 0.0291 -0.0195
12 15 7 0.0743 -0.0122
12 15 8 0.0481 -0.0060
12 15 9 -0.0289 -0.0002
12 15 10 -0.1161 0.0089
12 15 11 -0.1756 0.0240
12 16 6 0.2029 -0.0151
12 16 7 0.1503 -0.0080
12 16 8 0.0393 -0.0032
13 -3 0 0.3668 -0.0145
13 -3 1 0.3822 -0.0000
13 -3 2 0.2923 0.0146
13 -2 0 0.4175 -0.0219
13 -2 1 0.4261 -0.0078
13 -2 2 0.3285 0.0087
13 -2 3 0.1876 0.0134
13 -2 4 0.0830 0.0013
13 -1 0 0.2396 -0.0289
13 -1 1 0.2102 -0.0151
13 -1 2 0.0943 0.0042
13 -1 3 -0.0389 0.0146
13 -1 4 -0.1097 0.0087
13 -1 5 -0.0854 -0.0089
13 -1 6 0.0026 -0.0268
13 0 0 -0.0088 -0.0294
13 0 1 -0.0872 -0.0166
13 0 2 -0.2250 0.0046
13 0 3 -0.3458 0.0209
13 0 4 -0.3738 0.0236
13 0 5 -0.2888 0.0139
13 0 6 -0.1381 0.0003
13 0 7 0.0002 -0.0098
13 1 0 -0.0666 -0.0209
13 1 1 -0.1767 -0.0112
13 1 2 -0.3257 0.0079
13 1 3 -0.4335 0.0255
13 1 4 -0.4323 0.0330
13 1 5 -0.3159 0.0298
13 1 6 -0.1435 0.0215
13 1 7 0.0021 0.0140
13 1 8 0.0676 0.0084
13 1 9 0.0530 0.0023
13 2 0 0.1045 -0.0080
13 2 1 -0.0131 -0.0036
13 2 2 -0.1572 0.0087
13 2 3 -0.2519 0.0209
13 2 4 -0.2421 0.0261
13 2 5 -0.1344 0.0233
13 2 6 0.0073 0.0166
13 2 7 0.1069 0.0106
13 2 8 0.1249 0.0065
13 2 9 0.0736 0.0021
13 2 10 -0.0036 -0.0041
13 3 0 0.2619 0.0012
13 3 1 0.1476 0.0003
13 3 2 0.0166 0.0044
13 3 3 -0.0656 0.0084
13 3 4 -0.0586 0.0076
13 3 5 0.0208 0.0012
13 3 6 0.1113 -0.0073
13 3 7 0.1524 -0.0138
13 3 8 0.1247 -0.0169
13 3 9 0.0548 -0.0182
13 3 10 -0.0142 -0.0193
13 3 11 -0.0561 -0.0200
13 4 0 0.2102 0.0031
13 4 1 0.1021 -0.0007
13 4 2 -0.0148 -0.0016
13 4 3 -0.0867 -0.0025
13 4 4 -0.0859 -0.0066
13 4 5 -0.0337 -0.0141
13 4 6 0.0170 -0.0228
13 4 7 0.0244 -0.0291
13 4 8 -0.0107 -0.0313
13 4 9 -0.0514 -0.0298
13 4 10 -0.0609 -0.0260
13 4 11 -0.0333 -0.0208
13 5 0 0.0654 0.0024
13 5 1 -0.0213 -0.0018
13 5 2 -0.1179 -0.0040
13 5 3 -0.1804 -0.0051
13 5 4 -0.1878 -0.0070
13 5 5 -0.1594 -0.0104
13 5 6 -0.1363 -0.0147
13 5 7 -0.1428 -0.0179
13 5 8 -0.1635 -0.0182
13 5 9 -0.1572 -0.0152
13 5 10 -0.0964 -0.0093
13 5 11 0.0050 -0.0018
13 5 12 0.0995 0.0060
13 6 0 0.0667 0.0058
13 6 1 0.0265 0.0015
13 6 2 -0.0355 -0.0009
13 6 3 -0.0823 -0.0006
13 6 4 -0.0947 0.0016
13 6 5 -0.0860 0.0042
13 6 6 -0.0860 0.0062
13 6 7 -0.1072 0.0072
13 6 8 -0.1277 0.0083
13 6 9 -0.1072 0.0108
13 6 10 -0.0255 0.0152
13 6 11 0.0925 0.0207
13 6 12 0.1898 0.0252
13 7 0 0.2098 0.0114
13 7 1 0.2201 0.0069
13 7 2 0.1975 0.0039
13 7 3 0.1744 0.0043
13 7 4 0.1705 0.0086
13 7 5 0.1781 0.0150
13 7 6 0.1733 0.0207
13 7 7 0.1456 0.0235
13 7 8 0.1140 0.0236
13 7 9 0.1134 0.0230
13 7 10 0.1606 0.0236
13 7 11 0.2322 0.0252
13 7 12 0.2768 0.0254
13 7 13 0.2532 0.0220
13 8 0 0.2565 0.0094
13 8 1 0.2807 0.0062
13 8 2 0.2738 0.0035
13 8 3 0.2673 0.0040
13 8 4 0.2832 0.0088
13 8 5 0.3161 0.0160
13 8 6 0.3418 0.0218
13 8 7 0.3417 0.0229
13 8 8 0.3225 0.0192
13 8 9 0.3092 0.0140
13 8 10 0.3180 0.0107
13 8 11 0.3359 0.0102
13 8 12 0.3271 0.0096
13 8 13 0.2632 0.0054
13 9 0 0.1052 -0.0020
13 9 1 0.0948 -0.0028
13 9 2 0.0629 -0.0036
13 9 3 0.0454 -0.0020
13 9 4 0.0691 0.0033
13 9 5 0.1317 0.0103
13 9 6 0.2050 0.0146
13 9 7 0.2581 0.0123
13 9 8 0.2807 0.0037
13 9 9 0.2850 -0.0064
13 9 10 0.2878 -0.0122
13 9 11 0.2895 -0.0119
13 9 12 0.2729 -0.0087
13 9 13 0.2212 -0.0078
13 10 0 -0.0486 -0.0080
13 10 1 -0.1053 -0.0086
13 10 2 -0.1829 -0.0090
13 10 3 -0.2378 -0.0074
13 10 4 -0.2350 -0.0027
13 10 5 -0.1706 0.0033
13 10 6 -0.0739 0.0057
13 10 7 0.0142 0.0003
13 10 8 0.0681 -0.0126
13 10 9 0.0888 -0.0266
13 10 10 0.0943 -0.0341
13 10 11 0.0991 -0.0315
13 10 12 0.1035 -0.0227
13 10 13 0.0996 -0.0148
13 11 0 -0.0110 0.0073
13 11 1 -0.0825 0.0025
13 11 2 -0.1880 -0.0021
13 11 3 -0.2773 -0.0047
13 11 4 -0.3070 -0.0037
13 11 5 -0.2655 -0.0008
13 11 6 -0.1794 -0.0006
13 11 7 -0.0944 -0.0080
13 11 8 -0.0467 -0.0229
13 11 9 -0.0430 -0.0389
13 11 10 -0.0634 -0.0469
13 11 11 -0.0802 -0.0427
13 11 12 -0.0765 -0.0300
13 11 13 -0.0517 -0.0176
13 12 0 0.1214 0.0377
13 12 1 0.0631 0.0266
13 12 2 -0.0394 0.0154
13 12 3 -0.1340 0.0059
13 12 4 -0.1735 0.0004
13 12 5 -0.1420 -0.0012
13 12 6 -0.0635 -0.0029
13 12 7 0.0137 -0.0098
13 12 8 0.0463 -0.0229
13 12 9 0.0208 -0.0369
13 12 10 -0.0424 -0.0432
13 12 11 -0.1061 -0.0372
13 12 12 -0.1393 -0.0229
13 13 0 0.1238 0.0567
13 13 1 0.0672 0.0428
13 13 2 -0.0240 0.0276
13 13 3 -0.1008 0.0130
13 13 4 -0.1192 0.0023
13 13 5 -0.0652 -0.0027
13 13 6 0.0366 -0.0044
13 13 7 0.1355 -0.0075
13 13 8 0.1831 -0.0145
13 13 9 0.1594 -0.0219
13 13 10 0.0812 -0.0230
13 13 11 -0.0117 -0.0138
13 13 12 -0.0808 0.0017
13 14 2 -0.1825 0.0221
13 14 3 -0.2416 0.0071
13 14 4 -0.2349 -0.0049
13 14 5 -0.1545 -0.0106
13 14 6 -0.0265 -0.0102
13 14 7 0.0995 -0.0079
13 14 8 0.1759 -0.0069
13 14 9 0.1802 -0.0062
13 14 10 0.1244 -0.0009
13 14 11 0.0438 0.0121
13 15 5 -0.2240 -0.0220
13 15 6 -0.1143 -0.0194
13 15 7 -0.0092 -0.0130
13 15 8 0.0549 -0.0068
14 -1 0 0.4056 -0.0271
14 -1 1 0.4649 -0.0221
14 0 0 0.2974 -0.0358
14 0 1 0.3146 -0.0303
14 0 2 0.2235 -0.0126
14 0 3 0.0774 0.0053
14 0 4 -0.0408 0.0125
14 1 0 0.1120 -0.0342
14 1 1 0.0815 -0.0284
14 1 2 -0.0432 -0.0086
14 1 3 -0.1947 0.0140
14 1 4 -0.2855 0.0281
14 1 5 -0.2686 0.0294
14 1 6 -0.1640 0.0216
14 2 0 0.0671 -0.0208
14 2 1 0.0039 -0.0166
14 2 2 -0.1399 0.0008
14 2 3 -0.2873 0.0224
14 2 4 -0.3523 0.0380
14 2 5 -0.2977 0.0425
14 2 6 -0.1559 0.0381
14 2 7 -0.0019 0.0299
14 3 0 0.1953 -0.0038
14 3 1 0.1096 -0.0038
14 3 2 -0.0436 0.0064
14 3 3 -0.1859 0.0203
14 3 4 -0.2396 0.0298
14 3 5 -0.1794 0.0308
14 3 6 -0.0459 0.0249
14 3 7 0.0861 0.0166
14 3 8 0.1574 0.0093
14 4 0 0.3044 0.0063
14 4 1 0.1933 0.0016
14 4 2 0.0297 0.0034
14 4 3 -0.1133 0.0075
14 4 4 -0.1705 0.0085
14 4 5 -0.1275 0.0035
14 4 6 -0.0269 -0.0061
14 4 7 0.0649 -0.0159
14 4 8 0.1030 -0.0225
14 4 9 0.0851 -0.0253
14 5 0 0.2519 0.0071
14 5 1 0.1217 -0.0001
14 5 2 -0.0481 -0.0037
14 5 3 -0.1932 -0.0056
14 5 4 -0.2603 -0.0091
14 5 5 -0.2415 -0.0161
14 5 6 -0.1750 -0.0256
14 5 7 -0.1136 -0.0343
14 5 8 -0.0864 -0.0390
14 5 9 -0.0855 -0.0385
14 5 10 -0.0851 -0.0337
14 6 0 0.1410 0.0066
14 6 1 0.0267 -0.0009
14 6 2 -0.1239 -0.0063
14 6 3 -0.2575 -0.0095
14 6 4 -0.3298 -0.0118
14 6 5 -0.3332 -0.0148
14 6 6 -0.2969 -0.0188
14 6 7 -0.2586 -0.0224
14 6 8 -0.2338 -0.0236
14 6 9 -0.2088 -0.0209
14 6 10 -0.1622 -0.0144
14 7 0 0.1498 0.0118
14 7 1 0.0947 0.0048
14 7 2 -0.0033 -0.0012
14 7 3 -0.1028 -0.0039
14 7 4 -0.1657 -0.0028
14 7 5 -0.1814 0.0006
14 7 6 -0.1689 0.0041
14 7 7 -0.1541 0.0065
14 7 8 -0.1444 0.0082
14 7 9 -0.1250 0.0105
14 7 10 -0.0781 0.0145
14 7 11 -0.0070 0.0195
14 8 0 0.2542 0.0176
14 8 1 0.2641 0.0116
14 8 2 0.2255 0.0056
14 8 3 0.1697 0.0036
14 8 4 0.1306 0.0072
14 8 5 0.1218 0.0151
14 8 6 0.1309 0.0237
14 8 7 0.1369 0.0293
14 8 8 0.1318 0.0308
14 8 9 0.1266 0.0297
14 8 10 0.1364 0.0285
14 8 11 0.1600 0.0280
14 9 0 0.2662 0.0126
14 9 1 0.2974 0.0089
14 9 2 0.2845 0.0048
14 9 3 0.2534 0.0042
14 9 4 0.2368 0.0096
14 9 5 0.2504 0.0197
14 9 6 0.2839 0.0298
14 9 7 0.3136 0.0347
14 9 8 0.3230 0.0327
14 9 9 0.3137 0.0261
14 9 10 0.2976 0.0197
14 9 11 0.2802 0.0158
14 10 0 0.1203 -0.0025
14 10 1 0.1249 -0.0031
14 10 2 0.0943 -0.0042
14 10 3 0.0551 -0.0026
14 10 4 0.0416 0.0041
14 10 5 0.0725 0.0144
14 10 6 0.1381 0.0233
14 10 7 0.2088 0.0250
14 10 8 0.2565 0.0177
14 10 9 0.2714 0.0053
14 10 10 0.2616 -0.0052
14 10 11 0.2399 -0.0094
14 11 0 -0.0344 -0.0094
14 11 1 -0.0587 -0.0090
14 11 2 -0.1156 -0.0093
14 11 3 -0.1766 -0.0077
14 11 4 -0.2043 -0.0024
14 11 5 -0.1760 0.0057
14 11 6 -0.0994 0.0114
14 11 7 -0.0072 0.0089
14 11 8 0.0638 -0.0034
14 11 9 0.0953 -0.0205
14 11 10 0.0931 -0.0337
14 11 11 0.0776 -0.0366
14 12 0 -0.0613 0.0074
14 12 1 -0.0795 0.0051
14 12 2 -0.1346 0.0014
14 12 3 -0.1994 -0.0017
14 12 4 -0.2361 -0.0019
14 12 5 -0.2193 0.0007
14 12 6 -0.1530 0.0019
14 12 7 -0.0693 -0.0038
14 12 8 -0.0081 -0.0185
14 12 9 0.0082 -0.0372
14 12 10 -0.0145 -0.0507
14 13 2 -0.0378 0.0226
14 13 3 -0.0835 0.0126
14 13 4 -0.1103 0.0047
14 13 5 -0.0931 0.0006
14 13 6 -0.0339 -0.0020
14 13 7 0.0380 -0.0079
14 13 8 0.0831 -0.0200
14 13 9 0.0766 -0.0350
15 2 0 0.1343 -0.0316
15 2 1 0.1617 -0.0330
15 3 0 0.1048 -0.0164
15 3 1 0.1110 -0.0183
15 3 2 0.0223 -0.0068
15 3 3 -0.1072 0.0128
15 3 4 -0.1979 0.0312
15 4 0 0.2004 0.0019
15 4 1 0.1784 -0.0028
15 4 2 0.0702 0.0026
15 4 3 -0.0656 0.0144
15 4 4 -0.1530 0.0255
15 4 5 -0.1472 0.0301
15 5 0 0.2915 0.0117
15 5 1 0.2263 0.0038
15 5 2 0.0885 0.0022
15 5 3 -0.0641 0.0050
15 5 4 -0.1638 0.0073
15 5 5 -0.1743 0.0050
15 5 6 -0.1096 -0.0023
15 6 0 0.2734 0.0119
15 6 1 0.1735 0.0026
15 6 2 0.0142 -0.0035
15 6 3 -0.1524 -0.0067
15 6 4 -0.2682 -0.0094
15 6 5 -0.3028 -0.0142
15 6 6 -0.2680 -0.0218
15 6 7 -0.2030 -0.0300
15 7 0 0.2066 0.0119
15 7 1 0.1168 0.0029
15 7 2 -0.0259 -0.0053
15 7 3 -0.1802 -0.0108
15 7 4 -0.2978 -0.0139
15 7 5 -0.3508 -0.0161
15 7 6 -0.3445 -0.0187
15 7 7 -0.3056 -0.0216
15 7 8 -0.2591 -0.0234
15 8 0 0.2015 0.0178
15 8 1 0.1689 0.0098
15 8 2 0.0838 0.0008
15 8 3 -0.0265 -0.0055
15 8 4 -0.1232 -0.0071
15 8 5 -0.1793 -0.0046
15 8 6 -0.1923 -0.0005
15 8 7 -0.1784 0.0029
15 8 8 -0.1540 0.0047
15 9 0 0.2403 0.0228
15 9 1 0.2666 0.0164
15 9 2 0.2420 0.0077
15 9 3 0.1819 0.0017
15 9 4 0.1172 0.0020
15 9 5 0.0744 0.0085
15 9 6 0.0614 0.0178
15 9 7 0.0677 0.0253
15 9 8 0.0785 0.0283
15 10 1 0.2509 0.0117
15 10 2 0.2480 0.0056
15 10 3 0.2113 0.0019
15 10 4 0.1679 0.0046
15 10 5 0.1446 0.0140
15 10 6 0.1513 0.0259
15 10 7 0.1774 0.0343
15 11 3 0.0355 -0.0048
15 11 4 -0.0050 0.0000
15 11 5 -0.0155 0.0105
15 11 6 0.0142 0.0223
0 0 0 0.0 0.0
;
_shelx_fab_checksum              57441
_olex2_submission_special_instructions 'No special instructions were received'
loop_
_space_group_symop_operation_xyz
'x, y, z'
'-x, -y, -z'
loop_
_atom_site_label
_atom_site_type_symbol
_atom_site_fract_x
_atom_site_fract_y
_atom_site_fract_z
_atom_site_U_iso_or_equiv
_atom_site_adp_type
_atom_site_occupancy
_atom_site_site_symmetry_order
_atom_site_calc_flag
_atom_site_refinement_flags_posn
_atom_site_refinement_flags_adp
_atom_site_refinement_flags_occupancy
_atom_site_disorder_assembly
_atom_site_disorder_group
Cu Cu 0.59892(3) 0.42322(2) 0.35513(2) 0.01723(11) Uani 1 1 d . . . . .
N1 N 0.45079(19) 0.42827(17) 0.43574(14) 0.0195(4) Uani 1 1 d . . . . .
N2 N 0.70751(18) 0.29832(17) 0.46636(14) 0.0187(4) Uani 1 1 d . . . . .
N3 N 0.74675(19) 0.42503(17) 0.27580(14) 0.0199(4) Uani 1 1 d . . . . .
N4 N 0.48916(19) 0.54183(17) 0.24326(14) 0.0203(4) Uani 1 1 d . . . . .
C1 C 0.3308(2) 0.5026(2) 0.41117(18) 0.0209(5) Uani 1 1 d . . . . .
C2 C 0.2543(2) 0.4869(2) 0.49385(18) 0.0240(6) Uani 1 1 d . . . . .
H2 H 0.171(3) 0.533(2) 0.4924(19) 0.019(7) Uiso 1 1 d . . . . .
C3 C 0.3270(2) 0.4009(2) 0.56579(19) 0.0226(5) Uani 1 1 d . . . . .
H3 H 0.308(3) 0.373(3) 0.629(2) 0.032(8) Uiso 1 1 d . . . . .
C4 C 0.4487(2) 0.3614(2) 0.53007(17) 0.0195(5) Uani 1 1 d . . . . .
C5 C 0.5463(2) 0.2660(2) 0.58298(17) 0.0200(5) Uani 1 1 d . . . . .
C6 C 0.6683(2) 0.2382(2) 0.55224(17) 0.0196(5) Uani 1 1 d . . . . .
C7 C 0.7734(2) 0.1457(2) 0.60796(17) 0.0219(5) Uani 1 1 d . . . . .
C8 C 0.8773(2) 0.1523(2) 0.55481(17) 0.0215(5) Uani 1 1 d . . . . .
C9 C 0.8345(2) 0.2492(2) 0.46717(17) 0.0202(5) Uani 1 1 d . . . . .
C10 C 0.9122(2) 0.2864(2) 0.39520(17) 0.0199(5) Uani 1 1 d . . . . .
C11 C 0.8695(2) 0.3690(2) 0.30555(18) 0.0207(5) Uani 1 1 d . . . . .
C12 C 0.9492(2) 0.4012(2) 0.22828(19) 0.0256(6) Uani 1 1 d . . . . .
H12 H 1.044(3) 0.374(2) 0.230(2) 0.029(8) Uiso 1 1 d . . . . .
C13 C 0.8761(2) 0.4717(2) 0.15110(19) 0.0247(6) Uani 1 1 d . . . . .
H13 H 0.901(3) 0.507(3) 0.089(2) 0.034(8) Uiso 1 1 d . . . . .
C14 C 0.7500(2) 0.4867(2) 0.18041(17) 0.0207(5) Uani 1 1 d . . . . .
C15 C 0.6472(2) 0.5553(2) 0.11964(17) 0.0212(5) Uani 1 1 d . . . . .
C16 C 0.5253(2) 0.5815(2) 0.15057(17) 0.0215(5) Uani 1 1 d . . . . .
C17 C 0.4187(2) 0.6579(2) 0.09017(18) 0.0268(6) Uani 1 1 d . . . . .
H17 H 0.418902 0.695056 0.024966 0.032 Uiso 1 1 calc R U . . .
C18 C 0.3179(2) 0.6659(2) 0.14554(18) 0.0267(6) Uani 1 1 d . . . . .
H18 H 0.236042 0.709920 0.125813 0.032 Uiso 1 1 calc R U . . .
C19 C 0.3619(2) 0.5927(2) 0.24136(18) 0.0223(5) Uani 1 1 d . . . . .
C20 C 0.2854(2) 0.5767(2) 0.31975(18) 0.0223(5) Uani 1 1 d . . . . .
C21 C 0.5127(2) 0.1882(2) 0.67471(17) 0.0220(5) Uani 1 1 d . . . . .
C22 C 0.5133(3) 0.1996(3) 0.7602(2) 0.0328(7) Uani 1 1 d . . . . .
H22 H 0.539(3) 0.252(2) 0.7619(19) 0.020(7) Uiso 1 1 d . . . . .
C23 C 0.4802(3) 0.1261(3) 0.8422(2) 0.0423(8) Uani 1 1 d . . . . .
H23 H 0.481766 0.133815 0.899397 0.051 Uiso 1 1 calc R U . . .
C24 C 0.4448(3) 0.0413(3) 0.8396(2) 0.0414(8) Uani 1 1 d . . . . .
H24 H 0.418(3) -0.009(3) 0.901(3) 0.054(10) Uiso 1 1 d . . . . .
C25 C 0.4407(3) 0.0305(3) 0.7548(2) 0.0347(7) Uani 1 1 d . . . . .
H25 H 0.414(3) -0.016(3) 0.750(2) 0.039(9) Uiso 1 1 d . . . . .
C26 C 0.4745(2) 0.1032(2) 0.6738(2) 0.0264(6) Uani 1 1 d . . . . .
H26 H 0.471(3) 0.094(3) 0.620(2) 0.038(9) Uiso 1 1 d . . . . .
C27 C 1.0496(2) 0.2350(2) 0.41314(17) 0.0219(5) Uani 1 1 d . . . . .
C28 C 1.1031(3) 0.2682(2) 0.46658(19) 0.0261(6) Uani 1 1 d . . . . .
H28 H 1.057(3) 0.318(3) 0.496(2) 0.026(7) Uiso 1 1 d . . . . .
C29 C 1.2302(3) 0.2221(3) 0.4826(2) 0.0309(6) Uani 1 1 d . . . . .
H29 H 1.257(3) 0.246(3) 0.513(2) 0.027(8) Uiso 1 1 d . . . . .
C30 C 1.3041(3) 0.1418(2) 0.4458(2) 0.0296(6) Uani 1 1 d . . . . .
H30 H 1.391(3) 0.111(3) 0.457(2) 0.034(8) Uiso 1 1 d . . . . .
C31 C 1.2516(2) 0.1072(2) 0.39261(19) 0.0269(6) Uani 1 1 d . . . . .
H31 H 1.296(3) 0.055(3) 0.367(2) 0.025(7) Uiso 1 1 d . . . . .
C32 C 1.1246(2) 0.1542(2) 0.37613(18) 0.0237(6) Uani 1 1 d . . . . .
H32 H 1.091(2) 0.130(2) 0.3411(18) 0.011(6) Uiso 1 1 d . . . . .
C33 C 0.6708(2) 0.5994(2) 0.01551(17) 0.0217(5) Uani 1 1 d . . . . .
C34 C 0.7108(3) 0.5238(3) -0.0308(2) 0.0318(6) Uani 1 1 d . . . . .
H34 H 0.719(3) 0.444(3) 0.001(3) 0.048(10) Uiso 1 1 d . . . . .
C35 C 0.7355(3) 0.5601(3) -0.1268(2) 0.0353(7) Uani 1 1 d . . . . .
H35 H 0.753(3) 0.507(3) -0.157(2) 0.039(9) Uiso 1 1 d . . . . .
C36 C 0.7175(2) 0.6740(3) -0.17766(19) 0.0302(6) Uani 1 1 d . . . . .
H36 H 0.738(3) 0.701(2) -0.250(2) 0.030(8) Uiso 1 1 d . . . . .
C37 C 0.6783(3) 0.7499(2) -0.1324(2) 0.0347(7) Uani 1 1 d . . . . .
H37 H 0.666800 0.826492 -0.166409 0.042 Uiso 1 1 calc R U . . .
C38 C 0.6556(3) 0.7134(3) -0.0365(2) 0.0331(7) Uani 1 1 d . . . . .
H38 H 0.631(3) 0.767(3) -0.006(2) 0.038(9) Uiso 1 1 d . . . . .
C39 C 0.1479(2) 0.6326(2) 0.30609(17) 0.0233(5) Uani 1 1 d . . . . .
C40 C 0.0872(3) 0.7504(2) 0.27841(19) 0.0278(6) Uani 1 1 d . . . . .
H40 H 0.133(2) 0.795(2) 0.2654(18) 0.017(7) Uiso 1 1 d . . . . .
C41 C -0.0413(3) 0.7978(3) 0.2713(2) 0.0309(6) Uani 1 1 d . . . . .
H41 H -0.078(3) 0.877(3) 0.254(2) 0.035(8) Uiso 1 1 d . . . . .
C42 C -0.1102(3) 0.7305(3) 0.2894(2) 0.0313(6) Uani 1 1 d . . . . .
H42 H -0.194(3) 0.764(3) 0.285(2) 0.040(9) Uiso 1 1 d . . . . .
C43 C -0.0499(3) 0.6119(3) 0.3149(2) 0.0315(6) Uani 1 1 d . . . . .
H43 H -0.101(3) 0.566(3) 0.321(2) 0.045(9) Uiso 1 1 d . . . . .
C44 C 0.0765(3) 0.5644(2) 0.32347(19) 0.0262(6) Uani 1 1 d . . . . .
H44 H 0.112(3) 0.492(3) 0.338(2) 0.028(8) Uiso 1 1 d . . . . .
C45 C 0.7806(3) 0.0664(2) 0.7024(2) 0.0298(6) Uani 1 1 d . . . . .
C46 C 0.8088(3) -0.0028(3) 0.7816(2) 0.0335(7) Uani 1 1 d . . . . .
C47 C 0.8472(3) -0.0843(3) 0.8759(2) 0.0368(7) Uani 1 1 d . . . . .
C48 C 0.8033(4) -0.0516(4) 0.9501(2) 0.0529(10) Uani 1 1 d . . . . .
H48 H 0.759(3) 0.012(3) 0.9373(19) 0.016(7) Uiso 1 1 d . . . . .
C50 C 0.9355(4) -0.2415(3) 1.0537(3) 0.0627(11) Uani 1 1 d . . . . .
H50 H 0.966039 -0.293671 1.113646 0.075 Uiso 1 1 calc R U . . .
C51 C 0.9728(3) -0.2709(3) 0.9801(2) 0.0459(8) Uani 1 1 d . . . . .
H51 H 1.029(4) -0.344(4) 0.983(3) 0.084(15) Uiso 1 1 d . . . . .
C52 C 0.9296(3) -0.1951(3) 0.8898(2) 0.0393(7) Uani 1 1 d . . . . .
H52 H 0.959(4) -0.221(4) 0.830(3) 0.071(12) Uiso 1 1 d . . . . .
C53 C 0.9986(3) 0.0724(2) 0.5860(2) 0.0294(6) Uani 1 1 d . . . . .
C54 C 1.0937(3) -0.0020(2) 0.6243(2) 0.0314(6) Uani 1 1 d . . . . .
C55 C 1.2000(3) -0.0906(2) 0.6789(2) 0.0283(6) Uani 1 1 d . . . . .
C56 C 1.1904(3) -0.1376(3) 0.7786(2) 0.0382(7) Uani 1 1 d . . . . .
H56 H 1.116(3) -0.116(3) 0.802(2) 0.037(9) Uiso 1 1 d . . . . .
C57 C 1.2894(3) -0.2234(3) 0.8323(2) 0.0470(9) Uani 1 1 d . . . . .
H57 H 1.281609 -0.253450 0.897554 0.056 Uiso 1 1 calc R U . . .
C58 C 1.3992(3) -0.2661(2) 0.7933(2) 0.0379(8) Uani 1 1 d . U . . .
H58 H 1.465133 -0.325294 0.831342 0.046 Uiso 1 1 calc R U . . .
C59 C 1.4120(3) -0.2217(3) 0.6979(3) 0.0434(8) Uani 1 1 d . U . . .
H59 H 1.491(4) -0.248(3) 0.665(3) 0.052(10) Uiso 1 1 d . . . . .
C60 C 1.3128(3) -0.1338(3) 0.6390(2) 0.0355(7) Uani 1 1 d . . . . .
H60 H 1.319(3) -0.104(3) 0.570(3) 0.053(10) Uiso 1 1 d . . . . .
C49 C 0.8504(5) -0.1325(4) 1.0424(3) 0.093(2) Uani 1 1 d . . . . .
H49 H 0.824182 -0.112259 1.094839 0.112 Uiso 1 1 calc R U . . .
loop_
_atom_site_aniso_label
_atom_site_aniso_U_11
_atom_site_aniso_U_22
_atom_site_aniso_U_33
_atom_site_aniso_U_23
_atom_site_aniso_U_13
_atom_site_aniso_U_12
Cu 0.01606(17) 0.01821(17) 0.01298(16) -0.00174(12) 0.00055(11) -0.00582(12)
N1 0.0194(10) 0.0192(10) 0.0161(10) -0.0029(8) 0.0004(8) -0.0067(9)
N2 0.0170(10) 0.0198(10) 0.0161(10) -0.0033(8) 0.0004(8) -0.0067(8)
N3 0.0196(11) 0.0188(10) 0.0157(10) -0.0015(8) -0.0007(8) -0.0059(9)
N4 0.0192(11) 0.0199(11) 0.0174(10) -0.0027(9) 0.0002(8) -0.0068(9)
C1 0.0192(12) 0.0200(12) 0.0206(13) -0.0055(10) 0.0023(10) -0.0068(10)
C2 0.0206(14) 0.0254(14) 0.0216(13) -0.0085(11) 0.0038(10) -0.0051(11)
C3 0.0241(13) 0.0237(13) 0.0191(13) -0.0085(11) 0.0060(10) -0.0088(11)
C4 0.0213(12) 0.0205(12) 0.0168(12) -0.0055(10) 0.0009(10) -0.0093(10)
C5 0.0224(13) 0.0215(12) 0.0158(12) -0.0057(10) 0.0004(10) -0.0092(10)
C6 0.0244(13) 0.0185(12) 0.0144(12) -0.0038(10) 0.0012(10) -0.0090(10)
C7 0.0240(13) 0.0215(13) 0.0177(12) -0.0039(10) -0.0005(10) -0.0090(11)
C8 0.0203(13) 0.0213(13) 0.0190(12) -0.0038(10) -0.0017(10) -0.0064(10)
C9 0.0209(13) 0.0214(13) 0.0173(12) -0.0054(10) -0.0012(10) -0.0079(10)
C10 0.0181(12) 0.0200(12) 0.0206(13) -0.0066(10) -0.0009(10) -0.0063(10)
C11 0.0187(12) 0.0206(12) 0.0208(13) -0.0051(10) 0.0008(10) -0.0078(10)
C12 0.0192(13) 0.0274(14) 0.0251(14) -0.0039(11) 0.0014(10) -0.0097(11)
C13 0.0234(13) 0.0251(14) 0.0197(13) -0.0022(11) 0.0038(10) -0.0099(11)
C14 0.0232(13) 0.0198(12) 0.0156(12) -0.0035(10) 0.0022(10) -0.0079(10)
C15 0.0245(13) 0.0195(12) 0.0153(12) -0.0026(10) 0.0011(10) -0.0079(10)
C16 0.0235(13) 0.0218(13) 0.0170(12) -0.0033(10) 0.0000(10) -0.0097(11)
C17 0.0262(14) 0.0319(15) 0.0152(12) -0.0013(11) -0.0007(10) -0.0105(12)
C18 0.0210(13) 0.0287(14) 0.0221(14) -0.0026(11) -0.0033(10) -0.0061(11)
C19 0.0214(13) 0.0223(13) 0.0191(13) -0.0040(10) -0.0007(10) -0.0072(10)
C20 0.0200(13) 0.0209(13) 0.0217(13) -0.0052(10) -0.0003(10) -0.0054(10)
C21 0.0181(12) 0.0221(13) 0.0181(13) -0.0032(10) 0.0017(10) -0.0042(10)
C22 0.0467(18) 0.0299(15) 0.0235(15) -0.0095(12) 0.0034(12) -0.0169(14)
C23 0.057(2) 0.0412(18) 0.0209(15) -0.0104(13) 0.0087(14) -0.0136(16)
C24 0.0395(18) 0.0295(16) 0.0347(17) 0.0023(13) 0.0117(14) -0.0096(14)
C25 0.0296(16) 0.0234(15) 0.0436(19) -0.0041(13) 0.0025(13) -0.0111(13)
C26 0.0233(14) 0.0242(14) 0.0258(15) -0.0042(12) -0.0016(11) -0.0069(11)
C27 0.0187(13) 0.0227(13) 0.0179(12) 0.0008(10) 0.0011(10) -0.0097(10)
C28 0.0253(14) 0.0247(14) 0.0240(14) -0.0049(12) -0.0033(11) -0.0075(11)
C29 0.0315(16) 0.0313(15) 0.0302(15) -0.0067(13) -0.0097(12) -0.0131(13)
C30 0.0193(14) 0.0325(15) 0.0277(15) 0.0008(12) -0.0052(11) -0.0102(12)
C31 0.0227(14) 0.0269(14) 0.0221(14) -0.0042(12) 0.0041(11) -0.0057(11)
C32 0.0233(13) 0.0259(14) 0.0193(13) -0.0029(11) -0.0012(10) -0.0112(11)
C33 0.0167(12) 0.0245(13) 0.0170(12) -0.0022(10) 0.0007(9) -0.0061(10)
C34 0.0424(17) 0.0273(15) 0.0224(14) -0.0032(12) 0.0051(12) -0.0168(13)
C35 0.0435(18) 0.0380(17) 0.0230(15) -0.0095(13) 0.0054(12) -0.0167(14)
C36 0.0220(14) 0.0397(16) 0.0191(14) -0.0016(12) 0.0006(10) -0.0105(12)
C37 0.0386(17) 0.0263(15) 0.0267(15) 0.0037(12) 0.0019(12) -0.0130(13)
C38 0.0418(17) 0.0260(15) 0.0260(15) -0.0058(12) 0.0050(12) -0.0119(13)
C39 0.0215(13) 0.0259(13) 0.0165(12) -0.0050(11) 0.0024(10) -0.0060(11)
C40 0.0302(15) 0.0254(14) 0.0255(14) -0.0077(12) -0.0026(11) -0.0086(12)
C41 0.0327(16) 0.0244(15) 0.0251(14) -0.0080(12) -0.0060(12) 0.0017(12)
C42 0.0197(14) 0.0378(16) 0.0268(15) -0.0096(13) 0.0004(11) -0.0030(12)
C43 0.0264(15) 0.0345(16) 0.0302(15) -0.0079(13) 0.0048(12) -0.0132(13)
C44 0.0272(14) 0.0194(14) 0.0251(14) -0.0045(11) 0.0008(11) -0.0051(11)
C45 0.0278(15) 0.0313(15) 0.0268(15) -0.0077(13) 0.0015(11) -0.0105(12)
C46 0.0346(16) 0.0346(16) 0.0275(16) -0.0074(13) 0.0000(12) -0.0126(13)
C47 0.0373(17) 0.0402(17) 0.0244(15) -0.0022(13) -0.0021(12) -0.0144(14)
C48 0.054(2) 0.048(2) 0.0313(18) -0.0124(16) -0.0038(15) 0.0076(19)
C50 0.073(3) 0.052(2) 0.0305(19) 0.0001(17) -0.0190(18) 0.003(2)
C51 0.0389(18) 0.0391(19) 0.0361(18) 0.0010(15) 0.0027(14) -0.0055(15)
C52 0.0455(19) 0.0363(17) 0.0324(17) -0.0060(14) 0.0023(14) -0.0184(15)
C53 0.0276(15) 0.0303(15) 0.0262(14) -0.0058(12) -0.0002(12) -0.0107(13)
C54 0.0330(16) 0.0308(15) 0.0266(15) -0.0048(12) 0.0002(12) -0.0135(13)
C55 0.0267(14) 0.0215(13) 0.0327(15) -0.0051(12) -0.0129(12) -0.0052(11)
C56 0.0352(18) 0.0362(17) 0.0358(17) -0.0031(14) -0.0006(14) -0.0153(14)
C57 0.058(2) 0.0355(17) 0.0347(18) 0.0088(14) -0.0191(16) -0.0200(16)
C58 0.0332(17) 0.0234(14) 0.050(2) 0.0028(14) -0.0216(14) -0.0124(13)
C59 0.0225(15) 0.0305(16) 0.081(3) -0.0247(18) -0.0007(16) -0.0096(13)
C60 0.0460(18) 0.0342(16) 0.0316(17) -0.0097(13) 0.0026(13) -0.0233(14)
C49 0.110(4) 0.083(3) 0.026(2) -0.017(2) -0.015(2) 0.030(3)
loop_
_atom_type_symbol
_atom_type_description
_atom_type_scat_dispersion_real
_atom_type_scat_dispersion_imag
_atom_type_scat_source
C C 0.0033 0.0016 'International Tables Vol C Tables 4.2.6.8 and 6.1.1.4'
H H 0.0000 0.0000 'International Tables Vol C Tables 4.2.6.8 and 6.1.1.4'
Cu Cu 0.3201 1.2651 'International Tables Vol C Tables 4.2.6.8 and 6.1.1.4'
N N 0.0061 0.0033 'International Tables Vol C Tables 4.2.6.8 and 6.1.1.4'
loop_
_geom_angle_atom_site_label_1
_geom_angle_atom_site_label_2
_geom_angle_atom_site_label_3
_geom_angle
_geom_angle_site_symmetry_1
_geom_angle_site_symmetry_3
_geom_angle_publ_flag
N1 Cu N2 90.03(8) . . ?
N1 Cu N4 89.69(8) . . ?
N3 Cu N1 177.07(9) . . ?
N3 Cu N2 90.41(8) . . ?
N3 Cu N4 90.01(8) . . ?
N4 Cu N2 177.29(8) . . ?
C1 N1 Cu 127.40(16) . . ?
C1 N1 C4 105.9(2) . . ?
C4 N1 Cu 126.61(16) . . ?
C6 N2 Cu 126.68(16) . . ?
C9 N2 Cu 126.23(16) . . ?
C9 N2 C6 106.8(2) . . ?
C11 N3 Cu 127.03(16) . . ?
C14 N3 Cu 127.65(17) . . ?
C14 N3 C11 105.2(2) . . ?
C16 N4 Cu 126.68(17) . . ?
C19 N4 Cu 127.39(16) . . ?
C19 N4 C16 105.7(2) . . ?
N1 C1 C2 109.6(2) . . ?
N1 C1 C20 126.2(2) . . ?
C20 C1 C2 124.1(2) . . ?
C1 C2 H2 122.5(17) . . ?
C3 C2 C1 106.9(2) . . ?
C3 C2 H2 130.6(17) . . ?
C2 C3 H3 128.7(19) . . ?
C2 C3 C4 107.9(2) . . ?
C4 C3 H3 123.3(19) . . ?
N1 C4 C3 109.5(2) . . ?
N1 C4 C5 126.4(2) . . ?
C5 C4 C3 124.0(2) . . ?
C4 C5 C6 123.3(2) . . ?
C4 C5 C21 116.3(2) . . ?
C6 C5 C21 120.3(2) . . ?
N2 C6 C5 125.1(2) . . ?
N2 C6 C7 109.9(2) . . ?
C5 C6 C7 124.9(2) . . ?
C8 C7 C6 106.7(2) . . ?
C8 C7 C45 122.5(2) . . ?
C45 C7 C6 130.5(2) . . ?
C7 C8 C9 106.6(2) . . ?
C7 C8 C53 122.7(2) . . ?
C53 C8 C9 130.6(2) . . ?
N2 C9 C8 110.0(2) . . ?
N2 C9 C10 125.8(2) . . ?
C10 C9 C8 124.3(2) . . ?
C9 C10 C11 123.7(2) . . ?
C9 C10 C27 119.0(2) . . ?
C11 C10 C27 117.3(2) . . ?
N3 C11 C10 125.6(2) . . ?
N3 C11 C12 110.1(2) . . ?
C10 C11 C12 124.1(2) . . ?
C11 C12 H12 127.4(16) . . ?
C13 C12 C11 107.2(2) . . ?
C13 C12 H12 125.4(17) . . ?
C12 C13 H13 127.8(19) . . ?
C12 C13 C14 107.1(2) . . ?
C14 C13 H13 125.1(19) . . ?
N3 C14 C13 110.3(2) . . ?
N3 C14 C15 125.8(2) . . ?
C15 C14 C13 123.9(2) . . ?
C14 C15 C33 117.5(2) . . ?
C16 C15 C14 123.4(2) . . ?
C16 C15 C33 119.1(2) . . ?
N4 C16 C15 125.6(2) . . ?
N4 C16 C17 110.0(2) . . ?
C15 C16 C17 124.4(2) . . ?
C16 C17 H17 126.3 . . ?
C18 C17 C16 107.4(2) . . ?
C18 C17 H17 126.3 . . ?
C17 C18 H18 126.6 . . ?
C17 C18 C19 106.8(2) . . ?
C19 C18 H18 126.6 . . ?
N4 C19 C18 110.0(2) . . ?
N4 C19 C20 125.6(2) . . ?
C20 C19 C18 124.4(2) . . ?
C1 C20 C39 117.3(2) . . ?
C19 C20 C1 122.9(2) . . ?
C19 C20 C39 119.6(2) . . ?
C22 C21 C5 123.0(2) . . ?
C22 C21 C26 118.1(2) . . ?
C26 C21 C5 118.9(2) . . ?
C21 C22 H22 118.9(18) . . ?
C23 C22 C21 120.4(3) . . ?
C23 C22 H22 120.6(18) . . ?
C22 C23 H23 119.8 . . ?
C24 C23 C22 120.4(3) . . ?
C24 C23 H23 119.8 . . ?
C23 C24 H24 118(2) . . ?
C25 C24 C23 120.0(3) . . ?
C25 C24 H24 122(2) . . ?
C24 C25 H25 123(2) . . ?
C26 C25 C24 119.3(3) . . ?
C26 C25 H25 118(2) . . ?
C21 C26 H26 121(2) . . ?
C25 C26 C21 121.8(3) . . ?
C25 C26 H26 117(2) . . ?
C28 C27 C10 120.2(2) . . ?
C28 C27 C32 119.2(2) . . ?
C32 C27 C10 120.6(2) . . ?
C27 C28 H28 122.6(18) . . ?
C27 C28 C29 120.6(3) . . ?
C29 C28 H28 116.7(18) . . ?
C28 C29 H29 116(2) . . ?
C30 C29 C28 120.0(3) . . ?
C30 C29 H29 124(2) . . ?
C29 C30 H30 119.8(19) . . ?
C29 C30 C31 120.0(3) . . ?
C31 C30 H30 120.1(19) . . ?
C30 C31 H31 123.5(19) . . ?
C32 C31 C30 119.8(3) . . ?
C32 C31 H31 116.7(19) . . ?
C27 C32 H32 120.9(15) . . ?
C31 C32 C27 120.4(3) . . ?
C31 C32 H32 118.7(15) . . ?
C34 C33 C15 118.9(2) . . ?
C34 C33 C38 118.2(2) . . ?
C38 C33 C15 122.8(2) . . ?
C33 C34 H34 122(2) . . ?
C33 C34 C35 121.1(3) . . ?
C35 C34 H34 117(2) . . ?
C34 C35 H35 118(2) . . ?
C36 C35 C34 119.8(3) . . ?
C36 C35 H35 122(2) . . ?
C35 C36 H36 119.8(16) . . ?
C37 C36 C35 119.6(3) . . ?
C37 C36 H36 120.5(16) . . ?
C36 C37 H37 119.7 . . ?
C36 C37 C38 120.6(3) . . ?
C38 C37 H37 119.7 . . ?
C33 C38 H38 120(2) . . ?
C37 C38 C33 120.6(3) . . ?
C37 C38 H38 119(2) . . ?
C40 C39 C20 122.5(2) . . ?
C40 C39 C44 118.3(2) . . ?
C44 C39 C20 119.2(2) . . ?
C39 C40 H40 118.8(17) . . ?
C41 C40 C39 120.3(3) . . ?
C41 C40 H40 120.8(17) . . ?
C40 C41 H41 117(2) . . ?
C42 C41 C40 120.9(3) . . ?
C42 C41 H41 122(2) . . ?
C41 C42 H42 119(2) . . ?
C41 C42 C43 119.3(3) . . ?
C43 C42 H42 122(2) . . ?
C42 C43 H43 118(2) . . ?
C44 C43 C42 120.1(3) . . ?
C44 C43 H43 122(2) . . ?
C39 C44 H44 120(2) . . ?
C43 C44 C39 121.0(3) . . ?
C43 C44 H44 119(2) . . ?
C46 C45 C7 168.2(3) . . ?
C45 C46 C47 177.5(3) . . ?
C48 C47 C46 119.1(3) . . ?
C48 C47 C52 120.9(3) . . ?
C52 C47 C46 120.0(3) . . ?
C47 C48 H48 116(2) . . ?
C47 C48 C49 117.5(4) . . ?
C49 C48 H48 126(2) . . ?
C51 C50 H50 119.8 . . ?
C51 C50 C49 120.3(3) . . ?
C49 C50 H50 119.8 . . ?
C50 C51 H51 125(3) . . ?
C50 C51 C52 121.3(3) . . ?
C52 C51 H51 114(3) . . ?
C47 C52 H52 120(2) . . ?
C51 C52 C47 119.8(3) . . ?
C51 C52 H52 121(2) . . ?
C54 C53 C8 170.7(3) . . ?
C53 C54 C55 174.0(3) . . ?
C56 C55 C54 118.8(3) . . ?
C60 C55 C54 123.2(3) . . ?
C60 C55 C56 118.0(3) . . ?
C55 C56 H56 117(2) . . ?
C57 C56 C55 120.1(3) . . ?
C57 C56 H56 122(2) . . ?
C56 C57 H57 119.1 . . ?
C58 C57 C56 121.8(3) . . ?
C58 C57 H57 119.1 . . ?
C57 C58 H58 120.2 . . ?
C57 C58 C59 119.5(3) . . ?
C59 C58 H58 120.2 . . ?
C58 C59 H59 123(2) . . ?
C58 C59 C60 121.1(3) . . ?
C60 C59 H59 116(2) . . ?
C55 C60 C59 119.4(3) . . ?
C55 C60 H60 119(2) . . ?
C59 C60 H60 122(2) . . ?
C48 C49 H49 119.9 . . ?
C50 C49 C48 120.1(4) . . ?
C50 C49 H49 119.9 . . ?
loop_
_geom_bond_atom_site_label_1
_geom_bond_atom_site_label_2
_geom_bond_distance
_geom_bond_site_symmetry_2
_geom_bond_publ_flag
Cu N1 1.983(2) . ?
Cu N2 2.022(2) . ?
Cu N3 1.978(2) . ?
Cu N4 2.013(2) . ?
N1 C1 1.376(3) . ?
N1 C4 1.381(3) . ?
N2 C6 1.378(3) . ?
N2 C9 1.374(3) . ?
N3 C11 1.385(3) . ?
N3 C14 1.380(3) . ?
N4 C16 1.383(3) . ?
N4 C19 1.379(3) . ?
C1 C2 1.445(3) . ?
C1 C20 1.399(4) . ?
C2 H2 0.93(3) . ?
C2 C3 1.341(4) . ?
C3 H3 0.93(3) . ?
C3 C4 1.432(3) . ?
C4 C5 1.394(3) . ?
C5 C6 1.395(4) . ?
C5 C21 1.505(3) . ?
C6 C7 1.445(3) . ?
C7 C8 1.381(4) . ?
C7 C45 1.420(4) . ?
C8 C9 1.447(3) . ?
C8 C53 1.421(4) . ?
C9 C10 1.395(4) . ?
C10 C11 1.399(4) . ?
C10 C27 1.501(3) . ?
C11 C12 1.440(4) . ?
C12 H12 1.03(3) . ?
C12 C13 1.348(4) . ?
C13 H13 0.95(3) . ?
C13 C14 1.441(4) . ?
C14 C15 1.397(4) . ?
C15 C16 1.393(4) . ?
C15 C33 1.502(3) . ?
C16 C17 1.437(4) . ?
C17 H17 0.9300 . ?
C17 C18 1.352(4) . ?
C18 H18 0.9300 . ?
C18 C19 1.447(4) . ?
C19 C20 1.397(4) . ?
C20 C39 1.496(3) . ?
C21 C22 1.385(4) . ?
C21 C26 1.395(4) . ?
C22 H22 0.88(3) . ?
C22 C23 1.385(4) . ?
C23 H23 0.9300 . ?
C23 C24 1.381(5) . ?
C24 H24 1.02(4) . ?
C24 C25 1.378(5) . ?
C25 H25 0.84(4) . ?
C25 C26 1.374(4) . ?
C26 H26 0.90(3) . ?
C27 C28 1.383(4) . ?
C27 C32 1.389(4) . ?
C28 H28 0.92(3) . ?
C28 C29 1.387(4) . ?
C29 H29 0.81(3) . ?
C29 C30 1.377(4) . ?
C30 H30 0.94(3) . ?
C30 C31 1.389(4) . ?
C31 H31 0.90(3) . ?
C31 C32 1.386(4) . ?
C32 H32 0.92(3) . ?
C33 C34 1.381(4) . ?
C33 C38 1.392(4) . ?
C34 H34 0.97(4) . ?
C34 C35 1.390(4) . ?
C35 H35 0.96(3) . ?
C35 C36 1.381(4) . ?
C36 H36 1.05(3) . ?
C36 C37 1.373(4) . ?
C37 H37 0.9300 . ?
C37 C38 1.382(4) . ?
C38 H38 0.96(3) . ?
C39 C40 1.392(4) . ?
C39 C44 1.401(4) . ?
C40 H40 0.91(3) . ?
C40 C41 1.390(4) . ?
C41 H41 0.93(3) . ?
C41 C42 1.365(4) . ?
C42 H42 0.91(3) . ?
C42 C43 1.403(4) . ?
C43 H43 0.98(4) . ?
C43 C44 1.368(4) . ?
C44 H44 0.85(3) . ?
C45 C46 1.205(4) . ?
C46 C47 1.439(4) . ?
C47 C48 1.355(5) . ?
C47 C52 1.395(5) . ?
C48 H48 0.79(3) . ?
C48 C49 1.434(5) . ?
C50 H50 0.9300 . ?
C50 C51 1.312(5) . ?
C50 C49 1.394(6) . ?
C51 H51 0.96(5) . ?
C51 C52 1.384(5) . ?
C52 H52 1.07(4) . ?
C53 C54 1.208(4) . ?
C54 C55 1.431(4) . ?
C55 C56 1.419(4) . ?
C55 C60 1.391(4) . ?
C56 H56 0.89(3) . ?
C56 C57 1.362(5) . ?
C57 H57 0.9300 . ?
C57 C58 1.357(5) . ?
C58 H58 0.9300 . ?
C58 C59 1.362(5) . ?
C59 H59 1.00(4) . ?
C59 C60 1.404(5) . ?
C60 H60 0.99(4) . ?
C49 H49 0.9300 . ?
loop_
_geom_torsion_atom_site_label_1
_geom_torsion_atom_site_label_2
_geom_torsion_atom_site_label_3
_geom_torsion_atom_site_label_4
_geom_torsion
_geom_torsion_site_symmetry_1
_geom_torsion_site_symmetry_2
_geom_torsion_site_symmetry_3
_geom_torsion_site_symmetry_4
_geom_torsion_publ_flag
Cu N1 C1 C2 -172.55(17) . . . . ?
Cu N1 C1 C20 11.8(4) . . . . ?
Cu N1 C4 C3 172.55(17) . . . . ?
Cu N1 C4 C5 -10.7(4) . . . . ?
Cu N2 C6 C5 -11.3(4) . . . . ?
Cu N2 C6 C7 171.94(16) . . . . ?
Cu N2 C9 C8 -171.87(16) . . . . ?
Cu N2 C9 C10 8.6(4) . . . . ?
Cu N3 C11 C10 10.5(4) . . . . ?
Cu N3 C11 C12 -174.03(17) . . . . ?
Cu N3 C14 C13 175.08(17) . . . . ?
Cu N3 C14 C15 -4.3(4) . . . . ?
Cu N4 C16 C15 -7.5(4) . . . . ?
Cu N4 C16 C17 174.65(17) . . . . ?
Cu N4 C19 C18 -175.01(17) . . . . ?
Cu N4 C19 C20 4.9(4) . . . . ?
N1 C1 C2 C3 -2.6(3) . . . . ?
N1 C1 C20 C19 -6.8(4) . . . . ?
N1 C1 C20 C39 167.9(2) . . . . ?
N1 C4 C5 C6 13.3(4) . . . . ?
N1 C4 C5 C21 -163.1(2) . . . . ?
N2 C6 C7 C8 1.1(3) . . . . ?
N2 C6 C7 C45 175.1(3) . . . . ?
N2 C9 C10 C11 -10.3(4) . . . . ?
N2 C9 C10 C27 170.4(2) . . . . ?
N3 C11 C12 C13 -3.0(3) . . . . ?
N3 C14 C15 C16 8.1(4) . . . . ?
N3 C14 C15 C33 -169.9(2) . . . . ?
N4 C16 C17 C18 0.6(3) . . . . ?
N4 C19 C20 C1 -1.9(4) . . . . ?
N4 C19 C20 C39 -176.5(2) . . . . ?
C1 N1 C4 C3 -4.3(3) . . . . ?
C1 N1 C4 C5 172.5(2) . . . . ?
C1 C2 C3 C4 -0.1(3) . . . . ?
C1 C20 C39 C40 115.6(3) . . . . ?
C1 C20 C39 C44 -63.1(3) . . . . ?
C2 C1 C20 C19 178.1(3) . . . . ?
C2 C1 C20 C39 -7.2(4) . . . . ?
C2 C3 C4 N1 2.7(3) . . . . ?
C2 C3 C4 C5 -174.2(2) . . . . ?
C3 C4 C5 C6 -170.3(2) . . . . ?
C3 C4 C5 C21 13.3(4) . . . . ?
C4 N1 C1 C2 4.2(3) . . . . ?
C4 N1 C1 C20 -171.4(2) . . . . ?
C4 C5 C6 N2 -1.6(4) . . . . ?
C4 C5 C6 C7 174.7(2) . . . . ?
C4 C5 C21 C22 -92.2(3) . . . . ?
C4 C5 C21 C26 85.2(3) . . . . ?
C5 C6 C7 C8 -175.7(2) . . . . ?
C5 C6 C7 C45 -1.7(4) . . . . ?
C5 C21 C22 C23 179.3(3) . . . . ?
C5 C21 C26 C25 -178.9(2) . . . . ?
C6 N2 C9 C8 2.0(3) . . . . ?
C6 N2 C9 C10 -177.5(2) . . . . ?
C6 C5 C21 C22 91.3(3) . . . . ?
C6 C5 C21 C26 -91.3(3) . . . . ?
C6 C7 C8 C9 0.2(3) . . . . ?
C6 C7 C8 C53 -178.1(2) . . . . ?
C6 C7 C45 C46 -157.7(14) . . . . ?
C7 C8 C9 N2 -1.4(3) . . . . ?
C7 C8 C9 C10 178.2(2) . . . . ?
C8 C7 C45 C46 15.5(17) . . . . ?
C8 C9 C10 C11 170.2(2) . . . . ?
C8 C9 C10 C27 -9.0(4) . . . . ?
C9 N2 C6 C5 174.9(2) . . . . ?
C9 N2 C6 C7 -1.9(3) . . . . ?
C9 C10 C11 N3 0.2(4) . . . . ?
C9 C10 C11 C12 -174.6(3) . . . . ?
C9 C10 C27 C28 -76.6(3) . . . . ?
C9 C10 C27 C32 103.6(3) . . . . ?
C10 C11 C12 C13 172.6(3) . . . . ?
C10 C27 C28 C29 -179.3(2) . . . . ?
C10 C27 C32 C31 179.8(2) . . . . ?
C11 N3 C14 C13 -1.8(3) . . . . ?
C11 N3 C14 C15 178.8(2) . . . . ?
C11 C10 C27 C28 104.0(3) . . . . ?
C11 C10 C27 C32 -75.7(3) . . . . ?
C11 C12 C13 C14 1.7(3) . . . . ?
C12 C13 C14 N3 0.0(3) . . . . ?
C12 C13 C14 C15 179.4(3) . . . . ?
C13 C14 C15 C16 -171.2(3) . . . . ?
C13 C14 C15 C33 10.8(4) . . . . ?
C14 N3 C11 C10 -172.5(2) . . . . ?
C14 N3 C11 C12 2.9(3) . . . . ?
C14 C15 C16 N4 -1.9(4) . . . . ?
C14 C15 C16 C17 175.7(3) . . . . ?
C14 C15 C33 C34 71.3(3) . . . . ?
C14 C15 C33 C38 -107.9(3) . . . . ?
C15 C16 C17 C18 -177.3(3) . . . . ?
C15 C33 C34 C35 -179.1(3) . . . . ?
C15 C33 C38 C37 -179.9(3) . . . . ?
C16 N4 C19 C18 -0.2(3) . . . . ?
C16 N4 C19 C20 179.8(3) . . . . ?
C16 C15 C33 C34 -106.8(3) . . . . ?
C16 C15 C33 C38 74.1(4) . . . . ?
C16 C17 C18 C19 -0.7(3) . . . . ?
C17 C18 C19 N4 0.5(3) . . . . ?
C17 C18 C19 C20 -179.4(3) . . . . ?
C18 C19 C20 C1 178.0(3) . . . . ?
C18 C19 C20 C39 3.4(4) . . . . ?
C19 N4 C16 C15 177.6(2) . . . . ?
C19 N4 C16 C17 -0.2(3) . . . . ?
C19 C20 C39 C40 -69.5(4) . . . . ?
C19 C20 C39 C44 111.8(3) . . . . ?
C20 C1 C2 C3 173.1(3) . . . . ?
C20 C39 C40 C41 -176.7(2) . . . . ?
C20 C39 C44 C43 177.8(3) . . . . ?
C21 C5 C6 N2 174.7(2) . . . . ?
C21 C5 C6 C7 -9.0(4) . . . . ?
C21 C22 C23 C24 -0.8(5) . . . . ?
C22 C21 C26 C25 -1.4(4) . . . . ?
C22 C23 C24 C25 -0.9(5) . . . . ?
C23 C24 C25 C26 1.4(5) . . . . ?
C24 C25 C26 C21 -0.2(4) . . . . ?
C26 C21 C22 C23 1.8(4) . . . . ?
C27 C10 C11 N3 179.5(2) . . . . ?
C27 C10 C11 C12 4.7(4) . . . . ?
C27 C28 C29 C30 -0.6(4) . . . . ?
C28 C27 C32 C31 0.1(4) . . . . ?
C28 C29 C30 C31 0.1(4) . . . . ?
C29 C30 C31 C32 0.4(4) . . . . ?
C30 C31 C32 C27 -0.5(4) . . . . ?
C32 C27 C28 C29 0.5(4) . . . . ?
C33 C15 C16 N4 176.1(2) . . . . ?
C33 C15 C16 C17 -6.4(4) . . . . ?
C33 C34 C35 C36 -1.3(5) . . . . ?
C34 C33 C38 C37 1.0(4) . . . . ?
C34 C35 C36 C37 1.6(5) . . . . ?
C35 C36 C37 C38 -0.6(5) . . . . ?
C36 C37 C38 C33 -0.7(5) . . . . ?
C38 C33 C34 C35 0.0(4) . . . . ?
C39 C40 C41 C42 -1.3(4) . . . . ?
C40 C39 C44 C43 -1.0(4) . . . . ?
C40 C41 C42 C43 -0.5(4) . . . . ?
C41 C42 C43 C44 1.5(4) . . . . ?
C42 C43 C44 C39 -0.8(4) . . . . ?
C44 C39 C40 C41 2.0(4) . . . . ?
C45 C7 C8 C9 -174.4(2) . . . . ?
C45 C7 C8 C53 7.3(4) . . . . ?
C46 C47 C48 C49 -175.7(4) . . . . ?
C46 C47 C52 C51 175.7(3) . . . . ?
C47 C48 C49 C50 -1.9(8) . . . . ?
C48 C47 C52 C51 -3.7(5) . . . . ?
C50 C51 C52 C47 1.5(6) . . . . ?
C51 C50 C49 C48 -0.2(9) . . . . ?
C52 C47 C48 C49 3.8(6) . . . . ?
C53 C8 C9 N2 176.7(3) . . . . ?
C53 C8 C9 C10 -3.8(4) . . . . ?
C54 C55 C56 C57 178.9(3) . . . . ?
C54 C55 C60 C59 -179.3(3) . . . . ?
C55 C56 C57 C58 0.2(5) . . . . ?
C56 C55 C60 C59 0.3(4) . . . . ?
C56 C57 C58 C59 0.8(5) . . . . ?
C57 C58 C59 C60 -1.2(5) . . . . ?
C58 C59 C60 C55 0.6(5) . . . . ?
C60 C55 C56 C57 -0.7(5) . . . . ?
C49 C50 C51 C52 0.3(7) . . . . ?
loop_
_smtbx_masks_void_nr
_smtbx_masks_void_average_x
_smtbx_masks_void_average_y
_smtbx_masks_void_average_z
_smtbx_masks_void_volume
_smtbx_masks_void_count_electrons
_smtbx_masks_void_content
1 0.000 0.000 0.000 53.7 4.6 '1 methanol'
