#------------------------------------------------------------------------------
#$Date: 2016-03-26 13:42:56 +0200 (Sat, 26 Mar 2016) $
#$Revision: 180233 $
#$URL: svn://www.crystallography.net/cod/cif/7/11/19/7111976.cif $
#------------------------------------------------------------------------------
#
# This file is available in the Crystallography Open Database (COD),
# http://www.crystallography.net/
#
# All data on this site have been placed in the public domain by the
# contributors.
#
data_7111976
loop_
_publ_author_name
'Xi Chen'
'Shu-Qi Wu'
'Ai-Li Cui'
'Hui-Zhong Kou'
_publ_section_title
;
 A cyano-bridged single-chain magnet featuring alternate high- and
 low-spin manganese(III) porphyrins
;
_journal_name_full               Chem.Commun.
_journal_page_first              2120
_journal_paper_doi               10.1039/c3cc48117d
_journal_volume                  50
_journal_year                    2014
_chemical_formula_sum            'C45 H28 Mn N5'
_chemical_formula_weight         693.66
_chemical_name_systematic
;
 ?
;
_space_group_crystal_system      tetragonal
_space_group_IT_number           88
_space_group_name_Hall           '-I 4ad'
_space_group_name_H-M_alt        'I 41/a'
_symmetry_space_group_name_Hall  '-I 4ad'
_symmetry_space_group_name_H-M   'I 41/a :2'
_atom_sites_solution_hydrogens   geom
_audit_creation_method           SHELXL-2013
_cell_angle_alpha                90
_cell_angle_beta                 90
_cell_angle_gamma                90
_cell_formula_units_Z            4
_cell_length_a                   25.762(4)
_cell_length_b                   25.762(4)
_cell_length_c                   5.3833(11)
_cell_measurement_temperature    293(2)
_cell_measurement_theta_max      27.47
_cell_measurement_theta_min      3.06
_cell_volume                     3572.8(11)
_computing_cell_refinement       'crystalstructure 3.6.0 (Rigaku, 2004)'
_computing_data_collection       'crystalstructure 3.6.0 (Rigaku, 2004)'
_computing_data_reduction        'SHELXL-97 (Sheldrick, 1997)'
_computing_molecular_graphics    'XP (Sheldrick, 1998)'
_computing_publication_material  'XP (Sheldrick, 1998)'
_computing_structure_refinement  'SHELXL-2013 (Sheldrick, 2013)'
_computing_structure_solution    'SHELXS-97 (Sheldrick, 1990)'
_diffrn_ambient_temperature      293(2)
_diffrn_detector_area_resol_mean 0.77
_diffrn_measured_fraction_theta_full 0.998
_diffrn_measured_fraction_theta_max 1.000
_diffrn_measurement_device_type  'Rigaku R-AXIS RAPID IP'
_diffrn_measurement_method       '\w scans'
_diffrn_radiation_type           MoK\a
_diffrn_radiation_wavelength     0.71073
_diffrn_reflns_av_R_equivalents  0.0807
_diffrn_reflns_av_unetI/netI     0.0375
_diffrn_reflns_Laue_measured_fraction_full 0.998
_diffrn_reflns_Laue_measured_fraction_max 1.000
_diffrn_reflns_limit_h_max       30
_diffrn_reflns_limit_h_min       -33
_diffrn_reflns_limit_k_max       33
_diffrn_reflns_limit_k_min       -33
_diffrn_reflns_limit_l_max       6
_diffrn_reflns_limit_l_min       -6
_diffrn_reflns_number            15906
_diffrn_reflns_point_group_measured_fraction_full 0.998
_diffrn_reflns_point_group_measured_fraction_max 1.000
_diffrn_reflns_theta_full        25.242
_diffrn_reflns_theta_max         27.460
_diffrn_reflns_theta_min         3.163
_diffrn_source                   'fine-focus sealed tube'
_exptl_absorpt_coefficient_mu    0.409
_exptl_absorpt_correction_T_max  1.000
_exptl_absorpt_correction_T_min  0.952
_exptl_absorpt_correction_type   empirical
_exptl_crystal_colour            black
_exptl_crystal_density_diffrn    1.290
_exptl_crystal_description       block
_exptl_crystal_F_000             1432
_exptl_crystal_size_max          0.2
_exptl_crystal_size_mid          0.1
_exptl_crystal_size_min          0.1
_refine_diff_density_max         0.266
_refine_diff_density_min         -0.537
_refine_diff_density_rms         0.051
_refine_ls_extinction_method     none
_refine_ls_goodness_of_fit_ref   1.074
_refine_ls_hydrogen_treatment    constr
_refine_ls_matrix_type           full
_refine_ls_number_parameters     116
_refine_ls_number_reflns         2034
_refine_ls_number_restraints     0
_refine_ls_restrained_S_all      1.074
_refine_ls_R_factor_all          0.0634
_refine_ls_R_factor_gt           0.0451
_refine_ls_shift/su_max          0.000
_refine_ls_shift/su_mean         0.000
_refine_ls_structure_factor_coef Fsqd
_refine_ls_weighting_details
;
 w=1/[\s^2^(Fo^2^)+(0.0352P)^2^+4.9271P]
 where P=(Fo^2^+2Fc^2^)/3
;
_refine_ls_weighting_scheme      calc
_refine_ls_wR_factor_gt          0.0958
_refine_ls_wR_factor_ref         0.1082
_reflns_Friedel_coverage         0.000
_reflns_number_gt                1580
_reflns_number_total             2034
_reflns_threshold_expression     'I > 2\s(I)'
_cod_data_source_file            c3cc48117d.txt
_cod_data_source_block           I41A
_cod_original_cell_volume        3572.8(12)
_cod_database_code               7111976
#BEGIN Tags that were not found in dictionaries:
_shelx_space_group_comment
;
The symmetry employed for this shelxl refinement is uniquely defined
by the following loop, which should always be used as a source of
symmetry information in preference to the above space-group names.
They are only intended as comments.
;
_shelxl_version_number           2013-2
_shelx_res_file
;
TITL I41A in I4(1)/a
CELL 0.71073  25.7622  25.7622   5.3833  90.000  90.000  90.000
ZERR    2.00   0.0036   0.0036   0.0011   0.000   0.000   0.000
LATT  2
SYMM 0.5-X, -Y, 0.5+Z
SYMM 0.75-Y, 0.25+X, 0.25+Z
SYMM 0.75+Y, 0.75-X, 0.75+Z
SFAC C H N MN
UNIT 180 112 20 4
acta
bond $h
Htab
L.S. 9
BOND
FMAP 2
PLAN 20
exyz c1 n1
eadp c1 n1
WGHT    0.035200    4.927100
FVAR       0.12644
MN1   4    0.000000    0.250000    0.625000    10.25000    0.02761    0.02761 =
         0.02372    0.00000    0.00000    0.00000
N2    3   -0.018612    0.174530    0.621981    11.00000    0.02830    0.02847 =
         0.03316    0.00031   -0.00230    0.00037
N1    3    0.000000    0.250000    1.020852    10.25000    0.04088    0.03765 =
         0.04107    0.00000    0.00000   -0.00045
C1    1    0.000000    0.250000    1.020852    10.25000    0.04088    0.03765 =
         0.04107    0.00000    0.00000   -0.00045
C2    1   -0.066306    0.153813    0.561728    11.00000    0.03294    0.03008 =
         0.03967   -0.00321   -0.00241   -0.00473
C3    1   -0.061260    0.098637    0.531365    11.00000    0.03614    0.03270 =
         0.06569   -0.00946   -0.00330   -0.00515
AFIX  43
H3A   2   -0.087355    0.075798    0.483366    11.00000   -1.20000
AFIX   0
C4    1   -0.011699    0.086067    0.585310    11.00000    0.04087    0.02829 =
         0.06964   -0.00490   -0.00119    0.00007
AFIX  43
H4A   2    0.002391    0.052832    0.586340    11.00000   -1.20000
AFIX   0
C5    1    0.015364    0.133510    0.640957    11.00000    0.03349    0.02734 =
         0.03953   -0.00108   -0.00197    0.00224
C6    1    0.068389    0.137210    0.692932    11.00000    0.03341    0.03101 =
         0.03962    0.00044   -0.00011    0.00424
C7    1    0.097183    0.087446    0.737588    11.00000    0.03650    0.02989 =
         0.04976   -0.00094   -0.00728    0.00172
C8    1    0.135131    0.070871    0.574078    11.00000    0.04239    0.03855 =
         0.05876   -0.00034   -0.00200    0.00381
AFIX  43
H8A   2    0.143554    0.091377    0.437733    11.00000   -1.20000
AFIX   0
C9    1    0.160877    0.024085    0.610181    11.00000    0.04636    0.03939 =
         0.07881   -0.01117   -0.00586    0.00884
AFIX  43
H9A   2    0.186236    0.013541    0.498062    11.00000   -1.20000
AFIX   0
C10   1    0.149131   -0.006389    0.809041    11.00000    0.06097    0.03409 =
         0.08631   -0.00315   -0.02516    0.01199
AFIX  43
H10A  2    0.166508   -0.037615    0.833509    11.00000   -1.20000
AFIX   0
C11   1    0.111466    0.009275    0.973244    11.00000    0.08195    0.04320 =
         0.07099    0.01877   -0.01237    0.00405
AFIX  43
H11A  2    0.103249   -0.011615    1.108538    11.00000   -1.20000
AFIX   0
C12   1    0.085365    0.056269    0.939133    11.00000    0.06191    0.04337 =
         0.05639    0.00975    0.00272    0.00592
AFIX  43
H12A  2    0.060044    0.066604    1.051893    11.00000   -1.20000

AFIX   0
HKLF 4

REM  I41A in I4(1)/a
REM R1 =  0.0451 for    1580 Fo > 4sig(Fo)  and  0.0634 for all    2034 data
REM    116 parameters refined using      0 restraints

END

WGHT      0.0353      4.2854

REM Instructions for potential hydrogen bonds

REM No hydrogen bonds found for HTAB generation

REM Highest difference peak  0.266,  deepest hole -0.537,  1-sigma level  0.051
Q1    1   0.0000  0.2500  0.8817  10.50000  0.05    0.27
Q2    1  -0.0104  0.1990  0.7428  11.00000  0.05    0.26
Q3    1  -0.0063  0.2002  0.5275  11.00000  0.05    0.26
Q4    1   0.0287  0.2296  0.4437  11.00000  0.05    0.24
Q5    1   0.0807  0.1091  0.6813  11.00000  0.05    0.22
Q6    1  -0.0225  0.2161  0.6272  11.00000  0.05    0.22
Q7    1   0.0338  0.2404  0.6294  11.00000  0.05    0.21
Q8    1  -0.0390  0.2115  0.6431  11.00000  0.05    0.19
Q9    1  -0.0095  0.1381  1.1330  11.00000  0.05    0.18
Q10   1   0.0443  0.1313  0.6970  11.00000  0.05    0.18
Q11   1  -0.0163  0.2711  0.8359  11.00000  0.05    0.18
Q12   1   0.1652  0.0517  0.6302  11.00000  0.05    0.17
Q13   1  -0.0173  0.2659  1.0657  11.00000  0.05    0.16
Q14   1   0.0518  0.2486  0.8920  11.00000  0.05    0.16
Q15   1  -0.0695  0.2286  1.0343  11.00000  0.05    0.15
Q16   1   0.0719 -0.0055  1.1175  11.00000  0.05    0.15
Q17   1  -0.0297  0.1596  0.6273  11.00000  0.05    0.15
Q18   1   0.0781  0.1583  0.7585  11.00000  0.05    0.15
Q19   1   0.0691  0.1532  0.6157  11.00000  0.05    0.15
Q20   1  -0.0500  0.1971  0.8251  11.00000  0.05    0.14
;
_shelx_res_checksum              17813
_shelx_hkl_file
;
   3  -3   0    0.29    0.25
   3  -3   0   -0.09    0.12
  -3   3   0    0.20    0.12
  -3   3   0   -0.07    0.16
   4  -4   0  212.18    5.52
   4  -4   0  237.66    6.03
  -4   4   0  225.74    6.28
  -4   4   0  215.34    5.30
   5  -5   0   -0.34    0.20
   5  -5   0    0.10    0.29
  -5   5   0    0.16    0.19
  -5   5   0    0.12    0.29
   6  -6   0    0.39    0.34
   6  -6   0    0.41    0.25
  -6   6   0    0.11    0.34
  -6   6   0    0.50    0.24
   7  -7   0   -0.09    0.38
   7  -7   0   -0.09    0.31
  -7   7   0    0.09    0.50
  -7   7   0    0.48    0.24
   8  -8   0   26.80    0.92
   8  -8   0   24.29    1.03
  -8   8   0   26.47    1.06
  -8   8   0   25.67    0.91
   9  -9   0   -0.24    0.35
   9  -9   0   -0.40    0.27
  -9   9   0   -0.15    0.35
  -9   9   0    0.12    0.28
  10 -10   0   77.85    3.12
 -10  10   0   80.35    2.79
 -10  10   0   77.77    2.53
  11 -11   0   -0.27    0.42
 -11  11   0   -0.22    0.69
 -11  11   0    0.77    0.34
  12 -12   0   38.04    1.74
 -12  12   0   43.62    1.81
 -12  12   0   44.45    1.69
  13 -13   0   -1.10    0.85
 -13  13   0   -0.11    0.54
 -13  13   0   -0.39    0.64
  14 -14   0    1.51    0.63
 -14  14   0    0.44    0.50
 -14  14   0    1.95    0.99
  15 -15   0   -0.74    0.59
 -15  15   0   -1.16    0.61
 -15  15   0    0.43    0.48
 -16  16   0    9.03    1.47
 -16  16   0   11.22    1.16
 -17  17   0    0.52    0.89
 -17  17   0   -0.33    0.51
 -18  18   0   48.55    2.49
 -18  18   0   49.98    3.12
 -19  19   0    0.82    0.73
 -19  19   0    0.60    0.70
 -20  20   0   35.12    2.11
 -20  20   0   29.04    2.90
 -21  21   0   -0.37    0.68
 -21  21   0   -0.20    1.10
 -21  21   0   -0.38    0.72
 -22  22   0   25.57    1.84
 -22  22   0   22.64    1.95
 -22  22   0   21.34    1.95
 -23  23   0    1.15    0.94
 -23  23   0    1.62    1.46
 -23  23   0    0.83    1.30
 -22  24   0   23.84    1.81
 -22  24   0   19.49    2.71
 -21  23   0    0.76    0.78
 -21  23   0    0.36    0.83
 -20  22   0   12.85    1.51
 -20  22   0   12.01    2.10
 -19  21   0   -1.55    0.80
 -19  21   0   -0.16    0.72
 -18  20   0   59.84    3.97
 -18  20   0   59.06    2.86
 -17  19   0   -0.25    0.64
 -17  19   0   -0.16    0.87
  17 -19   0   -0.31    0.63
 -16  18   0   -0.09    0.69
 -16  18   0    1.49    0.57
  16 -18   0    0.64    0.68
 -15  17   0    0.64    0.94
 -15  17   0    0.09    0.48
  15 -17   0    0.21    0.91
 -14  16   0    0.03    0.75
 -14  16   0    0.13    0.65
  14 -16   0    0.95    0.62
 -13  15   0    0.27    0.38
 -13  15   0    0.11    0.52
  13 -15   0   -0.36    0.53
 -12  14   0   41.24    1.90
 -12  14   0   42.42    1.68
  12 -14   0   32.17    1.40
  12 -14   0   40.95    2.63
 -11  13   0   -1.13    0.81
 -11  13   0    1.34    0.59
  11 -13   0    0.56    0.36
  11 -13   0   -0.27    0.53
 -10  12   0  202.51    6.77
 -10  12   0  207.78    6.63
  10 -12   0  189.44    6.35
  10 -12   0  211.16    6.63
  -9  11   0    0.18    0.37
  -9  11   0   -0.07    0.28
   9 -11   0   -0.87    0.62
   9 -11   0   -0.04    0.26
  -8  10   0   12.41    0.62
  -8  10   0   11.31    0.81
   8 -10   0   10.94    0.82
   8 -10   0    9.89    0.82
  -7   9   0    0.28    0.34
  -7   9   0    0.41    0.23
   7  -9   0   -0.14    0.22
   7  -9   0   -0.39    0.56
  -6   8   0  242.29    7.00
  -6   8   0  251.35    6.88
   6  -8   0  249.67    6.63
   6  -8   0  235.93    7.00
  -5   7   0   -0.09    0.19
  -5   7   0    0.12    0.51
   5  -7   0    0.23    0.32
   5  -7   0    0.17    0.30
  -4   6   0  836.88   29.00
  -4   6   0  772.46   25.19
   4  -6   0  780.64   26.66
  -3   5   0    0.16    0.33
  -3   5   0    0.00    0.17
   3  -5   0    0.17    0.16
   3  -5   0   -0.23    0.49
  -2   4   0  868.79   28.22
  -2   4   0  849.44   26.88
   2  -4   0  887.53   29.35
   2  -4   0  902.14   28.63
  -4   2   0    7.57    0.48
   5  -3   0    0.26    0.25
  -5   3   0    0.06    0.23
  -5   3   0    0.13    0.25
   6  -4   0  247.26    7.06
  -6   4   0  243.34    6.45
  -6   4   0  238.77    6.31
   7  -5   0   -0.35    0.45
  -7   5   0    0.04    0.48
  -7   5   0   -0.33    0.39
   8  -6   0  150.32    4.55
  -8   6   0  154.94    4.17
  -8   6   0  153.24    4.14
   9  -7   0    0.10    0.44
  -9   7   0    0.00    0.45
  -9   7   0    0.06    0.25
  10  -8   0   35.68    1.31
 -10   8   0   35.44    1.30
 -10   8   0   38.23    1.31
  11  -9   0   -0.13    0.32
 -11   9   0   -0.05    0.29
 -11   9   0    0.72    0.51
  12 -10   0   86.07    2.90
 -12  10   0   97.79    3.08
 -12  10   0   96.30    3.04
  13 -11   0    0.26    0.46
 -13  11   0    0.33    0.42
 -13  11   0    1.17    0.49
 -14  12   0   84.82    3.03
 -14  12   0   87.01    3.87
 -15  13   0    0.20    0.78
 -15  13   0   -0.89    0.57
 -16  14   0   91.84    3.57
 -16  14   0   92.25    3.62
 -17  15   0    0.45    0.81
 -17  15   0    0.19    0.57
 -18  16   0   21.54    1.50
 -18  16   0   23.00    1.51
 -19  17   0    2.47    0.83
 -19  17   0   -0.96    0.52
 -20  18   0   11.33    1.31
 -20  18   0   12.70    1.35
 -21  19   0    1.13    0.67
 -21  19   0    0.10    0.68
 -21  19   0   -0.02    0.71
 -22  20   0    2.64    1.52
 -22  20   0    6.13    0.99
 -22  20   0    2.67    1.10
 -23  21   0   -0.76    0.73
 -23  21   0    1.01    0.71
 -23  21   0    0.27    1.06
 -24  22   0   25.46    2.22
 -24  22   0   26.02    2.06
 -24  22   0   25.09    2.09
 -21  25   0    0.32    1.13
 -20  24   0   11.69    1.45
 -19  23   0    0.64    0.75
 -19  23   0   -0.60    1.05
 -18  22   0    8.31    1.32
 -18  22   0    9.11    1.19
 -17  21   0   -1.43    0.63
 -17  21   0    0.39    0.71
  17 -21   0    0.32    0.70
 -16  20   0    5.92    1.60
 -16  20   0    4.08    1.32
  16 -20   0    3.60    1.59
 -15  19   0   -0.98    0.67
 -15  19   0    0.55    0.83
  15 -19   0   -0.48    0.65
 -14  18   0   18.28    1.27
 -14  18   0   21.62    1.55
  14 -18   0   16.19    1.48
 -13  17   0   -0.16    0.69
 -13  17   0   -0.50    0.49
  13 -17   0    0.58    1.09
  13 -17   0   -0.39    0.45
 -12  16   0  119.02    4.74
 -12  16   0  120.60    5.49
  12 -16   0  118.06    3.80
  12 -16   0  104.08    4.30
 -11  15   0   -1.42    0.84
 -11  15   0   -0.62    0.56
  11 -15   0    0.21    0.55
  11 -15   0    0.22    0.33
 -10  14   0  250.57    8.41
 -10  14   0  241.85    7.92
  10 -14   0  229.31    8.22
  10 -14   0  261.06    7.89
  -9  13   0   -0.63    0.46
  -9  13   0    0.01    0.31
   9 -13   0   -0.95    0.46
   9 -13   0    0.15    0.27
  -8  12   0  159.16    5.13
  -8  12   0  172.50    5.10
   8 -12   0  167.12    6.17
   8 -12   0  168.75    5.07
  -7  11   0   -0.23    0.38
  -7  11   0   -0.03    0.26
   7 -11   0   -0.55    0.42
   7 -11   0   -0.03    0.35
  -6  10   0    3.95    0.59
  -6  10   0    4.86    0.41
   6 -10   0    4.82    0.98
   6 -10   0    5.08    0.36
  -5   9   0    0.04    0.33
  -5   9   0   -0.17    0.33
   5  -9   0    0.48    0.35
   5  -9   0   -0.01    0.20
  -4   8   0  285.33    8.33
  -4   8   0  280.56    7.74
   4  -8   0  275.94    8.26
   4  -8   0  292.31    7.79
  -3   7   0   -0.04    0.19
  -3   7   0    0.39    0.34
   3  -7   0    0.34    0.35
   3  -7   0   -0.06    0.18
  -2   6   0    5.97    0.40
  -2   6   0    6.55    0.69
   2  -6   0    8.13    0.69
   2  -6   0    6.47    0.38
  -1   5   0   -0.19    0.28
  -1   5   0    0.12    0.19
   1  -5   0    0.10    0.28
   1  -5   0    0.26    0.17
   0   4   0   22.08    0.67
   0   4   0   22.68    0.91
   0  -4   0   21.26    0.66
   0  -4   0   21.68    0.61
   4   0   0   22.94    0.70
  -4   0   0   24.34    1.09
  -5   1   0    0.21    0.30
  -7   3   0    0.02    0.24
  -7   3   0    0.13    0.27
  -8   4   0  202.31    5.75
  -8   4   0  208.09    6.18
  -9   5   0    0.21    0.29
  -9   5   0    0.26    0.44
 -10   6   0  669.44   22.74
 -10   6   0  663.53   21.95
 -11   7   0   -0.02    0.29
 -11   7   0   -0.07    0.30
 -12   8   0  258.94    8.04
 -12   8   0  262.73    8.52
 -13   9   0    0.07    0.37
 -13   9   0    0.29    0.37
 -14  10   0   38.49    2.09
 -14  10   0   38.71    2.13
 -15  11   0    0.70    0.49
 -15  11   0    0.76    0.53
 -16  12   0    5.02    1.11
 -16  12   0    4.62    0.78
 -17  13   0   -0.82    0.53
 -17  13   0    1.04    0.50
 -18  14   0   85.92    4.24
 -18  14   0   84.44    3.35
 -19  15   0    0.11    0.94
 -19  15   0   -0.65    0.62
 -20  16   0   72.10    4.11
 -20  16   0   65.40    3.00
 -20  16   0   68.26    3.18
 -21  17   0    0.95    0.89
 -21  17   0    0.00    0.65
 -21  17   0   -0.14    0.63
 -22  18   0   10.61    1.27
 -22  18   0   13.60    1.44
 -22  18   0   10.55    2.02
 -23  19   0    0.02    0.68
 -23  19   0   -0.22    0.57
 -23  19   0    0.31    0.60
 -24  20   0    5.99    1.86
 -24  20   0    7.79    1.26
 -24  20   0    9.09    1.40
 -25  21   0   -0.20    0.68
 -25  21   0    0.45    0.81
 -25  21   0    0.08    1.15
 -19  25   0   -0.04    0.66
 -18  24   0    7.45    1.72
  18 -24   0    4.95    1.31
 -17  23   0   -0.10    1.11
 -17  23   0   -0.47    0.84
  17 -23   0   -1.70    0.85
 -16  22   0   11.76    1.46
 -16  22   0   13.67    1.28
  16 -22   0    7.95    2.16
 -15  21   0    0.64    0.69
 -15  21   0   -0.92    0.59
  15 -21   0   -0.58    0.72
 -14  20   0    3.52    1.37
 -14  20   0    8.05    1.13
  14 -20   0    7.83    1.18
 -13  19   0    0.16    0.91
 -13  19   0    0.01    1.27
  13 -19   0    1.44    0.48
  13 -19   0    1.79    0.81
 -12  18   0  170.14    6.55
 -12  18   0  165.21    5.95
  12 -18   0  150.92    6.32
  12 -18   0  172.75    6.28
 -11  17   0    0.34    0.68
 -11  17   0   -0.36    0.47
  11 -17   0    0.83    0.40
  11 -17   0    1.08    1.15
 -10  16   0  176.66    5.97
 -10  16   0  184.06    6.54
  10 -16   0  165.95    6.42
  10 -16   0  191.14    5.78
  -9  15   0    0.58    0.33
  -9  15   0   -0.88    0.49
   9 -15   0    1.35    0.83
   9 -15   0   -0.57    0.43
  -8  14   0   90.94    2.92
  -8  14   0   89.31    3.23
   8 -14   0   92.78    3.00
   8 -14   0   82.99    3.27
  -7  13   0   -0.22    0.30
  -7  13   0    0.07    0.44
   7 -13   0   -0.32    0.48
   7 -13   0   -0.15    0.25
  -6  12   0   12.38    0.66
  -6  12   0   13.16    1.36
   6 -12   0   10.99    0.56
   6 -12   0   12.58    0.97
  -5  11   0    0.69    0.60
  -5  11   0    0.09    0.39
   5 -11   0   -0.05    0.67
   5 -11   0    0.00    0.20
  -4  10   0   77.01    2.41
  -4  10   0   73.32    2.08
   4 -10   0   78.19    2.57
   4 -10   0   77.11    2.27
  -3   9   0    0.04    0.21
  -3   9   0   -0.48    0.32
   3  -9   0    0.23    0.18
   3  -9   0   -0.36    0.34
  -2   8   0    3.87    0.40
  -2   8   0    4.92    0.59
   2  -8   0    3.60    0.53
   2  -8   0    5.33    0.98
  -1   7   0   -0.17    0.63
  -1   7   0   -0.02    0.29
   1  -7   0   -0.10    0.22
   1  -7   0    0.26    0.38
   0   6   0  162.85    4.89
   0   6   0  177.02    4.91
   0  -6   0  173.38    4.95
   0  -6   0  168.96    4.46
  -1  -5   0    8.14    0.67
  -1  -5   0    4.15    0.53
   2   4   0    7.79    0.74
  -2  -4   0    6.36    0.77
   3   3   0    0.33    0.37
  -3  -3   0    0.04    0.38
   4   2   0 1031.70   38.01
  -4  -2   0 1024.65   37.17
   5   1   0   -0.82    0.54
  -5  -1   0    0.38    0.36
   6   0   0  173.07    5.00
  -6   0   0  180.16    5.53
  -7   1   0    0.00    0.40
  -8   2   0  161.23    4.76
  -9   3   0    0.36    0.38
  -9   3   0   -0.17    0.39
 -10   4   0  371.22   11.34
 -10   4   0  370.46   10.69
 -11   5   0    0.13    0.52
 -11   5   0    0.08    0.28
 -12   6   0  337.13   10.07
 -12   6   0  340.84   10.89
 -13   7   0    0.12    0.39
 -13   7   0    1.22    0.58
 -14   8   0   29.89    1.33
 -14   8   0   31.77    1.29
 -15   9   0    0.08    0.38
 -15   9   0    0.03    0.37
 -16  10   0   31.60    1.46
 -16  10   0   33.56    1.60
 -17  11   0   -0.61    0.50
 -17  11   0    0.36    0.78
 -18  12   0    1.56    0.67
 -18  12   0    1.68    0.64
 -18  12   0    0.54    0.77
 -19  13   0    0.37    0.51
 -19  13   0   -0.30    0.86
 -19  13   0    0.13    0.61
 -20  14   0   75.90    3.13
 -20  14   0   78.83    3.46
 -20  14   0   77.45    3.44
 -21  15   0    1.50    1.02
 -21  15   0   -0.85    1.09
 -21  15   0    0.08    0.93
 -22  16   0   41.42    2.44
 -22  16   0   42.66    2.52
 -22  16   0   38.98    2.15
 -23  17   0    0.14    0.66
 -23  17   0   -0.04    0.89
 -23  17   0    0.35    1.06
 -24  18   0    3.79    1.11
 -24  18   0    3.57    0.91
 -24  18   0    2.39    1.00
 -25  19   0    0.11    1.17
 -25  19   0    0.29    1.20
 -25  19   0   -0.54    0.97
 -26  20   0   17.18    1.65
 -26  20   0   18.96    2.06
 -26  20   0   17.63    1.92
 -18  26   0    2.43    0.90
  18 -26   0    0.07    1.10
 -17  25   0    1.12    1.21
  17 -25   0    0.64    0.94
 -16  24   0    5.33    1.59
  16 -24   0    5.35    1.25
 -15  23   0   -0.08    0.60
 -15  23   0   -0.32    0.72
  15 -23   0   -0.20    0.74
 -14  22   0    0.29    0.50
 -14  22   0   -0.83    0.62
  14 -22   0    1.58    1.02
  14 -22   0   -0.10    0.37
 -13  21   0   -0.09    0.50
 -13  21   0    0.23    0.63
  13 -21   0    0.14    0.36
  13 -21   0   -0.92    0.65
 -12  20   0   58.38    2.89
 -12  20   0   52.96    3.14
  12 -20   0   55.31    2.10
  12 -20   0   56.01    2.97
 -11  19   0    0.94    0.69
 -11  19   0   -0.41    0.76
  11 -19   0   -0.22    0.75
  11 -19   0    0.30    0.62
 -10  18   0  122.09    4.78
 -10  18   0  117.21    4.88
  10 -18   0  111.77    4.90
  10 -18   0  123.29    3.92
  -9  17   0    0.40    0.65
  -9  17   0   -0.57    1.02
   9 -17   0   -0.30    1.07
   9 -17   0   -0.39    0.34
  -8  16   0  242.96    9.48
  -8  16   0  224.61    8.04
   8 -16   0  231.60    7.09
   8 -16   0  222.58    8.39
  -7  15   0   -0.01    0.48
  -7  15   0   -0.10    0.52
   7 -15   0    0.03    0.27
   7 -15   0    0.67    0.83
  -6  14   0  276.38    8.81
  -6  14   0  281.78    9.42
   6 -14   0  280.14    8.38
   6 -14   0  274.27    9.60
  -5  13   0    0.32    0.40
  -5  13   0    0.04    0.26
   5 -13   0   -0.05    0.21
   5 -13   0   -0.61    0.68
  -4  12   0   11.64    0.95
  -4  12   0   13.03    1.01
   4 -12   0   13.52    1.06
   4 -12   0   14.04    0.60
  -3  11   0   -0.24    0.29
  -3  11   0    0.12    0.64
   3 -11   0   -0.02    0.36
   3 -11   0   -0.84    0.45
  -2  10   0  189.65    5.52
  -2  10   0  191.96    5.75
   2 -10   0  200.81    6.88
   2 -10   0  193.11    5.28
  -1   9   0    0.60    0.40
  -1   9   0   -0.10    0.34
   1  -9   0    0.50    0.26
   1  -9   0   -0.82    0.43
   0   8   0  353.06   12.28
   0  -8   0  367.73   11.30
   0  -8   0  368.15   10.84
   1   7   0    0.71    0.66
  -1  -7   0   -0.24    0.44
  -1  -7   0   -0.43    0.42
   2   6   0 1173.89   48.39
  -2  -6   0 1235.70   46.22
  -2  -6   0 1159.94   46.54
   3   5   0    0.65    1.20
  -3  -5   0   -0.44    1.31
   4   4   0  229.03    7.83
  -4  -4   0  224.08    9.48
   5   3   0    0.42    0.70
  -5  -3   0    0.69    0.83
   6   2   0    7.45    1.01
  -6  -2   0    9.28    1.28
   7   1   0   -0.68    0.55
  -7  -1   0   -0.46    0.74
  -8   0   0  371.32   11.90
  -9   1   0   -0.14    0.78
 -10   2   0  338.38   10.72
 -11   3   0   -0.12    0.23
 -11   3   0    0.25    0.38
 -12   4   0  171.57    6.36
 -12   4   0  184.14    5.44
 -13   5   0    0.25    0.34
 -13   5   0   -0.58    0.43
 -13   5   0    0.10    0.41
 -14   6   0   61.07    2.38
 -14   6   0   60.74    2.33
 -14   6   0   55.98    2.12
 -15   7   0    0.66    0.36
 -15   7   0    0.06    0.52
 -15   7   0   -0.26    0.41
 -16   8   0  119.29    4.20
 -16   8   0  119.38    3.79
 -16   8   0  119.10    4.42
 -17   9   0   -0.85    0.65
 -17   9   0    0.69    0.59
 -17   9   0   -0.25    0.47
 -18  10   0    1.70    0.82
 -18  10   0    2.45    0.60
 -18  10   0   -0.15    1.03
 -19  11   0   -0.44    1.03
 -19  11   0    0.06    0.53
 -19  11   0   -0.12    0.46
 -20  12   0   41.08    2.89
 -20  12   0   41.08    3.13
 -20  12   0   36.99    1.78
 -21  13   0    0.10    0.52
 -21  13   0   -0.06    0.62
 -21  13   0    0.84    0.70
 -22  14   0   49.11    2.35
 -22  14   0   52.23    2.80
 -22  14   0   50.77    2.75
 -23  15   0    0.50    0.75
 -23  15   0    0.68    0.77
 -23  15   0    0.45    0.61
 -24  16   0   11.88    1.51
 -24  16   0   12.85    2.27
 -24  16   0    9.65    1.13
 -25  17   0    0.05    0.85
 -25  17   0   -1.05    0.71
 -25  17   0    0.94    0.72
 -26  18   0    2.49    1.09
 -26  18   0    1.37    0.86
 -26  18   0    2.32    1.07
 -27  19   0   -0.38    1.46
 -27  19   0   -0.43    0.94
 -27  19   0   -0.54    1.13
  18 -28   0   -0.05    0.86
 -17  27   0   -0.23    0.70
  17 -27   0   -0.11    0.90
 -16  26   0   24.89    2.70
  16 -26   0   21.83    2.23
 -15  25   0    0.29    1.14
  15 -25   0    0.75    0.90
 -14  24   0    7.50    1.06
  14 -24   0    6.05    2.11
  14 -24   0    6.96    0.78
 -13  23   0   -0.59    0.61
  13 -23   0    0.15    0.67
  13 -23   0    2.20    0.79
 -12  22   0    1.68    0.64
 -12  22   0    0.80    0.79
  12 -22   0    0.19    0.45
  12 -22   0    3.12    1.30
 -11  21   0    0.02    0.69
 -11  21   0    0.80    0.55
  11 -21   0    0.75    0.74
  11 -21   0    0.00    0.37
 -10  20   0   71.86    3.47
 -10  20   0   74.42    3.06
  10 -20   0   75.66    3.08
  10 -20   0   74.77    3.70
  -9  19   0    0.09    0.52
  -9  19   0   -1.41    0.69
   9 -19   0   -0.99    0.78
   9 -19   0    0.15    0.56
  -8  18   0   64.92    2.61
  -8  18   0   68.82    3.03
   8 -18   0   63.22    3.24
   8 -18   0   68.65    2.25
  -7  17   0    0.12    0.39
  -7  17   0    1.14    0.56
   7 -17   0   -0.53    0.30
   7 -17   0    0.56    1.00
  -6  16   0   78.11    3.08
  -6  16   0   72.15    2.63
   6 -16   0   75.59    3.27
   6 -16   0   79.67    2.42
  -5  15   0   -0.24    0.54
  -5  15   0    0.61    0.60
   5 -15   0    0.77    0.91
   5 -15   0    0.26    0.28
  -4  14   0  185.23    6.06
  -4  14   0  185.24    5.89
   4 -14   0  180.73    6.23
   4 -14   0  181.00    5.27
  -3  13   0   -0.11    0.47
  -3  13   0   -0.14    0.62
   3 -13   0   -1.08    0.52
   3 -13   0   -0.01    0.43
  -2  12   0   86.75    2.97
  -2  12   0   86.23    2.85
   2 -12   0   91.81    3.17
   2 -12   0   86.79    2.50
  -1  11   0   -0.14    0.41
  -1  11   0    0.35    0.39
   1 -11   0    0.27    0.44
   1 -11   0   -0.25    0.41
   0  10   0  120.83    4.12
   0 -10   0  119.00    3.88
   0 -10   0  120.04    3.44
   1   9   0    0.42    0.59
  -1  -9   0   -0.04    0.37
  -1  -9   0    0.34    0.43
   2   8   0  160.36    5.95
  -2  -8   0  172.14    5.78
  -2  -8   0  164.60    5.37
   3   7   0    1.79    0.90
  -3  -7   0    0.06    0.86
   4   6   0  246.88    9.05
  -4  -6   0  246.00    9.42
   5   5   0   -1.57    1.40
  -5  -5   0   -0.19    1.11
   6   4   0  876.00   33.18
  -6  -4   0  869.27   34.01
   7   3   0    0.10    0.56
  -7  -3   0   -0.23    0.69
   8   2   0    3.55    0.69
  -8  -2   0    3.79    0.97
   9   1   0   -0.08    0.48
  -9  -1   0    1.51    0.62
 -10   0   0  122.29    5.18
 -11   1   0   -0.01    0.44
 -12   2   0  205.41    6.84
 -13   3   0    0.05    0.50
 -13   3   0    0.29    0.28
 -14   4   0   35.77    1.74
 -14   4   0   34.40    1.18
 -15   5   0    0.72    0.54
 -15   5   0    0.03    0.33
 -15   5   0    0.07    0.42
 -16   6   0  147.91    5.46
 -16   6   0  149.57    5.12
 -16   6   0  152.41    4.56
 -17   7   0    0.86    0.78
 -17   7   0   -0.78    0.65
 -17   7   0   -0.23    0.40
 -18   8   0  141.19    5.22
 -18   8   0  154.65    4.93
 -18   8   0  148.87    5.77
 -19   9   0    0.83    0.67
 -19   9   0    0.00    0.66
 -19   9   0   -0.62    0.50
 -20  10   0   50.07    2.50
 -20  10   0   54.69    2.81
 -20  10   0   52.90    2.13
 -21  11   0    0.26    0.62
 -21  11   0   -0.08    0.70
 -21  11   0    0.43    0.47
 -22  12   0   34.64    2.91
 -22  12   0   35.65    1.77
 -22  12   0   34.36    3.16
 -23  13   0    0.38    0.66
 -23  13   0   -0.01    1.21
 -23  13   0    0.13    0.51
 -24  14   0   17.04    2.43
 -24  14   0   16.67    1.87
 -24  14   0   17.41    1.85
 -25  15   0    1.21    0.86
 -25  15   0    0.73    0.61
 -25  15   0   -0.43    0.81
 -26  16   0   -0.34    1.63
 -26  16   0    1.91    1.05
 -26  16   0    2.61    1.14
 -27  17   0    3.35    1.64
 -27  17   0    1.65    0.99
 -27  17   0    0.10    0.70
 -28  18   0   11.82    1.89
 -28  18   0   12.47    2.81
 -28  18   0   11.39    1.93
  16 -28   0   -0.10    0.96
 -15  27   0   -0.46    1.21
  15 -27   0   -0.37    0.95
 -14  26   0   11.37    1.95
  14 -26   0   10.11    0.90
  14 -26   0    0.63    2.51
 -13  25   0    0.03    0.65
  13 -25   0   -0.64    0.84
  13 -25   0   -0.11    0.64
 -12  24   0   19.92    1.62
  12 -24   0   20.55    1.16
  12 -24   0   18.13    2.91
 -11  23   0   -0.49    0.56
  11 -23   0    0.03    0.35
  11 -23   0    0.36    0.71
 -10  22   0    1.14    0.72
  10 -22   0    1.54    0.46
  10 -22   0    2.01    0.97
  -9  21   0   -0.52    0.55
   9 -21   0   -0.65    0.77
   9 -21   0    0.36    0.57
  -8  20   0    0.31    0.58
  -8  20   0    0.86    0.74
   8 -20   0    0.79    0.83
   8 -20   0    0.01    0.58
  -7  19   0    0.43    0.48
  -7  19   0   -0.01    0.61
   7 -19   0   -0.05    0.31
   7 -19   0   -0.45    1.09
  -6  18   0   19.38    1.30
   6 -18   0   20.74    1.77
   6 -18   0   21.19    0.97
  -5  17   0    0.10    0.56
  -5  17   0   -0.57    0.71
   5 -17   0    0.14    0.29
   5 -17   0    0.10    0.95
  -4  16   0    0.54    0.75
  -4  16   0    3.38    0.69
   4 -16   0    3.26    0.65
   4 -16   0    3.39    0.83
  -3  15   0   -0.21    0.42
  -3  15   0    0.50    0.49
   3 -15   0   -0.26    0.28
   3 -15   0    0.91    0.82
  -2  14   0  128.02    4.50
   2 -14   0  128.39    3.86
   2 -14   0  131.42    4.60
  -1  13   0    0.59    0.96
   1 -13   0    0.35    0.52
   1 -13   0    0.78    0.58
   0  12   0 1160.75   48.50
   0 -12   0 1195.81   50.05
   0 -12   0 1137.61   45.39
   1  11   0   -0.45    0.60
  -1 -11   0   -0.23    0.47
  -1 -11   0    0.17    0.56
   2  10   0  341.30   12.28
  -2 -10   0  328.58   10.60
  -2 -10   0  338.49   11.04
   3   9   0    0.56    0.83
  -3  -9   0   -0.90    0.46
  -3  -9   0   -0.43    0.67
   4   8   0  197.84    9.01
  -4  -8   0  201.25    7.42
   5   7   0   -0.14    0.66
  -5  -7   0    0.05    0.80
   6   6   0    0.12    0.74
  -6  -6   0    1.28    0.96
   7   5   0    0.52    0.71
  -7  -5   0    0.75    0.93
   8   4   0  308.01   10.46
  -8  -4   0  321.46   11.41
   9   3   0    0.34    0.56
  -9  -3   0    0.22    0.75
  10   2   0  197.09    6.37
 -10  -2   0  196.83    6.79
  11   1   0   -0.52    0.44
 -11  -1   0    0.69    0.56
 -12   0   0 1126.40   45.92
 -13   1   0   -0.01    0.81
 -14   2   0   16.15    1.35
 -15   3   0   -0.15    0.29
 -15   3   0    0.02    0.59
 -16   4   0   -0.07    0.53
 -16   4   0    1.46    0.39
 -16   4   0    0.31    0.74
 -17   5   0    0.48    0.48
 -17   5   0    0.17    0.36
 -17   5   0   -0.94    0.69
 -18   6   0  103.54    3.28
 -18   6   0   94.54    3.70
 -18   6   0   98.47    4.32
 -19   7   0    0.14    0.84
 -19   7   0   -0.43    0.76
 -19   7   0   -0.07    0.40
 -20   8   0   38.01    2.61
 -20   8   0   37.59    2.04
 -20   8   0   36.34    1.65
 -21   9   0    0.83    0.72
 -21   9   0    0.32    0.98
 -21   9   0   -0.15    0.85
 -22  10   0    4.94    0.96
 -22  10   0    4.70    0.71
 -22  10   0    5.32    1.22
 -23  11   0    0.40    0.60
 -23  11   0    0.16    0.43
 -23  11   0   -0.82    0.69
 -24  12   0    2.16    0.89
 -24  12   0    0.63    0.79
 -24  12   0   -0.89    0.93
 -25  13   0   -0.57    0.52
 -25  13   0    0.49    0.77
 -25  13   0   -0.48    0.85
 -26  14   0    5.49    1.40
 -26  14   0    7.78    1.96
 -26  14   0    5.79    2.26
 -27  15   0    0.99    0.55
 -27  15   0   -1.89    0.90
 -27  15   0   -1.35    0.83
 -28  16   0    9.65    1.77
 -28  16   0   10.12    1.83
 -28  16   0   12.12    2.52
  15 -29   0   -0.16    0.99
 -14  28   0    0.34    1.23
  14 -28   0    0.43    0.46
  14 -28   0   -0.41    1.57
 -13  27   0    1.00    1.09
  13 -27   0   -0.22    0.89
  13 -27   0   -0.46    0.65
 -12  26   0    2.16    0.86
  12 -26   0    1.27    1.08
  12 -26   0    0.88    0.52
 -11  25   0    0.54    0.69
  11 -25   0   -0.07    0.88
  11 -25   0    0.28    0.42
 -10  24   0   20.12    1.63
  10 -24   0   17.16    1.06
  10 -24   0   18.79    1.97
  -9  23   0   -0.25    0.69
   9 -23   0    1.34    1.39
   9 -23   0    1.09    0.63
  -8  22   0    2.59    0.83
   8 -22   0    2.92    1.07
   8 -22   0    2.19    0.77
  -7  21   0   -0.22    0.59
   7 -21   0    0.29    0.55
   7 -21   0    0.64    1.22
  -6  20   0    1.44    1.17
   6 -20   0    1.15    0.42
   6 -20   0   -0.12    0.92
  -5  19   0   -0.21    1.01
   5 -19   0   -0.89    1.25
   5 -19   0   -0.28    0.35
  -4  18   0   46.26    2.43
   4 -18   0   48.19    2.13
   4 -18   0   46.39    2.55
  -3  17   0    0.33    0.61
   3 -17   0    0.63    1.08
   3 -17   0    0.34    0.55
  -2  16   0  261.14   10.60
   2 -16   0  248.15    7.97
   2 -16   0  242.47    8.92
  -1  15   0   -0.01    0.64
   1 -15   0    0.02    0.95
   1 -15   0   -0.29    0.34
   0  14   0  135.61    5.24
   0 -14   0  138.39    4.83
   0 -14   0  125.41    4.48
   1  13   0    0.88    1.12
  -1 -13   0   -0.14    0.37
  -1 -13   0   -0.27    0.50
   2  12   0  216.17    8.23
  -2 -12   0  209.18    6.87
  -2 -12   0  221.22    8.21
   3  11   0    0.45    0.69
  -3 -11   0    0.12    0.41
  -3 -11   0   -0.82    0.72
   4  10   0  370.48   14.02
  -4 -10   0  380.04   13.53
  -4 -10   0  364.43   11.90
   5   9   0   -0.14    0.73
  -5  -9   0   -0.32    0.77
   6   8   0  154.37    5.83
  -6  -8   0  165.49    6.57
   7   7   0   -0.36    0.77
  -7  -7   0   -0.77    0.93
   8   6   0  250.59    8.76
  -8  -6   0  252.73    9.69
   9   5   0    1.27    0.69
  -9  -5   0    0.06    0.86
  10   4   0   80.17    3.11
 -10  -4   0   77.76    3.48
  11   3   0    0.55    0.57
 -11  -3   0    0.55    0.79
  12   2   0   88.32    3.29
 -12  -2   0   91.95    3.74
 -13  -1   0    0.68    0.81
 -14   0   0  125.65    4.83
 -15   1   0   -0.81    0.80
 -16   2   0   22.80    1.85
 -17   3   0   -0.03    0.32
 -17   3   0   -0.63    1.18
 -18   4   0  128.96    4.51
 -18   4   0  112.43    6.44
 -19   5   0   -0.26    0.90
 -19   5   0   -1.13    0.63
 -19   5   0   -0.43    0.71
 -20   6   0   30.34    2.27
 -20   6   0   28.73    1.87
 -20   6   0   26.62    1.79
 -21   7   0   -1.65    0.84
 -21   7   0    1.02    0.95
 -21   7   0   -0.03    0.43
 -22   8   0    0.34    0.45
 -22   8   0    0.93    0.62
 -22   8   0   -0.81    0.83
 -23   9   0    0.60    0.95
 -23   9   0   -0.14    0.44
 -23   9   0    1.91    1.29
 -24  10   0  117.42    7.28
 -24  10   0  118.83    5.23
 -24  10   0  115.89    4.91
 -25  11   0   -1.47    1.00
 -25  11   0   -0.31    0.53
 -25  11   0   -0.66    0.78
 -26  12   0   24.40    1.51
 -26  12   0   26.82    2.43
 -26  12   0   28.85    2.18
 -27  13   0    0.61    0.81
 -27  13   0   -0.12    0.92
 -27  13   0   -0.60    0.53
 -28  14   0   14.95    1.99
 -28  14   0   11.49    1.21
 -28  14   0   17.35    1.85
 -29  15   0    0.38    0.97
 -29  15   0    0.77    1.04
 -29  15   0    1.99    1.76
  14 -30   0    0.87    1.97
 -13  29   0    0.81    1.31
  13 -29   0    0.37    1.02
  13 -29   0   -0.51    0.43
 -12  28   0    5.21    1.90
  12 -28   0   -0.17    1.55
  12 -28   0    6.33    0.75
 -11  27   0    1.29    0.89
  11 -27   0    1.05    0.48
  11 -27   0    0.15    1.13
 -10  26   0   33.64    2.40
  10 -26   0   33.53    1.59
  10 -26   0   33.98    2.80
  -9  25   0   -0.10    0.67
   9 -25   0    0.13    0.58
   9 -25   0   -0.78    1.31
  -8  24   0    8.63    1.27
   8 -24   0    6.99    1.04
   8 -24   0    5.83    1.52
  -7  23   0   -0.30    0.75
   7 -23   0   -0.27    0.41
   7 -23   0   -1.86    0.91
  -6  22   0   70.81    3.58
   6 -22   0   76.54    2.71
   6 -22   0   80.51    4.08
  -5  21   0   -0.52    1.17
   5 -21   0    0.47    0.38
   5 -21   0   -0.91    0.87
  -4  20   0   45.65    2.82
   4 -20   0   45.95    2.80
   4 -20   0   44.26    1.73
  -3  19   0   -0.45    0.79
   3 -19   0   -0.18    0.76
   3 -19   0   -0.16    0.36
  -2  18   0    2.10    0.87
   2 -18   0   -0.43    0.78
   2 -18   0    0.57    0.65
  -1  17   0    0.86    0.80
   1 -17   0    0.28    0.66
   1 -17   0   -0.45    0.37
   0  16   0   86.42    4.14
   0 -16   0   91.67    3.79
   0 -16   0   96.47    3.23
   1  15   0    0.09    0.78
  -1 -15   0    1.12    0.56
  -1 -15   0   -0.41    0.39
   2  14   0   17.35    2.86
  -2 -14   0   14.33    1.27
  -2 -14   0   18.31    1.51
   3  13   0    0.88    0.89
  -3 -13   0    0.08    0.55
  -3 -13   0    0.48    0.54
   4  12   0  175.59    7.22
  -4 -12   0  184.62    6.17
  -4 -12   0  181.07    6.52
   5  11   0   -0.74    0.78
  -5 -11   0    0.30    0.46
  -5 -11   0    0.41    0.69
   6  10   0  652.80   27.45
  -6 -10   0  671.08   28.86
   7   9   0    0.87    1.24
  -7  -9   0   -0.49    1.44
   8   8   0   25.90    1.92
  -8  -8   0   26.81    2.28
   9   7   0   -0.48    0.74
  -9  -7   0   -0.80    1.47
  10   6   0    5.82    1.05
 -10  -6   0    5.42    1.39
  11   5   0   -0.16    0.57
 -11  -5   0    0.06    0.76
  12   4   0   11.79    1.15
 -12  -4   0   14.59    1.62
  13   3   0   -0.15    0.99
 -13  -3   0    1.04    0.89
  14   2   0  127.98    4.75
 -14  -2   0  129.97    5.25
 -15  -1   0   -0.91    0.91
 -16   0   0   94.57    5.67
 -17   1   0   -0.25    0.82
 -18   2   0  235.74    9.42
 -19   3   0    0.98    0.70
 -19   3   0    1.73    1.08
 -20   4   0   43.81    2.30
 -20   4   0   45.10    3.11
 -20   4   0   45.61    2.31
 -21   5   0    0.46    0.64
 -21   5   0   -1.52    0.89
 -21   5   0    0.54    0.61
 -22   6   0  145.50    6.77
 -22   6   0  142.08    5.87
 -22   6   0  158.88    5.75
 -23   7   0   -0.32    0.89
 -23   7   0    0.19    0.98
 -23   7   0   -0.23    0.64
 -24   8   0   77.67    4.31
 -24   8   0   80.76    2.98
 -24   8   0   75.58    3.72
 -25   9   0    0.71    0.46
 -25   9   0   -1.16    0.99
 -25   9   0   -0.37    1.13
 -26  10   0   13.44    1.05
 -26  10   0   13.75    1.58
 -26  10   0   14.52    1.94
 -27  11   0   -1.18    0.98
 -27  11   0    0.37    0.78
 -27  11   0   -0.32    0.81
 -28  12   0    0.88    0.93
 -28  12   0    0.75    0.55
 -28  12   0    0.42    1.74
 -29  13   0    0.45    0.91
 -29  13   0    0.35    0.79
 -29  13   0   -0.41    1.05
 -30  14   0    1.15    1.19
 -30  14   0   -0.08    1.00
  12 -30   0   21.08    2.46
  12 -30   0   16.19    1.19
 -11  29   0   -0.48    1.30
  11 -29   0    0.22    0.41
  11 -29   0   -0.29    1.60
 -10  28   0   12.37    1.88
  10 -28   0   14.60    1.48
  10 -28   0   16.38    2.12
  -9  27   0   -0.95    0.89
   9 -27   0    0.39    0.99
   9 -27   0   -0.35    0.67
  -8  26   0   32.65    2.66
   8 -26   0   35.24    1.64
   8 -26   0   34.99    2.90
  -7  25   0    0.11    0.88
   7 -25   0    1.30    0.97
   7 -25   0    0.34    0.43
  -6  24   0   61.13    3.51
   6 -24   0   58.63    2.29
   6 -24   0   57.55    3.66
  -5  23   0   -0.19    0.75
   5 -23   0    1.23    0.80
   5 -23   0   -0.29    0.37
  -4  22   0   15.63    3.07
   4 -22   0   20.23    1.11
   4 -22   0   20.09    3.00
  -3  21   0    0.13    0.94
   3 -21   0    0.57    0.85
   3 -21   0    0.22    0.41
  -2  20   0    1.16    1.14
   2 -20   0    1.59    0.49
   2 -20   0    0.58    1.58
  -1  19   0   -0.10    0.99
   1 -19   0    0.42    0.44
   1 -19   0    1.24    0.87
   0  18   0  101.04    5.33
   0 -18   0  100.95    4.14
   0 -18   0  105.69    5.79
   1  17   0   -0.79    1.04
  -1 -17   0   -0.14    0.75
  -1 -17   0   -0.60    0.77
   2  16   0   25.36    2.36
  -2 -16   0   24.43    1.39
  -2 -16   0   23.12    2.50
   3  15   0   -0.20    0.99
  -3 -15   0    0.88    0.63
  -3 -15   0    0.44    0.54
   4  14   0   32.26    2.64
  -4 -14   0   32.85    1.87
  -4 -14   0   38.56    1.90
   5  13   0    0.25    1.43
  -5 -13   0    0.55    0.67
  -5 -13   0    0.18    0.54
   6  12   0  333.36   13.24
  -6 -12   0  321.52   11.26
  -6 -12   0  330.06   14.48
   7  11   0    0.49    0.85
  -7 -11   0   -0.52    1.47
   8  10   0   36.77    2.46
  -8 -10   0   42.46    4.52
   9   9   0    1.18    1.19
  -9  -9   0   -0.58    1.04
  10   8   0   10.38    1.49
 -10  -8   0   11.74    1.90
  11   7   0   -0.30    0.77
 -11  -7   0   -0.78    1.03
  12   6   0   11.86    1.34
 -12  -6   0   12.53    1.76
  13   5   0   -0.10    0.65
 -13  -5   0   -0.76    0.98
  14   4   0  184.23    7.91
 -14  -4   0  192.37    7.74
  15   3   0    0.51    0.68
 -15  -3   0    0.21    0.95
 -16  -2   0  245.42   11.74
 -17  -1   0   -0.12    0.88
 -18   0   0   99.26    5.07
 -19   1   0    0.83    1.16
 -20   2   0   73.15    5.98
 -21   3   0    0.01    0.38
 -21   3   0    1.39    1.50
 -22   4   0   11.82    3.35
 -22   4   0   18.89    1.05
 -22   4   0   16.07    1.54
 -23   5   0   -1.80    1.07
 -23   5   0    0.56    0.43
 -23   5   0    1.37    1.58
 -24   6   0   63.53    5.28
 -24   6   0   61.61    2.29
 -24   6   0   58.24    3.16
 -25   7   0   -0.90    1.44
 -25   7   0   -0.05    0.42
 -25   7   0    1.48    1.04
 -26   8   0   16.33    3.49
 -26   8   0   19.72    1.62
 -26   8   0   18.75    1.81
 -27   9   0    0.93    1.76
 -27   9   0    0.15    0.82
 -27   9   0    0.79    0.79
 -28  10   0   -0.07    0.44
 -28  10   0   -0.35    1.03
 -28  10   0    0.92    0.77
 -29  11   0    0.19    0.44
 -29  11   0    0.00    0.97
 -29  11   0   -0.37    0.78
 -30  12   0    3.37    2.05
 -30  12   0    4.60    1.64
  11 -31   0    0.30    1.19
 -10  30   0   13.43    2.14
  10 -30   0   22.82    2.53
  10 -30   0   17.30    1.59
  -9  29   0   -0.18    0.98
   9 -29   0   -0.03    1.09
   9 -29   0    0.59    0.46
  -8  28   0    0.09    0.87
   8 -28   0   -0.44    1.47
  -7  27   0    0.00    0.82
   7 -27   0   -0.12    0.88
   7 -27   0    0.00    0.38
  -6  26   0   11.82    1.74
   6 -26   0    5.56    2.66
   6 -26   0    8.87    0.85
  -5  25   0    0.01    0.89
   5 -25   0   -1.45    0.91
   5 -25   0    0.45    0.42
  -4  24   0  128.93    6.36
   4 -24   0  128.34    4.66
   4 -24   0  137.00    6.48
  -3  23   0   -0.64    1.57
   3 -23   0   -0.28    0.89
   3 -23   0   -0.32    0.45
  -2  22   0    0.99    1.63
   2 -22   0    0.65    0.84
   2 -22   0    0.03    0.44
  -1  21   0   -1.42    1.19
   1 -21   0   -0.28    0.91
   1 -21   0    0.96    0.47
   0  20   0   32.58    2.95
   0 -20   0   27.53    2.31
   0 -20   0   28.71    1.49
   1  19   0   -0.03    1.86
  -1 -19   0   -0.16    0.51
  -1 -19   0   -1.04    0.87
   2  18   0  243.01   10.95
  -2 -18   0  236.80    9.33
  -2 -18   0  236.88    8.65
   3  17   0    0.62    1.95
  -3 -17   0   -0.58    0.77
  -3 -17   0   -0.76    0.60
   4  16   0    1.20    1.22
  -4 -16   0    0.79    0.68
  -4 -16   0    1.10    0.78
   5  15   0    1.13    1.56
  -5 -15   0    0.17    0.62
  -5 -15   0    0.31    1.07
   6  14   0   53.48    3.40
  -6 -14   0   58.96    3.35
  -6 -14   0   52.34    4.12
   7  13   0   -0.01    0.91
  -7 -13   0    0.83    1.40
  -7 -13   0   -0.51    0.55
   8  12   0  260.06   10.38
  -8 -12   0  253.20   12.67
   9  11   0    0.08    0.85
  -9 -11   0   -0.69    1.04
  10  10   0   70.84    3.63
 -10 -10   0   82.20    4.68
  11   9   0    0.19    1.44
 -11  -9   0   -1.23    1.18
  12   8   0  173.21    6.89
 -12  -8   0  163.78    9.67
  13   7   0   -0.46    0.74
 -13  -7   0    0.07    1.09
  14   6   0  277.00   11.87
 -14  -6   0  291.58   12.01
  15   5   0   -0.54    0.75
 -15  -5   0   -0.32    1.10
  16   4   0    2.65    0.97
 -16  -4   0    1.89    1.36
 -17  -3   0   -0.41    1.14
 -18  -2   0    1.08    1.28
 -19  -1   0   -2.03    2.12
 -20   0   0   29.84    2.84
 -21   1   0   -0.94    1.26
 -22   2   0    0.89    0.47
 -22   2   0    1.16    1.21
 -23   3   0    0.43    0.38
 -23   3   0   -0.76    0.98
 -23   3   0   -0.34    0.64
 -24   4   0   49.10    2.80
 -24   4   0   48.45    3.53
 -24   4   0   52.59    2.50
 -25   5   0    0.42    0.63
 -25   5   0   -0.08    0.66
 -25   5   0   -0.43    0.99
 -26   6   0    4.93    1.17
 -26   6   0    4.52    0.67
 -26   6   0    3.72    1.58
 -27   7   0    0.91    0.50
 -27   7   0    0.41    1.23
 -27   7   0    0.72    0.85
 -28   8   0   55.33    2.32
 -28   8   0   55.07    4.06
 -28   8   0   52.84    3.32
 -29   9   0   -1.55    1.17
 -29   9   0    0.59    0.90
 -29   9   0   -0.51    0.49
 -30  10   0   17.11    2.55
 -30  10   0   19.21    2.97
 -31  11   0    0.46    1.01
 -31  11   0    0.74    1.99
  -9  31   0   -0.19    0.92
   9 -31   0   -0.09    1.10
   9 -31   0    0.16    0.41
  -8  30   0   13.85    2.20
   8 -30   0   15.13    2.29
   8 -30   0   14.45    1.14
  -7  29   0    0.27    1.04
   7 -29   0   -0.16    1.04
   7 -29   0   -0.37    0.70
  -6  28   0   11.24    1.81
   6 -28   0    8.87    1.26
   6 -28   0    0.03    1.80
  -5  27   0    0.23    1.09
   5 -27   0    0.35    0.75
   5 -27   0    0.38    1.04
  -4  26   0   57.71    3.84
   4 -26   0   50.43    3.60
   4 -26   0   48.47    2.78
  -3  25   0    0.93    1.20
   3 -25   0    0.59    0.83
   3 -25   0    1.67    1.75
  -2  24   0   45.55    3.41
   2 -24   0   43.36    2.97
   2 -24   0   39.63    2.41
  -1  23   0    0.40    1.51
   1 -23   0    0.22    0.79
   1 -23   0   -0.23    0.62
   0  22   0    8.78    1.83
   0 -22   0    3.29    1.11
   0 -22   0    5.23    1.43
   1  21   0   -2.24    1.34
  -1 -21   0   -0.02    0.95
  -1 -21   0   -0.44    0.89
   2  20   0   66.90    4.79
  -2 -20   0   69.91    3.65
  -2 -20   0   64.55    3.64
   3  19   0   -1.29    1.31
  -3 -19   0   -0.65    0.95
  -3 -19   0   -0.68    1.05
   4  18   0  123.54    6.50
  -4 -18   0  112.39    4.99
  -4 -18   0  125.23    5.99
   5  17   0    1.34    1.63
  -5 -17   0   -0.57    0.70
  -5 -17   0    0.32    1.06
   6  16   0  144.09    7.00
  -6 -16   0  154.11    7.68
  -6 -16   0  140.87    5.62
   7  15   0    0.94    1.82
  -7 -15   0    0.83    0.72
  -7 -15   0    0.16    1.57
   8  14   0   30.98    2.75
  -8 -14   0   31.45    1.82
  -8 -14   0   29.13    3.84
   9  13   0   -0.26    0.92
  -9 -13   0    0.45    0.57
  -9 -13   0    0.37    1.02
  10  12   0   97.65    4.96
 -10 -12   0  102.52    5.56
  11  11   0    0.59    0.83
 -11 -11   0   -1.35    1.13
  12  10   0  188.24    7.84
 -12 -10   0  201.38   11.69
  13   9   0    0.16    0.79
 -13  -9   0    0.16    1.19
  14   8   0   93.80    4.37
 -14  -8   0   94.59    5.32
  15   7   0    0.46    1.42
 -15  -7   0    1.43    1.36
  16   6   0   73.70    3.72
 -16  -6   0   81.43    4.80
  17   5   0   -0.73    0.85
 -17  -5   0   -0.06    1.33
 -18  -4   0   50.82    6.09
 -19  -3   0   -0.94    1.33
 -20  -2   0    1.93    1.52
 -21  -1   0   -0.88    1.40
 -22   0   0    7.02    2.00
 -23   1   0   -1.25    2.18
 -24   2   0   15.53    1.38
 -24   2   0   14.48    3.44
 -25   3   0   -0.46    0.76
 -25   3   0    0.53    0.42
 -25   3   0   -0.83    1.73
 -26   4   0  116.56    5.41
 -26   4   0  106.95    8.18
 -26   4   0  123.16    4.18
 -27   5   0   -1.47    1.72
 -27   5   0    0.09    0.77
 -27   5   0   -0.18    0.43
 -28   6   0   30.89    1.54
 -28   6   0   31.34    4.49
 -28   6   0   32.42    3.46
 -29   7   0   -1.00    1.65
 -29   7   0   -0.20    0.57
 -29   7   0    0.53    0.75
 -30   8   0    6.01    2.29
 -30   8   0   10.43    3.28
 -31   9   0   -0.34    1.23
 -31   9   0   -0.06    0.90
   8 -32   0   -0.20    1.79
   8 -32   0    3.59    0.98
  -7  31   0   -0.09    1.08
   7 -31   0   -0.03    1.87
   7 -31   0   -0.46    0.75
  -6  30   0    0.13    1.02
   6 -30   0   -0.01    1.07
  -5  29   0    0.17    0.95
   5 -29   0   -0.01    0.42
   5 -29   0   -0.02    0.96
  -4  28   0   28.12    2.85
   4 -28   0   24.87    1.55
   4 -28   0   26.36    2.79
  -3  27   0    0.18    1.18
   3 -27   0    0.01    1.05
   3 -27   0    0.39    0.51
  -2  26   0   55.85    3.98
   2 -26   0   54.88    5.09
   2 -26   0   46.63    2.29
  -1  25   0    0.24    1.25
   1 -25   0    1.98    1.04
   1 -25   0    0.36    0.55
   0  24   0    0.58    1.34
   0 -24   0    0.26    1.69
   0 -24   0    1.15    0.59
   1  23   0    3.84    1.92
  -1 -23   0    0.04    0.53
  -1 -23   0    0.54    0.89
   2  22   0    1.87    1.56
  -2 -22   0    2.06    0.73
  -2 -22   0    3.39    1.22
   3  21   0   -0.18    1.36
  -3 -21   0   -0.67    0.97
  -3 -21   0   -0.68    0.66
   4  20   0   43.38    3.73
  -4 -20   0   41.54    2.85
  -4 -20   0   44.54    2.44
   5  19   0    0.73    1.11
  -5 -19   0   -0.49    0.70
  -5 -19   0   -0.02    0.77
   6  18   0   92.53    5.52
  -6 -18   0  100.28    4.57
  -6 -18   0   96.39    4.63
   7  17   0    0.73    1.89
  -7 -17   0    0.58    0.96
  -7 -17   0    0.15    0.75
   8  16   0  117.44    6.29
  -8 -16   0  117.72    5.05
  -8 -16   0  120.62    7.66
   9  15   0   -1.57    1.98
  -9 -15   0   -0.21    1.96
  -9 -15   0   -0.78    0.75
  10  14   0   39.63    3.19
 -10 -14   0   41.75    3.34
 -10 -14   0   37.25    2.11
  11  13   0    0.71    0.96
 -11 -13   0   -1.69    1.26
  12  12   0   43.44    3.15
 -12 -12   0   46.08    4.00
  13  11   0   -0.43    0.95
 -13 -11   0    0.06    1.38
  14  10   0  252.83   12.51
 -14 -10   0  248.10   12.02
  15   9   0   -0.79    1.07
 -15  -9   0   -1.54    2.56
  16   8   0  224.47    9.14
 -16  -8   0  225.25   10.85
  17   7   0   -0.04    0.90
 -17  -7   0   -1.50    1.48
  18   6   0   21.73    1.98
 -18  -6   0   25.43    3.04
 -19  -5   0   -1.34    1.63
 -20  -4   0   44.04    4.19
 -21  -3   0   -1.03    2.43
 -22  -2   0    1.24    1.53
 -23  -1   0    1.39    1.43
 -24   0   0    0.84    1.31
 -25   1   0    1.20    0.47
 -25   1   0    0.76    1.38
 -26   2   0   32.79    1.51
 -26   2   0   27.54    3.18
 -27   3   0   -0.27    0.71
 -27   3   0   -0.31    1.31
 -27   3   0   -0.80    0.87
 -28   4   0    1.49    1.95
 -28   4   0    6.61    1.07
 -28   4   0    4.14    1.93
 -29   5   0   -0.50    0.65
 -29   5   0    1.25    1.17
 -29   5   0   -0.16    0.81
 -30   6   0   20.23    3.13
 -30   6   0   23.49    2.27
 -31   7   0   -2.06    1.48
 -31   7   0   -0.17    1.06
 -32   8   0    1.72    1.31
 -32   8   0    4.31    1.83
  -6  32   0   -0.80    1.64
   6 -32   0    0.19    1.25
  -5  31   0    0.40    1.64
   5 -31   0    0.13    1.08
   5 -31   0   -0.13    0.47
  -4  30   0    0.46    2.17
   4 -30   0    1.49    0.99
   4 -30   0    0.15    2.13
  -3  29   0    0.28    1.88
   3 -29   0    0.24    1.17
   3 -29   0    0.37    0.85
  -2  28   0   -0.25    2.38
   2 -28   0    0.15    1.42
   2 -28   0    3.03    1.05
  -1  27   0    1.06    1.76
   1 -27   0   -0.06    1.05
   1 -27   0    0.32    0.87
   0  26   0   16.31    2.51
   0 -26   0   17.82    2.28
   0 -26   0   19.68    1.93
   1  25   0    0.83    1.31
  -1 -25   0    0.65    0.97
  -1 -25   0    1.59    1.73
   2  24   0   17.04    2.40
  -2 -24   0   16.62    2.07
  -2 -24   0   14.91    1.26
   3  23   0    0.88    1.14
  -3 -23   0   -0.27    1.42
  -3 -23   0    0.04    0.55
   4  22   0   16.93    3.93
  -4 -22   0   17.75    1.52
  -4 -22   0   16.39    2.00
   5  21   0   -1.55    1.26
  -5 -21   0   -1.50    0.90
  -5 -21   0    0.97    0.70
   6  20   0   30.46    3.28
  -6 -20   0   29.86    2.45
  -6 -20   0   29.36    2.28
   7  19   0    1.22    1.19
  -7 -19   0   -0.49    0.82
  -7 -19   0   -0.52    0.85
   8  18   0  143.96    7.63
  -8 -18   0  143.24    6.20
  -8 -18   0  154.43    7.34
   9  17   0   -0.68    2.19
  -9 -17   0    0.71    1.99
  -9 -17   0    1.17    0.86
  10  16   0   29.40    3.00
 -10 -16   0   28.90    3.01
 -10 -16   0   30.11    2.01
  11  15   0    1.30    1.87
 -11 -15   0    0.00    1.25
 -11 -15   0    0.22    0.68
  12  14   0   80.70    4.73
 -12 -14   0   80.78    5.51
  13  13   0   -0.21    1.85
 -13 -13   0    1.58    2.45
  14  12   0   38.95    3.21
 -14 -12   0   47.52    4.36
  15  11   0    1.14    1.92
 -15 -11   0    0.86    2.76
  16  10   0  191.19    8.50
 -16 -10   0  179.20   10.10
  17   9   0   -1.25    1.07
 -17  -9   0   -0.81    2.74
  18   8   0   66.89    3.97
 -18  -8   0   71.51    5.37
  19   7   0   -0.18    0.78
 -19  -7   0    0.44    1.26
  20   6   0    0.50    0.95
 -20  -6   0   -1.06    2.40
 -21  -5   0    2.29    1.90
 -22  -4   0   19.94    3.10
 -23  -3   0    0.24    1.33
 -24  -2   0   39.91    5.57
 -25  -1   0    0.67    2.09
 -26   0   0   17.51    2.59
 -27   1   0   -0.05    0.42
 -27   1   0    2.71    1.21
 -28   2   0   24.45    1.28
 -28   2   0   21.19    2.11
 -28   2   0   23.08    2.99
 -29   3   0    3.37    1.35
 -29   3   0    0.78    0.45
 -29   3   0   -1.74    0.91
 -30   4   0    5.65    1.97
 -30   4   0    4.41    1.34
 -31   5   0    0.03    1.28
 -31   5   0   -0.40    1.42
 -32   6   0   -1.61    2.83
 -32   6   0    2.56    1.27
  -5  33   0   -0.14    1.05
   5 -33   0    0.30    0.51
  -4  32   0    0.70    1.57
   4 -32   0   -0.24    1.74
   4 -32   0    3.50    0.77
  -3  31   0    0.05    1.07
   3 -31   0    0.11    0.52
   3 -31   0    0.24    1.80
  -2  30   0   13.97    2.24
   2 -30   0   10.02    1.15
   2 -30   0   15.64    2.27
  -1  29   0   -0.89    1.25
   1 -29   0    0.89    0.61
   1 -29   0   -0.03    1.21
   0  28   0    1.26    1.52
   0 -28   0    2.15    0.74
   0 -28   0   -0.15    1.37
   1  27   0   -1.54    2.14
  -1 -27   0   -0.76    0.69
  -1 -27   0   -0.68    1.16
   2  26   0   27.61    4.51
  -2 -26   0   28.15    1.91
  -2 -26   0   33.09    4.10
   3  25   0    0.00    1.18
  -3 -25   0   -0.97    1.03
  -3 -25   0    0.14    1.00
   4  24   0   48.71    3.84
  -4 -24   0   46.27    4.65
  -4 -24   0   46.12    3.48
   5  23   0    0.24    1.21
  -5 -23   0    0.36    1.15
  -5 -23   0    0.57    0.99
   6  22   0  144.27   10.25
  -6 -22   0  149.21    6.43
  -6 -22   0  143.08    6.93
   7  21   0   -2.92    1.45
  -7 -21   0   -1.34    1.01
  -7 -21   0    0.18    0.94
   8  20   0   36.79    3.72
  -8 -20   0   41.61    3.02
  -8 -20   0   36.67    2.77
   9  19   0    1.85    2.53
  -9 -19   0    1.45    1.30
  -9 -19   0    0.79    0.99
  10  18   0    0.54    1.58
 -10 -18   0    1.15    2.37
 -10 -18   0    2.95    1.07
  11  17   0   -2.44    1.47
 -11 -17   0   -0.78    1.46
 -11 -17   0   -0.37    1.45
  12  16   0    3.69    1.63
 -12 -16   0    6.29    1.94
 -12 -16   0    2.56    1.07
  13  15   0   -0.33    1.32
 -13 -15   0    1.87    2.59
 -13 -15   0   -1.09    0.75
  14  14   0    2.83    1.22
 -14 -14   0   -3.53    1.73
  15  13   0    0.79    1.22
 -15 -13   0    0.73    1.85
  16  12   0  112.61    6.06
 -16 -12   0  123.80    8.03
  17  11   0    0.81    1.00
 -17 -11   0   -2.40    1.57
  18  10   0  118.96    5.95
 -18 -10   0  122.07    8.14
  19   9   0    0.68    1.18
 -19  -9   0    3.10    2.79
  20   8   0    0.76    1.18
 -20  -8   0    2.56    1.90
  21   7   0    0.59    1.10
 -21  -7   0    1.60    1.79
 -22  -6   0   91.17    8.95
 -23  -5   0   -0.88    1.53
 -24  -4   0  129.56    7.59
 -25  -3   0   -0.98    1.53
 -26  -2   0   47.18    4.26
 -27  -1   0    1.78    1.73
 -28   0   0    2.61    1.85
 -28   0   0    2.44    0.92
 -29   1   0   -0.19    0.78
 -29   1   0    0.82    1.31
 -29   1   0    0.17    0.64
 -30   2   0   -0.28    0.79
 -30   2   0    3.93    1.10
 -30   2   0    3.04    1.74
 -31   3   0   -0.08    0.86
 -31   3   0    0.34    1.32
 -32   4   0    3.48    1.31
 -32   4   0    0.47    2.00
 -33   5   0    0.06    1.07
 -33   5   0    1.50    1.63
  -3  33   0   -0.43    0.99
   3 -33   0    0.20    1.18
   3 -33   0    0.23    0.79
  -2  32   0   -0.09    1.36
   2 -32   0    0.08    1.59
   2 -32   0    2.41    1.12
  -1  31   0    0.21    1.13
   1 -31   0   -0.53    0.93
   1 -31   0   -0.26    1.29
   0  30   0   15.91    2.05
   0 -30   0   -0.08    3.36
   0 -30   0    9.08    1.18
   1  29   0    0.75    0.98
  -1 -29   0    0.09    0.96
  -1 -29   0   -0.31    0.57
   2  28   0   25.16    2.73
  -2 -28   0   19.09    1.69
  -2 -28   0   18.43    2.66
   3  27   0    0.30    1.18
  -3 -27   0    0.15    0.68
  -3 -27   0    0.13    1.10
   4  26   0  117.61    6.79
  -4 -26   0  109.81    6.11
  -4 -26   0  109.18    5.10
   5  25   0   -0.47    1.97
  -5 -25   0    1.04    1.59
  -5 -25   0   -0.48    0.73
   6  24   0   60.97    4.27
  -6 -24   0   62.27    3.88
  -6 -24   0   61.41    4.46
   7  23   0    1.14    1.25
  -7 -23   0    0.34    0.86
  -7 -23   0    0.44    1.04
   8  22   0   -0.44    1.50
  -8 -22   0    2.73    1.08
  -8 -22   0    1.33    1.12
   9  21   0   -0.59    1.99
  -9 -21   0   -0.32    1.07
  -9 -21   0    1.51    0.94
  10  20   0   47.72    4.15
 -10 -20   0   47.29    4.34
 -10 -20   0   58.91    4.10
  11  19   0    1.58    1.55
 -11 -19   0    1.90    1.06
 -11 -19   0    0.93    2.48
  12  18   0   -0.29    1.20
 -12 -18   0    1.28    1.26
 -12 -18   0   -0.39    1.35
  13  17   0    0.95    1.41
 -13 -17   0    1.45    1.79
 -13 -17   0    0.95    0.91
  14  16   0   84.26    7.32
 -14 -16   0   87.78    6.45
 -14 -16   0   88.42    4.16
  15  15   0    2.06    1.38
 -15 -15   0   -0.68    2.02
  16  14   0    0.58    1.87
 -16 -14   0   -0.26    2.87
  17  13   0   -2.15    1.50
 -17 -13   0   -1.36    2.25
  18  12   0  159.91    7.88
 -18 -12   0  168.71   14.33
  19  11   0    0.57    1.00
 -19 -11   0   -1.09    1.60
  20  10   0   67.66    4.25
 -20 -10   0   73.38    6.23
  21   9   0   -0.86    1.16
 -21  -9   0   -2.41    2.87
  22   8   0    1.66    1.22
 -22  -8   0    1.67    1.90
 -23  -7   0   -0.42    1.57
 -24  -6   0   65.77    5.47
 -25  -5   0   -0.86    2.68
 -26  -4   0   45.58    6.49
 -27  -3   0    0.76    1.57
 -28  -2   0    1.94    1.78
 -29  -1   0   -0.63    1.43
 -29  -1   0   -0.20    0.44
 -30   0   0    8.32    0.78
 -30   0   0    0.73    1.36
 -30   0   0    9.93    2.34
 -31   1   0   -0.66    1.04
 -31   1   0    3.86    1.61
 -32   2   0    2.77    2.12
 -32   2   0    4.32    2.19
 -33   3   0   -0.49    1.17
 -33   3   0   -1.47    1.82
  -1  33   0   -0.74    1.71
   1 -33   0    0.23    0.58
   1 -33   0   -0.23    1.27
   0  32   0    0.30    1.85
   0 -32   0    0.10    1.33
   1  31   0   -0.26    1.83
  -1 -31   0    0.26    1.92
  -1 -31   0    0.26    0.67
   2  30   0   -0.31    2.34
  -2 -30   0    3.18    1.48
  -2 -30   0    1.16    1.36
  -3 -29   0    0.22    1.01
  -3 -29   0   -0.47    1.07
   4  28   0    2.62    2.71
  -4 -28   0    4.17    1.08
  -4 -28   0    3.49    1.62
   5  27   0    1.54    1.43
  -5 -27   0    1.68    1.26
  -5 -27   0    0.74    0.92
   6  26   0    5.67    1.90
  -6 -26   0    7.47    1.36
  -6 -26   0    4.48    2.64
   7  25   0   -0.67    1.26
  -7 -25   0    0.17    1.05
  -7 -25   0   -0.71    0.88
   8  24   0   75.60    7.32
  -8 -24   0   80.59    5.60
  -8 -24   0   75.39    4.56
   9  23   0   -2.30    1.42
  -9 -23   0   -0.42    1.80
  -9 -23   0   -1.26    1.15
  10  22   0    3.62    1.86
 -10 -22   0    5.02    1.41
 -10 -22   0    6.66    1.53
  11  21   0   -0.75    1.04
 -11 -21   0   -1.16    1.16
 -11 -21   0    1.53    0.99
  12  20   0   38.93    3.32
 -12 -20   0   35.70    2.70
 -12 -20   0   37.37    3.52
  13  19   0   -2.41    1.26
 -13 -19   0   -0.48    0.88
 -13 -19   0    2.28    1.50
  14  18   0   82.51    7.18
 -14 -18   0   80.51    4.07
 -14 -18   0   84.33    8.79
  15  17   0   -0.03    1.37
 -15 -17   0   -1.45    0.89
 -15 -17   0   -2.07    1.78
  16  16   0   11.53    1.97
 -16 -16   0    4.99    1.19
 -16 -16   0    7.50    2.78
  17  15   0   -1.39    1.33
 -17 -15   0   -1.77    2.05
  18  14   0   23.54    2.49
 -18 -14   0   13.68    3.77
  19  13   0    0.52    1.91
 -19 -13   0    1.66    2.04
  20  12   0   56.22    3.67
 -20 -12   0   57.07    8.37
  21  11   0   -0.94    1.97
 -21 -11   0   -2.18    2.03
  22  10   0    0.94    1.20
 -22 -10   0    1.20    1.93
  23   9   0   -0.71    1.07
 -23  -9   0    1.01    2.80
 -24  -8   0    8.83    2.67
 -25  -7   0   -3.22    2.12
 -26  -6   0    8.24    2.72
 -27  -5   0   -0.92    1.75
 -28  -4   0   28.30    3.79
 -29  -3   0    0.10    2.34
 -30  -2   0   11.15    4.68
 -31  -1   0   -1.17    2.89
 -32   0   0    6.06    1.57
 -32   0   0    6.64    4.09
 -33   1   0   -0.55    2.68
 -33   1   0    0.43    1.03
   1  33   0    2.12    1.24
  -1 -33   0   -0.15    0.69
  -1 -33   0    0.01    1.42
   2  32   0    3.33    1.54
  -2 -32   0    1.55    0.93
  -2 -32   0    0.46    2.71
   3  31   0    1.14    1.23
  -3 -31   0    0.32    0.74
  -3 -31   0   -0.66    1.25
   4  30   0    5.95    1.74
  -4 -30   0    1.81    1.71
  -4 -30   0    3.06    1.70
   5  29   0   -2.09    1.46
  -5 -29   0   -1.80    1.49
  -5 -29   0    1.23    2.21
   6  28   0   29.67    3.36
  -6 -28   0   31.76    3.14
  -6 -28   0   29.90    2.49
   7  27   0    1.47    2.38
  -7 -27   0    0.79    1.08
  -7 -27   0    1.77    1.36
   8  26   0   21.80    2.68
  -8 -26   0   17.76    2.44
  -8 -26   0   19.56    2.26
   9  25   0    3.07    1.32
  -9 -25   0   -1.70    1.09
  -9 -25   0    0.56    1.59
  10  24   0  120.99    7.05
 -10 -24   0  116.45    8.14
 -10 -24   0  120.53    6.68
  11  23   0    1.44    1.84
 -11 -23   0    0.24    1.08
 -11 -23   0   -0.32    0.92
  12  22   0   32.59    3.32
 -12 -22   0   34.05    2.71
 -12 -22   0   35.16    5.02
  13  21   0   -2.67    1.37
 -13 -21   0   -0.51    1.04
 -13 -21   0    0.06    1.49
  14  20   0   69.11    4.99
 -14 -20   0   68.13    3.88
 -14 -20   0   76.47    5.75
  15  19   0    0.76    1.16
 -15 -19   0   -0.50    1.24
 -15 -19   0   -1.26    1.46
  16  18   0   20.48    2.73
 -16 -18   0   27.15    3.70
 -16 -18   0   23.43    1.93
  17  17   0   -0.16    1.92
 -17 -17   0    0.39    0.77
 -17 -17   0    2.54    2.75
  18  16   0    0.94    1.20
 -18 -16   0    0.13    0.76
 -18 -16   0    2.50    1.83
  19  15   0   -1.22    1.49
 -19 -15   0   -4.98    2.21
  20  14   0    7.17    1.77
 -20 -14   0    8.27    2.93
  21  13   0   -1.01    1.16
 -21 -13   0    0.96    1.91
  22  12   0    2.96    2.12
 -22 -12   0   -0.60    3.76
  23  11   0    0.48    1.00
 -23 -11   0   -0.96    1.71
 -24 -10   0   21.41    3.94
 -25  -9   0   -0.81    2.02
 -26  -8   0   47.18    8.03
 -27  -7   0    0.07    1.50
 -28  -6   0    9.24    2.87
 -29  -5   0   -2.22    2.14
 -30  -4   0   -0.99    1.97
 -31  -3   0   -1.24    2.05
 -32  -2   0    6.77    2.94
 -33  -1   0   -0.98    1.17
 -33  -1   0   -0.95    2.17
   3  33   0    2.69    2.25
  -3 -33   0   -0.48    2.54
  -3 -33   0    0.80    0.90
   4  32   0   -1.01    2.31
  -4 -32   0    0.81    1.55
  -4 -32   0    1.48    0.93
   5  31   0   -2.13    2.18
  -5 -31   0   -2.00    1.45
  -5 -31   0   -0.39    0.96
   6  30   0   22.88    2.91
  -6 -30   0   22.25    3.23
  -6 -30   0   22.08    4.39
   7  29   0   -1.71    1.19
  -7 -29   0    0.94    1.18
  -7 -29   0   -0.06    0.92
   8  28   0   57.34    4.53
  -8 -28   0   62.88    4.05
  -8 -28   0   51.99    4.33
   9  27   0    1.47    1.48
  -9 -27   0    0.86    1.30
  -9 -27   0    1.96    1.26
  10  26   0   12.13    2.40
 -10 -26   0   12.00    3.28
 -10 -26   0   14.12    2.13
  11  25   0   -2.60    2.17
 -11 -25   0   -0.39    1.19
 -11 -25   0   -1.17    1.30
  12  24   0    0.65    1.30
 -12 -24   0   -0.63    1.27
 -12 -24   0    0.89    1.02
  13  23   0    3.00    1.54
 -13 -23   0    1.46    1.17
 -13 -23   0   -1.10    2.50
  14  22   0   50.67    4.31
 -14 -22   0   53.05    4.80
 -14 -22   0   53.82    4.70
  15  21   0    1.11    1.41
 -15 -21   0    1.65    1.05
 -15 -21   0   -1.17    1.92
  16  20   0   67.57    4.82
 -16 -20   0   60.91    3.74
 -16 -20   0   70.65    5.98
  17  19   0    1.06    1.29
 -17 -19   0    0.68    1.87
 -17 -19   0   -0.50    1.34
  18  18   0   49.95    3.80
 -18 -18   0   44.77    2.89
 -18 -18   0   48.12    5.33
  19  17   0   -0.39    1.32
 -19 -17   0   -0.96    0.84
 -19 -17   0    0.02    2.11
  20  16   0    4.00    1.98
 -20 -16   0   -0.57    2.08
 -20 -16   0    0.13    0.77
  21  15   0    0.82    1.23
 -21 -15   0   -0.02    3.43
  22  14   0   -0.92    1.22
 -22 -14   0    0.36    2.17
  23  13   0    1.05    1.21
 -23 -13   0   -0.27    2.22
  24  12   0   18.25    2.72
 -24 -12   0   39.00    6.79
 -25 -11   0   -3.01    2.54
 -26 -10   0   40.55    5.20
 -27  -9   0   -0.74    2.09
 -28  -8   0    7.88    3.13
 -29  -7   0   -2.63    4.01
 -30  -6   0    5.37    4.28
 -31  -5   0    0.68    2.02
 -32  -4   0    7.60    3.13
 -33  -3   0   -0.09    1.88
   5  33   0   -0.82    1.34
  -5 -33   0    1.10    0.90
   6  32   0    1.33    1.48
  -6 -32   0    1.56    1.55
  -6 -32   0    0.62    1.05
   7  31   0    1.06    1.43
  -7 -31   0    0.72    1.57
  -7 -31   0   -0.47    2.21
   8  30   0    7.22    2.23
  -8 -30   0    8.91    2.19
  -8 -30   0    9.80    2.65
   9  29   0    1.37    2.21
  -9 -29   0   -0.55    1.18
  -9 -29   0    2.22    1.33
  10  28   0    0.69    1.96
 -10 -28   0    0.03    1.13
 -10 -28   0   -2.46    1.87
  11  27   0    2.06    1.27
 -11 -27   0   -0.65    1.16
 -11 -27   0   -0.14    1.92
  12  26   0   25.93    3.21
 -12 -26   0   30.20    3.28
 -12 -26   0   25.81    2.82
  13  25   0   -2.70    1.47
 -13 -25   0   -0.34    1.84
 -13 -25   0    0.29    1.52
  14  24   0   15.33    4.10
 -14 -24   0   18.91    2.83
 -14 -24   0   13.73    2.12
  15  23   0    0.19    1.43
 -15 -23   0    0.70    1.12
 -15 -23   0    3.02    1.78
  16  22   0   36.15    3.74
 -16 -22   0   38.81    4.17
 -16 -22   0   55.82    7.00
  17  21   0    0.21    1.31
 -17 -21   0   -0.60    1.82
 -17 -21   0    0.66    0.91
  18  20   0    8.88    2.20
 -18 -20   0   12.23    5.19
 -18 -20   0   10.55    1.60
  19  19   0    1.76    1.35
 -19 -19   0   -0.02    2.15
 -19 -19   0   -0.18    1.46
  20  18   0   54.74    4.30
 -20 -18   0   56.01    3.30
 -20 -18   0   67.07    6.42
  21  17   0   -0.06    1.02
 -21 -17   0    0.12    0.70
 -21 -17   0   -0.28    1.87
 -22 -16   0    0.35    2.52
 -22 -16   0   -1.27    0.89
  23  15   0   -1.08    2.01
 -23 -15   0   -0.10    3.77
  24  14   0    0.07    1.06
 -24 -14   0   -0.11    1.83
  25  13   0   -0.07    1.12
 -25 -13   0   -0.11    1.93
 -26 -12   0    2.56    2.85
 -27 -11   0    4.16    4.55
 -28 -10   0   18.75    4.24
 -29  -9   0   -1.09    2.39
 -30  -8   0   19.15    4.49
 -31  -7   0   -4.21    3.05
 -32  -6   0   13.37    4.23
 -33  -5   0    0.28    2.33
   8  32   0    3.54    2.38
  -8 -32   0    2.42    2.60
  -8 -32   0    0.55    1.24
   9  31   0    0.01    1.27
  -9 -31   0    0.89    1.30
  -9 -31   0   -0.15    1.64
  10  30   0   14.20    2.67
 -10 -30   0   17.33    2.63
 -10 -30   0   16.19    2.46
  11  29   0    0.14    1.38
 -11 -29   0    1.08    2.04
 -11 -29   0    0.82    1.28
  12  28   0   -0.14    1.20
 -12 -28   0    0.28    1.07
 -12 -28   0    0.06    1.81
  13  27   0    0.08    1.35
 -13 -27   0   -0.36    1.46
 -13 -27   0   -0.98    1.19
  14  26   0    0.03    2.69
 -14 -26   0    0.07    3.13
 -14 -26   0    7.40    2.31
  15  25   0    0.03    1.34
 -15 -25   0    0.48    1.58
 -15 -25   0   -1.27    1.06
  16  24   0    0.09    2.20
 -16 -24   0   16.95    2.88
 -16 -24   0   10.64    1.75
  17  23   0    0.24    1.33
 -17 -23   0    0.37    0.95
 -17 -23   0   -3.51    1.74
  18  22   0    0.08    3.38
 -18 -22   0   16.21    3.49
 -18 -22   0   10.97    1.72
  19  21   0   -0.37    1.22
 -19 -21   0   -0.02    0.85
 -19 -21   0    3.03    1.92
  20  20   0   26.82    3.22
 -20 -20   0   27.95    2.41
 -20 -20   0   31.69    5.16
  21  19   0   -0.15    2.05
 -21 -19   0    1.14    1.44
 -21 -19   0    0.08    2.29
  22  18   0   -0.17    1.19
 -22 -18   0    0.30    3.21
  23  17   0   -0.47    1.37
 -23 -17   0   -1.01    0.86
 -23 -17   0    0.66    2.49
  24  16   0    0.35    2.37
 -24 -16   0    0.81    2.80
 -24 -16   0    1.96    0.98
  25  15   0    0.83    1.44
 -25 -15   0    1.84    0.88
 -25 -15   0    0.33    4.36
  26  14   0    0.70    1.42
 -26 -14   0   -0.15    2.50
 -27 -13   0   -0.67    2.57
 -28 -12   0   11.01    4.30
 -29 -11   0   -1.29    2.84
 -30 -10   0   27.22    8.42
 -31  -9   0   -2.27    3.01
 -32  -8   0   10.07    4.35
  11  31   0   -0.16    1.55
 -11 -31   0   -1.24    1.40
 -11 -31   0   -1.08    1.47
  12  30   0    0.01    2.69
 -12 -30   0   -0.16    1.65
 -12 -30   0    4.36    1.59
  13  29   0    0.07    2.03
 -13 -29   0   -1.37    1.89
 -13 -29   0    0.24    1.36
  14  28   0    0.12    1.27
 -14 -28   0    0.13    1.50
  15  27   0    0.06    1.25
 -15 -27   0    0.09    1.07
 -15 -27   0    0.61    2.33
  16  26   0   -0.05    1.32
 -16 -26   0   -0.72    1.62
 -16 -26   0    0.07    1.62
  17  25   0    0.19    1.33
 -17 -25   0    1.99    2.78
 -17 -25   0    0.14    1.05
  18  24   0    0.11    2.28
 -18 -24   0    3.56    2.14
 -18 -24   0    0.33    1.15
  19  23   0   -0.65    1.46
 -19 -23   0   -2.37    3.63
 -19 -23   0   -0.98    1.68
  20  22   0   -0.24    1.74
 -20 -22   0    2.99    1.28
 -20 -22   0    7.59    2.87
  21  21   0    1.04    1.86
 -21 -21   0    2.52    3.07
 -21 -21   0   -0.47    0.82
  22  20   0   -0.94    1.44
 -22 -20   0    0.59    2.54
  23  19   0   -0.53    1.32
 -23 -19   0    0.22    2.36
 -23 -19   0   -0.71    1.37
  24  18   0    0.73    2.17
 -24 -18   0   -0.42    4.08
  25  17   0    0.32    1.31
 -25 -17   0   -0.52    2.50
 -25 -17   0    0.51    0.84
  26  16   0   26.95    3.44
 -26 -16   0   29.30    2.23
 -26 -16   0   41.03    6.27
 -27 -15   0   -0.20    4.50
 -27 -15   0    0.68    0.82
 -28 -14   0   -2.25    2.94
 -28 -14   0   -0.57    0.79
 -29 -13   0   -2.79    3.46
 -30 -12   0   25.81    6.32
 -31 -11   0   -0.36    2.82
  14  30   0   -0.27    1.34
 -14 -30   0    0.54    1.90
 -14 -30   0   -0.51    1.42
  15  29   0    0.12    1.40
 -15 -29   0    0.14    1.63
 -15 -29   0    0.46    1.23
 -16 -28   0   -0.15    1.25
 -16 -28   0   -0.27    1.70
  17  27   0    0.22    2.29
 -17 -27   0    0.32    1.91
 -17 -27   0    0.46    1.19
  18  26   0    0.08    1.23
 -18 -26   0   -0.66    2.87
 -18 -26   0   -0.42    1.67
  19  25   0    0.03    1.37
 -19 -25   0    1.66    2.05
 -19 -25   0    0.05    1.06
  20  24   0   14.25    2.60
 -20 -24   0   10.74    4.08
  21  23   0   -0.06    2.30
 -21 -23   0    0.37    1.63
 -21 -23   0   -3.50    2.54
  22  22   0   28.18    3.15
 -22 -22   0   20.50    2.43
 -22 -22   0   28.91    5.53
  23  21   0    0.13    1.43
 -23 -21   0    0.18    4.18
 -23 -21   0   -0.87    0.96
  24  20   0    0.26    1.37
 -24 -20   0   -0.07    2.58
  25  19   0   -0.12    1.27
 -25 -19   0    0.28    0.81
 -25 -19   0   -0.47    2.41
  26  18   0   -0.09    1.69
 -26 -18   0    3.86    1.70
 -26 -18   0   -0.08    5.32
  27  17   0    0.45    1.47
 -27 -17   0   -0.35    2.85
 -27 -17   0    0.50    0.87
 -28 -16   0   -0.37    4.79
 -28 -16   0    8.84    1.43
 -29 -15   0    0.54    3.25
 -29 -15   0    1.12    0.89
 -30 -14   0    8.67    7.83
 -30 -14   0    8.79    1.33
  18  28   0    0.18    2.21
 -18 -28   0    0.66    1.91
 -18 -28   0   24.82    3.14
  19  27   0    0.13    1.35
 -19 -27   0   -0.33    1.91
 -19 -27   0    0.26    1.10
  20  26   0   19.29    3.21
 -20 -26   0   18.17    3.99
 -20 -26   0   29.43    5.25
  21  25   0   -0.26    2.39
 -21 -25   0   -0.26    1.14
 -21 -25   0   -1.24    2.43
  22  24   0   23.76    3.47
 -22 -24   0   26.76    2.78
 -22 -24   0   42.50    9.35
  23  23   0    0.30    1.48
 -23 -23   0    3.63    2.79
 -23 -23   0    0.14    1.10
  24  22   0   17.70    3.30
 -24 -22   0   22.99    3.47
 -24 -22   0   27.40    6.07
  25  21   0   -0.29    1.95
 -25 -21   0    0.51    2.46
 -25 -21   0    0.01    0.84
  26  20   0    0.00    1.95
 -26 -20   0    0.07    3.72
 -26 -20   0    3.72    1.21
  27  19   0    0.58    1.39
 -27 -19   0   -0.30    2.72
 -27 -19   0    0.06    0.86
 -28 -18   0    0.99    0.99
 -28 -18   0   -0.49    5.37
 -28 -17  -1    0.86    5.69
  28  17   1    1.32    1.84
 -27 -18  -1    0.77    3.33
  27  18   1    0.98    1.75
 -26 -19  -1    9.58    4.04
  26  19   1   -0.43    3.27
 -25 -20  -1   -0.56    4.60
  25  20   1    0.54    1.73
 -24 -21  -1   26.22    4.43
  24  21   1    0.56    2.67
 -23 -22  -1   18.99    3.83
 -23 -22  -1    0.87    1.61
  23  22   1    1.14    3.60
 -22 -23  -1    2.58    3.58
 -22 -23  -1    0.17    1.07
  22  23   1   -0.61    1.53
 -21 -24  -1   -0.47    1.47
 -21 -24  -1   11.62    2.86
  21  24   1   -0.48    2.07
 -20 -25  -1   -1.58    2.44
 -20 -25  -1   -0.20    2.00
  20  25   1   -0.34    1.77
 -19 -26  -1    7.45    2.81
 -19 -26  -1    0.85    1.55
  19  26   1    1.37    3.52
 -18 -27  -1    1.72    1.53
 -18 -27  -1    3.95    2.46
  18  27   1   -0.61    2.15
 -17 -28  -1   -1.71    3.10
  17  28   1   -0.24    1.90
 -30 -13  -1    8.34    3.79
  30  13   1    0.79    1.91
 -29 -14  -1    0.71    2.75
  29  14   1   -0.03    1.37
 -28 -15  -1    6.24    3.66
  28  15   1   -0.20    2.88
 -27 -16  -1    2.24    3.12
  27  16   1    0.55    1.61
 -26 -17  -1    0.44    4.26
  26  17   1   -0.26    1.36
 -25 -18  -1   12.32    3.64
  25  18   1    0.02    2.08
 -24 -19  -1    3.96    2.46
  24  19   1   -1.13    1.39
 -23 -20  -1   -0.93    4.53
  23  20   1   -0.74    1.64
 -22 -21  -1   14.94    3.48
  22  21   1   -1.01    2.25
 -21 -22  -1    5.02    2.66
 -21 -22  -1    0.13    1.21
  21  22   1    0.81    1.74
 -20 -23  -1    6.03    2.44
 -20 -23  -1   -0.20    1.21
  20  23   1   -0.03    1.74
 -19 -24  -1   -0.24    1.22
 -19 -24  -1   -1.70    2.17
  19  24   1   -0.33    2.71
 -18 -25  -1    4.63    2.76
 -18 -25  -1    0.36    1.62
  18  25   1   -1.46    1.44
 -17 -26  -1    1.06    2.22
 -17 -26  -1    1.61    1.37
  17  26   1    0.28    1.87
 -16 -27  -1    1.19    1.29
 -16 -27  -1    0.88    2.98
  16  27   1   -0.44    1.72
 -15 -28  -1    1.54    1.94
  15  28   1    0.03    3.18
 -14 -29  -1    0.46    2.59
 -14 -29  -1    1.32    1.45
  14  29   1   -0.09    1.95
 -13 -30  -1   -1.49    1.36
 -13 -30  -1    0.94    1.30
  13  30   1    0.01    1.67
 -31 -10  -1    2.89    3.73
 -30 -11  -1   21.93    6.04
 -29 -12  -1    0.97    2.84
  29  12   1    0.43    1.46
 -28 -13  -1   -0.28    4.58
  28  13   1    0.97    1.53
 -27 -14  -1    8.95    3.20
  27  14   1   -0.07    1.75
 -26 -15  -1    8.43    2.89
  26  15   1   -0.95    1.52
 -25 -16  -1    5.14    3.26
  25  16   1   -0.32    2.80
 -24 -17  -1    3.48    2.91
  24  17   1    0.76    1.74
 -23 -18  -1    2.59    2.64
  23  18   1   -0.13    1.53
 -22 -19  -1    8.65    3.08
  22  19   1   -0.22    1.97
 -21 -20  -1   -0.94    2.29
  21  20   1   -0.28    1.61
 -20 -21  -1    4.52    2.63
  20  21   1    0.22    1.83
 -19 -22  -1    0.81    2.75
 -19 -22  -1    0.14    0.85
  19  22   1   -0.47    1.30
 -18 -23  -1    2.14    1.25
 -18 -23  -1    0.65    2.26
  18  23   1    0.51    1.86
 -17 -24  -1    1.80    1.21
 -17 -24  -1   -0.46    2.07
  17  24   1   -0.27    1.73
 -16 -25  -1    0.57    1.61
 -16 -25  -1   -0.38    1.55
  16  25   1    0.20    2.39
 -15 -26  -1    1.84    1.34
 -15 -26  -1    0.38    1.90
  15  26   1    0.48    1.91
 -14 -27  -1    3.87    1.74
 -14 -27  -1    7.41    2.16
  14  27   1   -0.14    2.35
 -13 -28  -1    3.55    1.54
 -13 -28  -1   -0.04    2.78
  13  28   1    0.02    2.02
 -12 -29  -1   -1.05    1.37
 -12 -29  -1   -0.25    1.38
  12  29   1    0.03    2.83
 -11 -30  -1   -0.07    1.73
 -11 -30  -1    0.22    1.24
  11  30   1   -0.04    2.55
 -10 -31  -1   -1.14    1.21
 -10 -31  -1    0.53    1.40
  10  31   1    0.09    1.79
 -32  -7  -1   -4.16    5.88
 -31  -8  -1   11.96    7.29
 -30  -9  -1    4.59    3.59
 -29 -10  -1   12.94    4.47
 -28 -11  -1    5.98    2.88
  28  11   1    0.30    1.53
 -27 -12  -1    0.63    2.41
  27  12   1    0.14    2.00
 -26 -13  -1    3.72    4.31
  26  13   1    1.06    1.49
 -25 -14  -1    3.18    2.61
  25  14   1    0.30    1.47
 -24 -15  -1    4.07    2.66
  24  15   1   -0.15    1.55
 -23 -16  -1    0.16    3.87
  23  16   1    0.70    1.46
 -22 -17  -1    1.63    2.38
  22  17   1    0.32    2.56
 -21 -18  -1   11.39    3.09
  21  18   1    0.92    2.13
 -20 -19  -1   20.21    6.54
  20  19   1   15.48    2.90
 -19 -20  -1   13.60    3.07
  19  20   1    0.23    2.41
 -18 -21  -1    3.24    2.37
  18  21   1    0.23    1.82
 -17 -22  -1   -1.03    0.93
 -17 -22  -1    2.24    1.64
  17  22   1    0.32    1.37
 -16 -23  -1   14.71    2.91
 -16 -23  -1    8.90    1.82
  16  23   1    1.43    2.71
 -15 -24  -1    3.48    1.44
 -15 -24  -1    3.78    2.06
  15  24   1    0.02    2.14
 -14 -25  -1    2.26    1.78
 -14 -25  -1    1.70    1.33
  14  25   1   -0.48    1.84
 -13 -26  -1    0.49    1.27
 -13 -26  -1    0.89    1.50
  13  26   1    1.48    2.71
 -12 -27  -1    0.13    2.50
 -12 -27  -1    4.98    2.29
  12  27   1    0.01    2.11
 -11 -28  -1    3.16    1.56
 -11 -28  -1    2.15    1.52
  11  28   1   -0.12    2.03
 -10 -29  -1    4.75    2.54
 -10 -29  -1    4.51    1.82
  10  29   1    0.23    2.39
  -9 -30  -1    1.34    1.29
   9  30   1    0.14    1.93
  -8 -31  -1    0.16    1.07
  -8 -31  -1    0.92    1.40
   8  31   1    0.09    1.73
  -7 -32  -1    0.11    1.62
  -7 -32  -1    0.92    1.52
   7  32   1   -0.10    2.78
 -32  -5  -1    1.36    2.77
 -31  -6  -1    2.53    3.04
 -30  -7  -1    4.46    3.29
 -29  -8  -1    0.92    3.85
 -28  -9  -1    7.98    2.80
  28   9   1    0.30    1.61
 -27 -10  -1    8.74    2.93
  27  10   1    0.46    1.64
 -26 -11  -1    6.56    2.67
  26  11   1   -0.12    1.50
 -25 -12  -1   -0.19    1.98
  25  12   1    0.20    1.12
 -24 -13  -1    0.17    2.96
  24  13   1   -0.03    1.71
 -23 -14  -1   -1.46    2.06
  23  14   1    0.29    1.27
 -22 -15  -1    0.59    2.08
  22  15   1   -0.90    2.01
 -21 -16  -1   10.99    5.08
  21  16   1    5.68    2.16
 -20 -17  -1   15.56    3.82
  20  17   1   10.95    2.66
 -19 -18  -1   13.78    3.60
  19  18   1    8.26    2.63
 -18 -19  -1    8.71    3.03
  18  19   1    7.26    2.44
 -17 -20  -1   19.78    3.49
  17  20   1    9.39    2.78
 -16 -21  -1   15.97    3.23
  16  21   1   15.98    3.17
 -15 -22  -1   23.30    2.42
 -15 -22  -1   27.47    3.80
  15  22   1   14.13    3.58
 -14 -23  -1    8.42    2.14
 -14 -23  -1    4.38    1.60
  14  23   1    1.76    2.31
 -13 -24  -1    6.02    2.48
 -13 -24  -1    3.03    2.17
  13  24   1    7.41    2.54
 -12 -25  -1    3.37    1.78
 -12 -25  -1    3.64    1.53
  12  25   1    3.49    2.24
 -11 -26  -1    0.47    2.03
 -11 -26  -1    0.04    1.23
  11  26   1    1.67    1.73
 -10 -27  -1    0.14    1.21
 -10 -27  -1    0.91    1.20
  10  27   1    0.26    1.65
  -9 -28  -1    6.41    2.50
  -9 -28  -1    4.28    1.77
  -8 -29  -1    1.35    2.75
  -8 -29  -1    2.83    1.49
   8  29   1    8.36    2.33
  -7 -30  -1    3.85    2.02
  -7 -30  -1    6.62    1.51
   7  30   1    2.87    2.54
  -6 -31  -1   -0.18    1.53
  -6 -31  -1    1.17    1.41
   6  31   1    0.51    1.81
  -5 -32  -1   -1.19    1.25
  -5 -32  -1   -0.02    0.82
   5  32   1    2.06    1.49
 -32  -3  -1    7.89    3.55
 -31  -4  -1   -0.64    2.33
 -30  -5  -1   -0.60    2.19
 -29  -6  -1    1.63    2.45
 -28  -7  -1    2.69    2.65
 -27  -8  -1   -1.46    2.04
  27   8   1    0.83    1.13
 -26  -9  -1   11.42    5.90
  26   9   1   12.38    2.05
 -25 -10  -1   23.48    4.09
  25  10   1   13.01    2.39
 -24 -11  -1    3.20    2.52
  24  11   1    1.31    1.43
 -23 -12  -1   16.63    3.51
  23  12   1    6.24    2.25
 -22 -13  -1    0.80    2.21
  22  13   1    1.26    1.47
 -21 -14  -1    9.93    3.23
  21  14   1    7.29    2.26
 -20 -15  -1   -0.20    2.44
  20  15   1    2.05    1.58
 -19 -16  -1   -0.91    2.03
  19  16   1    2.80    2.42
 -18 -17  -1    0.78    1.58
  18  17   1   -0.42    1.18
 -17 -18  -1   17.40    4.68
  17  18   1    8.41    2.53
 -16 -19  -1    1.82    2.10
  16  19   1    2.28    1.93
 -15 -20  -1   23.77    5.26
  15  20   1   21.76    3.44
 -14 -21  -1   25.93    3.57
  14  21   1   27.82    5.51
 -13 -22  -1   14.61    2.49
 -13 -22  -1   12.18    1.94
  13  22   1    8.95    2.94
 -12 -23  -1   -0.26    1.10
 -12 -23  -1    3.18    1.35
  12  23   1   -1.71    1.64
 -11 -24  -1   10.20    2.15
 -11 -24  -1   12.26    2.04
  11  24   1    8.77    2.86
 -10 -25  -1   19.38    2.53
 -10 -25  -1   22.00    3.68
  10  25   1   20.36    5.49
  -9 -26  -1    7.01    2.86
  -9 -26  -1    6.59    1.83
   9  26   1    9.00    2.71
  -8 -27  -1    3.03    1.63
  -8 -27  -1    3.85    2.15
   8  27   1    3.63    2.28
  -7 -28  -1   12.40    2.26
  -7 -28  -1   11.94    1.90
   7  28   1    9.88    2.91
  -6 -29  -1    8.83    2.21
  -6 -29  -1   10.07    1.64
   6  29   1    7.56    2.73
  -5 -30  -1    6.36    2.24
  -5 -30  -1    7.33    2.19
   5  30   1   12.13    4.02
  -4 -31  -1   -0.44    0.92
  -4 -31  -1   -0.96    2.10
   4  31   1    1.02    2.72
  -3 -32  -1    2.72    1.40
  -3 -32  -1    0.34    0.87
   3  32   1   -3.10    1.85
  -2 -33  -1   -0.08    0.87
   2  33   1    3.84    1.85
 -33   0  -1    1.08    2.25
 -32  -1  -1    4.47    4.29
 -31  -2  -1    1.36    3.52
 -30  -3  -1    1.58    3.43
 -29  -4  -1    9.36    5.08
 -28  -5  -1    5.44    2.79
 -27  -6  -1    3.89    2.65
 -26  -7  -1    9.55    2.75
  26   7   1    2.70    1.64
 -25  -8  -1    4.98    2.91
  25   8   1    6.66    2.69
 -24  -9  -1   11.44    5.15
  24   9   1    9.76    1.98
 -23 -10  -1    3.62    2.47
  23  10   1    1.34    2.23
 -22 -11  -1    1.66    2.25
  22  11   1    1.18    1.39
 -21 -12  -1    0.61    1.94
  21  12   1    0.34    1.95
 -20 -13  -1   -0.73    1.80
  20  13   1    0.71    1.23
 -19 -14  -1    0.42    1.61
  19  14   1   -0.12    1.11
 -18 -15  -1    3.64    3.70
  18  15   1    2.93    1.89
 -17 -16  -1   -2.64    1.85
  17  16   1    0.37    1.48
 -16 -17  -1   13.10    4.71
  16  17   1   12.18    2.83
 -15 -18  -1   11.94    2.87
  15  18   1   14.00    2.77
 -14 -19  -1   78.71    8.08
  14  19   1   72.48    8.21
 -13 -20  -1   20.09    3.00
  13  20   1   22.50    3.46
 -12 -21  -1   -0.29    2.36
 -12 -21  -1    1.16    1.15
  12  21   1    4.15    1.87
 -11 -22  -1   11.40    1.81
 -11 -22  -1    8.07    2.06
  11  22   1   11.08    4.54
 -10 -23  -1    0.73    1.20
 -10 -23  -1    1.87    1.88
  10  23   1    1.14    1.85
  -9 -24  -1   30.18    2.82
  -9 -24  -1   29.99    4.05
   9  24   1   29.58    4.01
  -8 -25  -1   17.42    2.14
  -8 -25  -1   18.72    2.38
   8  25   1   16.34    3.35
  -7 -26  -1    9.63    1.70
  -7 -26  -1   11.01    2.07
   7  26   1   12.09    4.67
  -6 -27  -1   20.89    2.63
  -6 -27  -1   20.37    3.16
   6  27   1   22.83    3.74
  -5 -28  -1    2.40    1.08
  -5 -28  -1    1.42    1.48
   5  28   1    0.66    1.97
  -4 -29  -1    0.06    1.35
  -4 -29  -1    1.20    0.88
   4  29   1   -0.29    1.80
  -3 -30  -1    0.75    1.27
  -3 -30  -1   -0.44    1.94
   3  30   1   -1.68    1.56
  -2 -31  -1    0.59    0.88
  -2 -31  -1    1.13    1.44
   2  31   1    0.94    1.77
  -1 -32  -1    0.04    0.75
  -1 -32  -1   -0.06    1.30
   1  32   1   -1.77    1.61
   0 -33  -1    3.27    0.97
   0 -33  -1    0.08    1.76
   0  33   1    1.21    2.17
 -33   2  -1    0.30    0.98
 -32   1  -1   -2.23    2.31
 -31   0  -1    8.06    2.92
 -30  -1  -1    0.14    1.58
 -29  -2  -1    2.90    2.19
 -28  -3  -1   -0.31    1.68
 -27  -4  -1    5.03    3.87
 -26  -5  -1   14.57    5.40
 -25  -6  -1    1.76    1.92
  25   6   1    0.39    1.13
 -24  -7  -1   18.42    3.57
  24   7   1   17.43    3.26
 -23  -8  -1    1.57    2.09
  23   8   1    1.18    1.22
 -22  -9  -1    4.05    3.84
  22   9   1    3.37    2.43
 -21 -10  -1    6.98    2.90
  21  10   1    8.59    1.90
 -20 -11  -1   21.79    3.90
  20  11   1   18.94    2.68
 -19 -12  -1   19.68    5.74
  19  12   1   16.93    2.70
 -18 -13  -1   40.82    5.08
  18  13   1   43.75    4.08
 -17 -14  -1    4.13    2.38
  17  14   1    1.83    1.90
 -16 -15  -1   -2.40    2.01
  16  15   1   -1.64    1.83
 -15 -16  -1   11.73    2.93
  15  16   1   10.07    2.62
 -14 -17  -1   14.43    2.98
  14  17   1   20.82    4.92
 -13 -18  -1   13.63    4.18
  13  18   1   15.66    3.10
 -12 -19  -1    0.20    1.31
  12  19   1    0.68    1.61
 -11 -20  -1    4.12    1.72
  11  20   1    5.23    2.28
 -10 -21  -1    7.26    1.82
 -10 -21  -1    8.03    1.61
  10  21   1    4.65    2.51
  -9 -22  -1    2.77    1.32
  -9 -22  -1    3.24    1.28
   9  22   1    1.24    2.03
  -8 -23  -1   28.02    2.63
   8  23   1   32.26    6.22
  -7 -24  -1   -0.04    1.03
  -7 -24  -1    0.55    0.83
   7  24   1   -0.84    1.55
  -6 -25  -1    1.66    1.18
  -6 -25  -1    1.16    0.97
   6  25   1   -1.73    1.82
  -5 -26  -1   20.85    2.71
  -5 -26  -1   17.38    2.41
   5  26   1   16.15    3.37
  -4 -27  -1    5.22    2.39
  -4 -27  -1    2.19    1.09
   4  27   1    0.56    3.22
  -3 -28  -1    4.82    1.21
  -3 -28  -1    7.24    1.77
   3  28   1    2.11    3.92
  -2 -29  -1   -0.17    2.11
  -2 -29  -1    1.24    0.85
   2  29   1    0.01    1.87
  -1 -30  -1    1.83    1.61
  -1 -30  -1    4.09    1.67
   1  30   1    4.57    2.20
   0 -31  -1    8.72    2.16
   0  31   1    9.95    2.82
   1 -32  -1   -0.11    1.16
   1 -32  -1   -0.11    0.66
  -1  32   1    0.39    1.51
   2 -33  -1    0.86    0.78
  -2  33   1    0.26    1.84
 -32   3  -1    0.14    1.53
 -32   3  -1   -0.15    0.85
 -31   2  -1    2.98    2.26
 -30   1  -1    5.27    2.21
 -30   1  -1    2.83    0.90
 -29   0  -1   -2.10    2.04
 -28  -1  -1    0.94    1.77
 -27  -2  -1    5.84    2.45
 -26  -3  -1   21.72    3.54
 -25  -4  -1   49.52    4.74
 -24  -5  -1   21.09    5.21
  24   5   1   21.15    2.26
 -23  -6  -1   18.91    3.38
  23   6   1   18.47    3.24
 -22  -7  -1    0.35    1.97
  22   7   1    1.79    1.18
 -21  -8  -1   -0.24    2.04
  21   8   1    1.86    1.28
 -20  -9  -1    6.62    3.81
  20   9   1    2.19    1.50
 -19 -10  -1   40.36    5.13
  19  10   1   39.88    3.68
 -18 -11  -1  117.16    8.56
  18  11   1  107.85    6.46
 -17 -12  -1   50.96    5.35
  17  12   1   48.19    4.57
 -16 -13  -1    3.91    2.33
  16  13   1    1.40    3.09
 -15 -14  -1    3.63    2.21
  15  14   1    3.04    2.01
 -14 -15  -1    1.75    2.12
  14  15   1    4.97    3.14
 -13 -16  -1    3.41    1.79
  13  16   1    1.01    2.05
 -12 -17  -1    4.63    2.88
  12  17   1    2.20    2.16
 -11 -18  -1   41.87    3.61
  11  18   1   29.53    4.42
 -10 -19  -1    0.83    1.41
  10  19   1    5.69    2.16
  -9 -20  -1   25.17    2.48
  -9 -20  -1   35.74    2.87
   9  20   1   34.83    6.68
  -8 -21  -1    2.04    1.08
  -8 -21  -1   -0.13    1.07
   8  21   1    1.37    1.84
  -7 -22  -1   33.50    4.03
  -7 -22  -1   38.01    3.74
   7  22   1   35.52    4.14
  -6 -23  -1   28.87    2.29
  -6 -23  -1   28.85    2.59
   6  23   1   22.57    5.66
  -5 -24  -1   30.07    2.35
  -5 -24  -1   31.71    4.07
   5  24   1   40.04    4.31
  -4 -25  -1   21.75    1.84
  -4 -25  -1   21.91    2.48
   4  25   1   17.91    3.62
  -3 -26  -1   13.61    2.27
  -3 -26  -1   12.89    3.32
   3  26   1   17.22    3.22
  -2 -27  -1    9.32    1.95
  -2 -27  -1    7.68    1.31
   2  27   1    9.72    2.72
  -1 -28  -1    4.77    2.51
  -1 -28  -1    3.70    1.08
   1  28   1    4.97    3.45
   0 -29  -1    2.01    1.11
   0 -29  -1   -0.25    0.68
   0  29   1   -2.67    2.36
   1 -30  -1    0.02    1.23
   1 -30  -1   -2.18    1.28
  -1  30   1    0.09    2.74
   2 -31  -1    0.16    1.16
   2 -31  -1    0.11    0.68
  -2  31   1    1.31    2.38
   3 -32  -1   -0.23    1.67
   3 -32  -1    3.62    0.92
  -3  32   1   -0.54    3.26
 -32   5  -1    0.02    2.33
 -32   5  -1   -0.25    1.38
 -31   4  -1    0.13    0.90
 -31   4  -1    2.42    2.40
 -30   3  -1    1.64    2.67
 -30   3  -1    1.33    0.79
 -29   2  -1   -0.40    0.61
 -29   2  -1    2.47    2.11
 -28   1  -1    3.13    3.03
 -27   0  -1    2.47    3.07
 -26  -1  -1    4.54    2.16
 -25  -2  -1   26.07    3.50
 -24  -3  -1   21.18    3.17
 -23  -4  -1   32.95    3.80
  23   4   1   29.69    2.52
 -22  -5  -1   11.07    4.21
  22   5   1    9.75    2.64
 -21  -6  -1   12.22    3.10
  21   6   1   12.26    1.89
 -20  -7  -1    2.99    2.44
  20   7   1    3.96    1.53
 -19  -8  -1   -1.40    1.57
  19   8   1    1.52    1.59
 -18  -9  -1   18.48    3.79
  18   9   1   20.17    2.61
 -17 -10  -1   32.90    4.26
  17  10   1   30.60    3.35
 -16 -11  -1   24.76    5.65
  16  11   1   21.61    3.01
 -15 -12  -1    0.97    2.12
  15  12   1    4.13    1.89
 -14 -13  -1    1.43    1.88
  14  13   1    2.56    1.78
 -13 -14  -1   -0.27    1.44
  13  14   1   -0.39    1.50
 -12 -15  -1   41.03    3.53
  12  15   1   27.38    3.90
 -11 -16  -1    2.15    1.95
  11  16   1   -1.00    1.60
 -10 -17  -1    8.01    1.83
  10  17   1    4.89    2.61
  -9 -18  -1   24.17    2.44
   9  18   1   15.04    3.82
  -8 -19  -1    5.70    2.42
   8  19   1    5.64    2.62
  -7 -20  -1    2.63    1.19
  -7 -20  -1    3.17    1.23
   7  20   1   -0.99    3.57
  -6 -21  -1    8.92    2.67
  -6 -21  -1   10.64    1.53
   6  21   1    9.17    2.93
  -5 -22  -1    5.64    1.60
  -5 -22  -1   11.15    1.91
   5  22   1    6.52    2.63
  -4 -23  -1    4.62    2.31
  -4 -23  -1    5.20    1.11
   4  23   1    5.35    2.29
  -3 -24  -1   28.00    2.53
  -3 -24  -1   23.73    1.83
   3  24   1   32.84    5.42
  -2 -25  -1   10.61    1.39
  -2 -25  -1   14.00    3.02
   2  25   1   15.73    2.80
  -1 -26  -1    1.91    1.07
  -1 -26  -1   -0.07    1.08
   1  26   1   -1.69    1.55
   0 -27  -1    2.19    1.99
   0 -27  -1    1.37    0.80
   0  27   1    0.50    1.78
   1 -28  -1    1.44    0.77
   1 -28  -1    0.58    1.28
  -1  28   1    1.58    1.75
   2 -29  -1    1.62    0.78
   2 -29  -1   -0.37    2.07
  -2  29   1    1.99    1.75
   3 -30  -1    1.54    1.13
   3 -30  -1    0.27    1.32
  -3  30   1    0.99    1.68
   4 -31  -1   -0.22    1.39
   4 -31  -1   -1.89    0.76
  -4  31   1    0.74    1.74
   5 -32  -1   -0.06    1.54
   5 -32  -1    2.13    0.79
  -5  32   1   -0.27    1.83
 -32   7  -1   -0.24    1.53
 -32   7  -1    1.04    1.44
 -31   6  -1    0.97    0.97
 -31   6  -1    0.53    1.60
 -30   5  -1    7.55    1.13
 -30   5  -1    6.88    1.38
 -30   5  -1    7.13    2.22
 -29   4  -1    1.95    1.19
 -29   4  -1    2.03    1.56
 -29   4  -1    0.63    0.93
 -28   3  -1    1.05    1.98
 -28   3  -1    6.27    1.42
 -27   2  -1    9.40    2.44
 -27   2  -1   11.75    1.28
 -26   1  -1    0.37    1.35
 -25   0  -1    0.80    1.49
 -24  -1  -1   -1.05    2.39
 -23  -2  -1   -0.48    1.46
 -22  -3  -1    1.20    1.70
  22   3   1    1.18    1.04
 -21  -4  -1    1.42    1.89
  21   4   1    1.86    1.14
 -20  -5  -1    9.97    4.22
  20   5   1    7.57    1.65
 -19  -6  -1    1.88    2.14
  19   6   1    2.49    1.36
 -18  -7  -1   -0.17    1.80
  18   7   1    1.48    1.85
 -17  -8  -1    9.57    4.82
  17   8   1   12.38    2.13
 -16  -9  -1   99.66    6.92
  16   9   1  103.69    5.88
 -15 -10  -1   70.18    8.49
  15  10   1   73.96    6.71
 -14 -11  -1   73.93    5.52
  14  11   1   71.87    5.09
 -13 -12  -1   34.66    5.01
  13  12   1   19.61    3.24
 -12 -13  -1   32.20    3.35
  12  13   1   29.01    3.60
 -11 -14  -1    4.61    1.71
  11  14   1    4.15    2.15
 -10 -15  -1   13.07    3.27
  10  15   1   11.20    2.74
  -9 -16  -1   19.78    2.38
   9  16   1   21.47    3.53
  -8 -17  -1   14.01    1.92
   8  17   1   12.78    3.02
  -7 -18  -1   60.27    4.81
   7  18   1   61.44    5.61
  -6 -19  -1    7.58    1.53
  -6 -19  -1    9.26    1.45
   6  19   1    5.33    2.82
  -5 -20  -1   12.43    1.97
  -5 -20  -1   20.78    1.77
   5  20   1   17.25    5.37
  -4 -21  -1   17.33    1.62
  -4 -21  -1   14.81    2.04
   4  21   1   18.83    3.28
  -3 -22  -1   16.97    2.93
  -3 -22  -1   14.10    2.06
   3  22   1   14.79    2.87
  -2 -23  -1    1.23    1.06
  -2 -23  -1    0.53    0.69
   2  23   1    1.44    1.59
  -1 -24  -1    2.31    0.81
  -1 -24  -1    2.72    1.99
   1  24   1    3.50    2.81
   0 -25  -1   -1.14    0.92
   0 -25  -1    0.42    0.55
   0  25   1   -2.41    1.98
   1 -26  -1    2.77    2.23
   1 -26  -1    3.23    0.87
  -1  26   1    4.18    1.88
   2 -27  -1    5.60    1.65
   2 -27  -1    5.23    1.50
  -2  27   1    5.19    2.06
   3 -28  -1    1.41    0.76
   3 -28  -1    0.77    1.94
  -3  28   1    1.63    1.59
   4 -29  -1    0.10    1.51
   4 -29  -1    4.31    0.90
  -4  29   1    4.04    1.91
   5 -30  -1   -0.02    2.20
   5 -30  -1    2.30    0.76
  -5  30   1    0.01    1.66
   6 -31  -1   -0.09    1.56
   6 -31  -1    4.58    1.25
  -6  31   1    0.10    1.79
   7 -32  -1    2.27    0.81
   7 -32  -1    0.19    1.53
  -7  32   1    0.13    1.69
 -31   8  -1    0.65    0.90
 -31   8  -1   -0.17    1.37
 -30   7  -1    3.79    1.86
 -30   7  -1    3.92    1.23
 -29   6  -1   13.89    1.92
 -29   6  -1    8.40    2.25
 -29   6  -1    8.44    2.35
 -28   5  -1    0.10    0.96
 -28   5  -1    2.77    0.81
 -28   5  -1    3.27    1.60
 -27   4  -1    3.73    1.85
 -27   4  -1    4.24    0.89
 -26   3  -1   15.40    1.36
 -26   3  -1   13.40    2.57
 -25   2  -1   19.38    2.72
 -24   1  -1    5.02    1.85
 -23   0  -1    2.42    1.65
 -22  -1  -1    2.28    1.70
 -21  -2  -1   15.37    4.58
  21   2   1   12.94    1.72
 -20  -3  -1    2.71    1.76
  20   3   1    0.75    1.09
 -19  -4  -1    0.47    1.44
  19   4   1    0.06    0.86
 -18  -5  -1   -2.73    2.00
  18   5   1    0.55    0.86
 -17  -6  -1   20.68    3.32
  17   6   1   19.52    2.31
 -16  -7  -1   48.06    4.53
  16   7   1   44.65    4.81
 -15  -8  -1   38.10    4.08
  15   8   1   36.78    3.22
 -14  -9  -1   85.32    6.02
  14   9   1   83.42    5.08
 -13 -10  -1   70.93    4.89
  13  10   1   64.41    6.56
 -12 -11  -1   -1.61    1.88
  12  11   1    0.74    1.18
 -11 -12  -1   37.01    3.35
  11  12   1   35.27    3.68
 -10 -13  -1   -0.63    1.13
  10  13   1   -0.76    1.43
  -9 -14  -1    1.43    2.00
   9  14   1    2.21    1.83
  -8 -15  -1    5.46    1.36
   8  15   1    1.43    2.10
  -7 -16  -1   45.54    2.83
   7  16   1   40.93    4.53
  -6 -17  -1   28.85    2.26
   6  17   1   31.87    3.81
  -5 -18  -1   21.06    1.89
  -5 -18  -1   25.41    2.66
   5  18   1   19.64    3.35
  -4 -19  -1   14.63    1.53
  -4 -19  -1   13.36    1.81
   4  19   1   17.24    3.06
  -3 -20  -1   36.22    2.21
  -3 -20  -1   36.55    2.70
   3  20   1   35.79    6.13
  -2 -21  -1    7.14    2.40
  -2 -21  -1    7.82    1.10
   2  21   1    7.47    2.30
  -1 -22  -1    7.25    1.45
  -1 -22  -1    4.72    0.94
   1  22   1    7.27    2.05
   0 -23  -1    2.50    1.12
   0 -23  -1   -0.53    1.79
   0  23   1    2.79    1.57
   1 -24  -1    0.58    1.09
   1 -24  -1    1.05    0.65
  -1  24   1    1.59    1.42
   2 -25  -1   21.90    3.46
   2 -25  -1   22.55    1.55
   3 -26  -1   19.10    1.52
   3 -26  -1   22.21    2.42
  -3  26   1   24.14    4.23
   4 -27  -1    4.63    1.39
   4 -27  -1    6.46    2.39
  -4  27   1    6.78    1.89
   5 -28  -1    0.07    1.33
   5 -28  -1    3.70    1.22
  -5  28   1    1.97    1.56
   6 -29  -1    0.11    1.68
   6 -29  -1   -0.65    0.58
  -6  29   1    1.26    1.19
   7 -30  -1    1.95    0.77
   7 -30  -1    0.38    1.46
  -7  30   1    4.20    2.46
   8 -31  -1    5.15    1.37
   8 -31  -1    0.16    2.60
  -8  31   1    2.69    2.95
 -31  10  -1   -1.09    1.36
 -31  10  -1   -0.33    0.92
 -30   9  -1    0.99    0.96
 -30   9  -1    1.89    2.31
 -29   8  -1    2.07    1.66
 -29   8  -1    3.35    0.92
 -29   8  -1    1.18    2.60
 -28   7  -1   11.71    3.51
 -28   7  -1   13.02    1.58
 -28   7  -1   12.97    1.31
 -27   6  -1   26.66    4.18
 -27   6  -1   24.35    1.98
 -27   6  -1   25.08    1.73
 -26   5  -1   18.49    4.00
 -26   5  -1   21.26    1.60
 -25   4  -1   25.91    2.37
 -25   4  -1   19.04    4.16
 -24   3  -1   29.13    4.58
 -23   2  -1    0.44    1.28
 -22   1  -1    6.72    2.03
 -21   0  -1   11.17    2.47
 -20  -1  -1    2.95    1.79
  20   1   1    3.13    1.14
 -19  -2  -1    0.04    2.62
  19   2   1    2.35    1.56
 -18  -3  -1    1.22    1.82
  18   3   1    3.33    1.08
 -17  -4  -1    3.26    1.82
  17   4   1    2.76    1.20
 -16  -5  -1    8.54    2.36
  16   5   1    9.23    1.68
 -15  -6  -1   43.83    3.96
  15   6   1   40.98    4.46
 -14  -7  -1   16.97    4.06
  14   7   1   14.70    1.99
 -13  -8  -1   49.73    3.98
  13   8   1   45.59    3.36
 -12  -9  -1   -0.56    1.17
  12   9   1    0.13    1.12
 -11 -10  -1    2.67    2.32
  11  10   1    2.65    2.41
 -10 -11  -1   19.75    2.23
  10  11   1   14.76    2.43
  -9 -12  -1   60.75    3.65
   9  12   1   62.14    4.50
  -8 -13  -1   64.85    3.48
   8  13   1   60.14    4.58
  -7 -14  -1    9.39    2.36
   7  14   1   12.69    2.41
  -6 -15  -1   58.14    3.08
   6  15   1   54.75    6.77
  -5 -16  -1   19.10    1.64
   5  16   1   17.47    2.89
  -4 -17  -1    1.04    0.77
  -4 -17  -1    0.24    0.87
   4  17   1    3.97    2.45
  -3 -18  -1    6.64    1.05
  -3 -18  -1    8.32    1.35
   3  18   1    4.17    2.09
  -2 -19  -1   56.50    3.61
  -2 -19  -1   55.48    3.17
   2  19   1   51.00    4.40
  -1 -20  -1    0.78    0.69
  -1 -20  -1    1.24    1.54
   0 -21  -1   14.06    1.87
   0 -21  -1   14.80    1.30
   0  21   1   17.76    2.42
   1 -22  -1    2.84    0.80
   1 -22  -1    5.50    1.92
  -1  22   1    3.48    1.61
   2 -23  -1    0.21    0.53
   2 -23  -1   -0.40    0.91
  -2  23   1    1.47    1.08
   3 -24  -1   12.75    2.02
   3 -24  -1   15.90    1.72
  -3  24   1   13.03    2.25
   4 -25  -1   52.21    3.48
   4 -25  -1   43.53    2.28
  -4  25   1   52.72    5.21
   5 -26  -1   12.33    1.18
   5 -26  -1   14.06    1.93
  -5  26   1   11.51    3.31
   6 -27  -1    3.92    0.79
   6 -27  -1    2.62    1.38
  -6  27   1    4.85    2.50
   7 -28  -1   -0.25    1.06
   7 -28  -1    0.82    0.88
  -7  28   1    0.26    1.85
   8 -29  -1    0.22    1.07
   8 -29  -1   -0.56    0.59
  -8  29   1    0.46    1.84
   9 -30  -1    2.56    0.81
   9 -30  -1   -0.13    1.52
  -9  30   1    4.56    1.65
  10 -31  -1    4.66    0.90
  10 -31  -1    0.75    1.66
 -10  31   1    5.31    1.88
 -30  11  -1    2.64    1.99
 -30  11  -1    0.36    0.90
 -29  10  -1    4.96    1.78
 -29  10  -1    4.11    1.69
 -28   9  -1    3.05    1.55
 -28   9  -1    4.01    0.95
 -28   9  -1    2.58    1.06
 -27   8  -1    3.63    0.99
 -27   8  -1    1.29    1.52
 -27   8  -1    3.25    0.91
 -26   7  -1    8.29    2.01
 -26   7  -1   10.60    1.95
 -26   7  -1   11.40    1.77
 -25   6  -1    1.12    0.94
 -25   6  -1    0.21    0.58
 -25   6  -1   -0.52    0.54
 -24   5  -1   41.32    2.10
 -24   5  -1   29.21    3.09
 -23   4  -1    7.47    1.04
 -23   4  -1    9.54    1.81
 -22   3  -1   15.64    2.35
 -21   2  -1    8.38    3.28
 -20   1  -1    1.02    1.45
 -19   0  -1   15.40    2.50
  19   0   1   15.51    1.59
 -18  -1  -1    3.01    1.73
  18   1   1    4.88    1.71
 -17  -2  -1   10.67    3.59
  17   2   1    9.77    1.36
 -16  -3  -1   23.58    2.88
  16   3   1   23.26    2.05
 -15  -4  -1   12.24    2.20
  15   4   1   12.68    1.64
 -14  -5  -1   27.42    2.91
  14   5   1   24.68    2.21
 -13  -6  -1    3.13    2.67
  13   6   1    3.64    2.05
 -12  -7  -1   28.83    2.93
  12   7   1   28.45    2.49
 -11  -8  -1   36.59    3.04
  11   8   1   37.08    2.99
 -10  -9  -1   12.27    2.96
  10   9   1   10.10    1.96
  -9 -10  -1    0.46    1.14
   9  10   1    1.28    1.26
  -8 -11  -1   77.23    3.92
   8  11   1   73.10    4.56
  -7 -12  -1    1.07    0.86
   7  12   1    0.68    1.38
  -6 -13  -1   12.16    1.41
   6  13   1   12.67    2.24
  -5 -14  -1    4.73    1.57
   5  14   1    6.44    1.82
  -4 -15  -1    3.17    1.28
   4  15   1    2.21    1.53
  -3 -16  -1   -0.59    0.87
  -3 -16  -1    2.87    0.77
   3  16   1    2.41    1.41
  -2 -17  -1   24.90    1.62
  -2 -17  -1   23.80    1.86
   2  17   1   19.93    2.58
  -1 -18  -1  105.73    4.77
  -1 -18  -1  103.69    4.13
   1  18   1  107.65    5.71
   0 -19  -1   21.41    2.72
   0 -19  -1   17.23    1.31
   0  19   1   15.61    2.39
   1 -20  -1    3.64    1.14
   1 -20  -1    2.31    1.14
  -1  20   1    3.16    2.27
   2 -21  -1   17.28    1.90
   2 -21  -1   16.69    1.73
  -2  21   1   16.86    2.17
   3 -22  -1    1.57    0.60
   3 -22  -1    0.06    1.00
  -3  22   1    1.42    1.13
   4 -23  -1   29.30    2.47
   4 -23  -1   27.80    1.63
  -4  23   1   34.18    2.70
   5 -24  -1   17.69    1.32
   5 -24  -1   18.02    2.01
  -5  24   1   16.35    2.18
   6 -25  -1    1.16    0.94
   6 -25  -1    1.42    1.08
  -6  25   1    0.89    1.19
   7 -26  -1    4.03    1.40
   7 -26  -1    4.16    0.83
  -7  26   1    4.66    1.50
   8 -27  -1    1.02    1.13
   8 -27  -1    0.96    0.63
  -8  27   1    1.51    1.19
   9 -28  -1    2.63    0.76
   9 -28  -1    0.25    1.36
  -9  28   1    4.12    1.44
  10 -29  -1    6.00    1.40
  10 -29  -1    1.42    1.67
 -10  29   1    9.40    1.78
  11 -30  -1   15.57    2.12
  11 -30  -1   11.41    1.23
 -11  30   1   11.70    2.14
 -30  13  -1    1.25    1.33
 -30  13  -1    0.89    0.96
 -29  12  -1    0.61    1.27
 -29  12  -1    1.17    1.40
 -28  11  -1    1.85    0.83
 -28  11  -1    1.34    1.31
 -28  11  -1    1.34    0.91
 -27  10  -1    0.05    1.12
 -27  10  -1    1.07    1.10
 -27  10  -1    0.50    0.74
 -26   9  -1    7.19    1.60
 -26   9  -1    4.39    1.62
 -26   9  -1    4.23    1.67
 -25   8  -1   15.67    1.44
 -25   8  -1   16.59    1.53
 -25   8  -1   17.66    2.24
 -24   7  -1    1.46    0.67
 -24   7  -1    0.70    1.17
 -24   7  -1    0.40    0.72
 -23   6  -1   35.53    2.61
 -23   6  -1   25.86    2.73
 -22   5  -1    6.08    1.48
 -22   5  -1    5.46    1.67
 -21   4  -1   16.34    2.33
 -20   3  -1   36.24    3.25
 -19   2  -1   52.88    3.80
 -18   1  -1  111.22    8.18
 -17   0  -1   69.53    4.28
  17   0   1   65.03    3.00
 -16  -1  -1    3.41    1.54
  16   1   1    4.30    0.98
 -15  -2  -1   20.18    2.43
  15   2   1   19.10    1.61
 -14  -3  -1    9.36    1.75
  14   3   1    6.59    1.27
 -13  -4  -1   23.20    2.54
  13   4   1   23.13    1.92
 -12  -5  -1    2.17    1.53
  12   5   1    3.57    1.20
 -11  -6  -1  140.04    6.52
  11   6   1  134.63    6.04
 -10  -7  -1    0.46    0.97
  10   7   1   -0.57    1.53
  -9  -8  -1  115.21    7.14
   9   8   1  112.14    5.38
  -8  -9  -1    5.11    1.44
   8   9   1    2.80    1.53
  -7 -10  -1  204.70    8.19
   7  10   1  208.55    9.44
  -6 -11  -1  139.28    5.53
   6  11   1  130.62    6.48
  -5 -12  -1  130.39    5.06
   5  12   1  129.93    8.34
  -4 -13  -1    1.69    0.65
   4  13   1   -0.69    1.13
  -3 -14  -1    3.63    0.78
   3  14   1    2.39    2.12
  -2 -15  -1    1.20    0.62
  -2 -15  -1    0.93    0.76
   2  15   1    2.18    1.11
  -1 -16  -1   14.80    1.46
  -1 -16  -1   15.69    1.15
   1  16   1   12.82    2.78
   0 -17  -1   65.58    3.52
   0 -17  -1   69.17    3.34
   0  17   1   69.57    3.78
   1 -18  -1    4.71    1.77
   1 -18  -1    4.39    0.77
  -1  18   1    4.33    1.37
   2 -19  -1    1.06    0.64
   2 -19  -1    2.50    0.98
  -2  19   1    3.62    1.66
   3 -20  -1    1.99    0.64
   3 -20  -1    1.38    1.04
  -3  20   1    2.47    1.07
   4 -21  -1    0.86    0.59
   4 -21  -1    2.15    1.00
  -4  21   1    1.19    1.03
   5 -22  -1    7.36    0.96
   5 -22  -1   11.13    1.52
  -5  22   1   12.34    1.53
   6 -23  -1   16.96    2.67
   6 -23  -1   14.57    1.65
  -6  23   1   14.10    1.84
   7 -24  -1   13.66    1.17
   7 -24  -1   15.66    1.77
  -7  24   1   15.95    1.84
   8 -25  -1    3.79    0.82
   8 -25  -1    6.08    2.08
  -8  25   1    6.63    1.40
   9 -26  -1    6.44    1.50
   9 -26  -1    3.98    1.30
  -9  26   1    7.23    1.50
  10 -27  -1    5.57    0.87
  10 -27  -1   -0.13    2.24
 -10  27   1    5.45    1.49
  11 -28  -1    0.38    1.13
  11 -28  -1    0.50    0.63
 -11  28   1    2.90    1.15
  12 -29  -1   -0.35    2.08
  12 -29  -1    1.54    1.18
 -12  29   1    3.96    1.34
  13 -30  -1    4.88    0.90
  13 -30  -1    0.17    1.58
 -13  30   1    7.34    2.45
 -29  14  -1    0.27    1.25
 -29  14  -1    1.82    0.93
 -29  14  -1    0.10    1.31
 -28  13  -1    0.78    0.91
 -28  13  -1    2.18    1.21
 -27  12  -1    3.23    1.53
 -27  12  -1    5.70    1.57
 -27  12  -1    2.24    2.29
 -26  11  -1    0.22    0.64
 -26  11  -1   -0.94    1.47
 -26  11  -1   -0.36    0.63
 -25  10  -1   18.56    1.59
 -25  10  -1   19.66    1.59
 -25  10  -1   13.94    3.03
 -24   9  -1   36.10    2.82
 -24   9  -1   30.77    2.71
 -24   9  -1   31.93    3.87
 -23   8  -1   37.16    2.71
 -23   8  -1   32.55    3.81
 -23   8  -1   31.91    1.88
 -22   7  -1   35.80    1.96
 -22   7  -1   34.74    1.94
 -22   7  -1   35.83    3.90
 -21   6  -1   12.28    1.23
 -21   6  -1   10.70    2.93
 -20   5  -1   23.19    3.75
 -20   5  -1   21.53    1.54
 -19   4  -1   15.58    2.15
 -18   3  -1   10.40    1.82
 -17   2  -1   21.11    2.25
 -16   1  -1   11.26    3.06
  16  -1   1   14.03    1.25
 -15   0  -1   42.84    2.93
  15   0   1   40.25    2.01
 -14  -1  -1  100.44    4.79
  14   1   1  107.57    4.06
 -13  -2  -1    1.60    1.26
  13   2   1    2.35    0.88
 -12  -3  -1   13.47    3.09
  12   3   1   11.84    1.43
 -11  -4  -1    3.87    1.41
  11   4   1    3.07    1.13
 -10  -5  -1   11.23    1.87
  10   5   1   11.97    1.61
  -9  -6  -1   75.91    3.88
   9   6   1   73.38    3.87
  -8  -7  -1   38.14    2.48
   8   7   1   38.44    2.86
  -7  -8  -1    7.90    2.06
   7   8   1    7.51    1.69
  -6  -9  -1   66.61    3.99
   6   9   1   63.04    3.84
  -5 -10  -1  109.12    5.18
   5  10   1   97.36    6.61
  -4 -11  -1   76.25    3.85
   4  11   1   69.15    3.92
  -3 -12  -1   13.91    1.68
   3  12   1   12.81    1.76
  -2 -13  -1   35.64    1.78
   2  13   1   34.67    3.42
  -1 -14  -1   14.80    1.09
   1  14   1   14.84    1.60
   0 -15  -1   42.52    2.21
   0 -15  -1   44.40    1.95
   0  15   1   42.01    3.39
   1 -16  -1    4.39    0.71
   1 -16  -1    5.47    0.99
  -1  16   1    3.10    1.06
   2 -17  -1    8.37    1.27
   2 -17  -1    7.55    0.92
  -2  17   1   10.76    1.29
   3 -18  -1    2.34    0.63
   3 -18  -1    2.32    0.96
  -3  18   1    1.30    1.50
   4 -19  -1   -0.20    0.74
   4 -19  -1    0.26    0.45
  -4  19   1    0.14    0.70
   5 -20  -1   13.57    2.23
   5 -20  -1    9.07    1.32
  -5  20   1    8.61    1.38
   6 -21  -1    9.29    1.45
   6 -21  -1   10.40    0.99
  -6  21   1   12.11    1.43
   7 -22  -1    0.63    0.87
   7 -22  -1    1.03    0.56
  -7  22   1    1.07    0.88
   8 -23  -1    1.94    0.61
   8 -23  -1    0.69    0.99
  -8  23   1    1.99    0.97
   9 -24  -1    8.92    1.57
  -9  24   1    9.38    1.49
  10 -25  -1   13.45    1.17
  10 -25  -1   15.01    1.77
 -10  25   1   13.45    1.81
  11 -26  -1    3.34    1.27
  11 -26  -1    3.42    0.77
 -11  26   1    2.42    1.27
  12 -27  -1   -0.09    0.78
  12 -27  -1    0.02    0.83
 -12  27   1   -0.17    0.87
  13 -28  -1   -0.13    1.04
  13 -28  -1    1.04    0.63
 -13  28   1    1.59    1.70
  14 -29  -1    0.39    1.05
  14 -29  -1    0.06    0.63
 -14  29   1    2.48    1.66
 -28  15  -1    2.65    0.98
 -28  15  -1    1.74    1.57
 -28  15  -1    3.06    2.10
 -27  14  -1    7.34    1.18
 -27  14  -1    2.34    2.23
 -26  13  -1    1.37    0.75
 -26  13  -1   -0.32    0.74
 -26  13  -1    1.51    0.96
 -25  12  -1    3.32    1.26
 -25  12  -1    2.81    0.93
 -25  12  -1    3.77    1.34
 -24  11  -1   14.13    1.28
 -24  11  -1   14.21    1.82
 -24  11  -1   14.52    2.06
 -23  10  -1    1.73    0.98
 -23  10  -1    0.67    0.74
 -23  10  -1    0.61    0.65
 -22   9  -1    0.63    0.76
 -22   9  -1    0.58    1.03
 -22   9  -1    2.79    0.69
 -21   8  -1   -0.02    0.96
 -21   8  -1    0.34    1.09
 -21   8  -1    2.37    0.98
 -20   7  -1    4.28    1.31
 -20   7  -1    3.16    0.75
 -20   7  -1    3.17    1.36
 -19   6  -1    9.65    1.53
 -19   6  -1    6.60    1.06
 -18   5  -1   18.34    2.04
 -18   5  -1   21.79    1.45
 -17   4  -1    2.32    1.95
 -16   3  -1    3.43    1.26
 -15   2  -1    2.67    1.06
  15  -2   1    1.40    0.66
 -14   1  -1   20.96    2.84
  14  -1   1   16.55    1.19
 -13   0  -1   91.97    4.26
  13   0   1   89.70    3.41
 -12  -1  -1   99.65    4.58
  12   1   1   91.63    3.60
 -11  -2  -1  110.99    4.93
  11   2   1  113.26    4.35
 -10  -3  -1   31.34    2.46
  10   3   1   33.32    2.06
  -9  -4  -1   13.20    1.75
   9   4   1   12.97    1.53
  -8  -5  -1  144.25    5.89
   8   5   1  138.73    7.25
  -7  -6  -1  158.32    6.18
   7   6   1  153.58    8.84
  -6  -7  -1    0.10    0.67
   6   7   1    0.75    1.58
  -5  -8  -1    0.01    0.56
   5   8   1    0.75    1.37
  -4  -9  -1  115.25    4.17
   4   9   1  111.89    6.31
  -3 -10  -1    5.81    0.81
   3  10   1    6.62    1.25
  -2 -11  -1   36.01    1.66
   2  11   1   35.89    2.19
  -1 -12  -1  168.17    5.57
   1  12   1  162.00    6.03
   0 -13  -1   92.11    3.24
   0  13   1   88.67    3.70
   1 -14  -1  104.14    3.92
   1 -14  -1  104.57    3.56
  -1  14   1  102.07    4.91
   2 -15  -1   19.07    1.41
   2 -15  -1   20.39    1.15
  -2  15   1   18.30    1.44
   3 -16  -1   23.31    1.31
   3 -16  -1   25.63    1.68
  -3  16   1   22.82    1.68
   4 -17  -1    4.24    1.40
   4 -17  -1    1.71    0.58
  -4  17   1    2.82    1.26
   5 -18  -1   -0.30    0.65
   5 -18  -1    0.28    0.64
  -5  18   1    0.26    0.59
   6 -19  -1    3.75    0.69
   6 -19  -1    3.10    1.06
  -6  19   1    4.10    0.96
   7 -20  -1    3.78    0.72
   7 -20  -1    3.24    1.76
  -7  20   1    4.90    1.04
   8 -21  -1    0.67    0.54
   8 -21  -1    0.61    0.80
  -8  21   1    0.30    0.75
   9 -22  -1    2.69    1.81
   9 -22  -1    5.12    1.16
  -9  22   1    5.55    1.13
  10 -23  -1    0.98    0.58
  10 -23  -1    2.04    0.92
 -10  23   1    1.19    0.88
  11 -24  -1    0.86    0.62
  11 -24  -1    1.20    0.95
 -11  24   1    1.64    0.97
  12 -25  -1    1.56    0.99
  12 -25  -1    0.90    0.99
 -12  25   1    1.21    1.00
  13 -26  -1    0.59    0.62
  13 -26  -1    1.36    0.97
 -13  26   1    1.95    1.57
  14 -27  -1    0.88    1.37
  14 -27  -1    6.04    0.90
 -14  27   1    6.06    2.22
  15 -28  -1    0.47    1.09
  15 -28  -1    1.21    0.71
 -15  28   1    1.74    1.18
 -28  17  -1    0.49    0.80
 -28  17  -1    1.74    1.52
 -28  17  -1    0.01    0.80
 -27  16  -1    0.34    0.65
 -27  16  -1   -0.60    0.67
 -27  16  -1    0.47    1.27
 -26  15  -1    1.06    1.06
 -26  15  -1    0.77    1.16
 -26  15  -1   -0.25    0.88
 -25  14  -1    0.41    0.81
 -25  14  -1   -0.55    0.67
 -25  14  -1    0.81    0.64
 -24  13  -1    7.36    1.68
 -24  13  -1    6.68    1.28
 -24  13  -1    4.04    0.98
 -23  12  -1    1.15    1.44
 -23  12  -1    0.68    0.95
 -23  12  -1    0.67    0.73
 -22  11  -1    9.68    1.16
 -22  11  -1    9.83    1.03
 -22  11  -1    7.22    2.25
 -21  10  -1    8.59    1.63
 -21  10  -1    7.21    2.12
 -21  10  -1    7.58    0.90
 -20   9  -1   29.06    3.38
 -20   9  -1   31.16    1.63
 -20   9  -1   30.42    1.86
 -19   8  -1    6.54    2.27
 -19   8  -1    7.15    1.04
 -19   8  -1    8.05    1.33
 -18   7  -1   71.57    3.82
 -18   7  -1   65.33    3.49
 -17   6  -1   32.83    1.80
 -17   6  -1   31.52    2.26
 -16   5  -1   14.05    1.71
 -16   5  -1   19.34    1.29
 -15   4  -1    3.14    1.61
 -14   3  -1    3.46    1.05
 -13   2  -1   37.39    2.18
  13  -2   1   32.99    2.16
 -12   1  -1  171.94    6.53
  12  -1   1  168.09    6.44
 -11   0  -1   39.61    3.43
  11   0   1   40.00    1.90
 -10  -1  -1    5.25    1.27
  10   1   1    6.42    0.89
  -9  -2  -1  100.36    4.52
   9   2   1  102.04    5.03
  -8  -3  -1    5.32    1.37
   8   3   1    5.07    1.17
  -7  -4  -1    0.42    0.86
   7   4   1    0.44    0.86
  -6  -5  -1    4.86    1.12
   6   5   1    2.83    1.36
  -5  -6  -1    7.71    1.21
   5   6   1    8.47    2.38
  -4  -7  -1   68.47    3.51
   4   7   1   65.93    4.55
  -3  -8  -1  182.36    5.94
   3   8   1  174.14    7.66
  -2  -9  -1   47.30    1.92
   2   9   1   49.00    3.15
  -1 -10  -1  132.28    4.23
   1  10   1  130.06    4.68
   0 -11  -1   39.95    1.62
   0  11   1   39.91    1.88
   1 -12  -1   96.14    3.10
   1 -12  -1   85.44    3.14
  -1  12   1   88.74    3.38
   2 -13  -1    4.06    1.12
   2 -13  -1    1.88    0.53
  -2  13   1    2.94    0.67
   3 -14  -1    5.71    0.91
   3 -14  -1    7.53    0.70
  -3  14   1    6.49    0.90
   4 -15  -1   12.90    1.19
   4 -15  -1   12.03    0.88
  -4  15   1   13.43    1.62
   5 -16  -1    9.54    1.18
   5 -16  -1    9.38    1.13
  -5  16   1    8.41    1.54
   6 -17  -1   20.32    2.34
   6 -17  -1   17.62    1.14
  -6  17   1   21.31    1.43
   7 -18  -1   -1.01    0.69
   7 -18  -1    0.37    0.44
  -7  18   1    0.96    0.60
   8 -19  -1    1.04    0.53
   8 -19  -1   -0.09    0.77
  -8  19   1    0.30    0.70
   9 -20  -1    5.58    1.59
  -9  20   1    3.12    0.95
  10 -21  -1    6.73    0.85
  10 -21  -1    8.05    1.25
 -10  21   1    8.02    1.18
  11 -22  -1   -0.32    0.51
  11 -22  -1    1.15    1.21
 -11  22   1    1.71    0.76
  12 -23  -1    5.24    1.18
  12 -23  -1    4.84    1.26
 -12  23   1    6.64    1.89
  13 -24  -1    0.72    1.42
  13 -24  -1    1.30    0.63
 -13  24   1    0.89    1.49
  14 -25  -1    1.18    1.08
  14 -25  -1    1.90    1.00
 -14  25   1    0.90    1.60
  15 -26  -1    3.08    0.85
  15 -26  -1    3.58    1.87
 -15  26   1    5.23    1.32
  16 -27  -1    2.87    0.82
  16 -27  -1   -0.05    1.15
 -16  27   1    3.19    1.24
  17 -28  -1    0.17    0.61
  17 -28  -1    0.22    1.35
 -17  28   1   -0.05    0.95
 -27  18  -1    1.30    1.06
 -27  18  -1    3.86    1.05
 -27  18  -1    1.78    1.52
 -26  17  -1    0.64    0.71
 -26  17  -1    0.06    0.85
 -26  17  -1    0.51    1.21
 -25  16  -1    0.23    0.86
 -25  16  -1    1.05    0.79
 -25  16  -1    0.52    0.70
 -24  15  -1    3.51    1.26
 -24  15  -1    1.08    1.63
 -24  15  -1    1.78    1.40
 -23  14  -1    6.01    1.11
 -23  14  -1    6.41    0.97
 -23  14  -1    7.44    1.86
 -22  13  -1    9.02    1.06
 -22  13  -1   13.49    1.39
 -22  13  -1   11.25    1.32
 -21  12  -1    0.80    0.66
 -21  12  -1   -0.18    0.71
 -21  12  -1   -0.03    0.79
 -20  11  -1    2.84    0.69
 -20  11  -1    4.09    0.89
 -20  11  -1    3.39    1.01
 -19  10  -1    1.46    0.59
 -19  10  -1    2.23    1.30
 -19  10  -1    2.89    0.92
 -18   9  -1   18.06    1.74
 -18   9  -1   18.88    1.51
 -18   9  -1   21.63    1.21
 -17   8  -1   11.42    1.35
 -17   8  -1   14.57    1.41
 -17   8  -1   11.96    1.20
 -16   7  -1   40.80    3.32
 -16   7  -1   44.53    2.79
 -15   6  -1   60.19    3.83
 -15   6  -1   61.91    3.17
 -14   5  -1    5.56    0.99
 -14   5  -1    6.14    0.80
 -13   4  -1    0.61    0.66
 -12   3  -1   16.99    1.41
  12  -3   1   15.17    0.94
 -11   2  -1   33.73    2.79
  11  -2   1   33.40    1.41
 -10   1  -1  139.74    4.99
  10  -1   1  131.64    5.04
  -9   0  -1    0.87    0.74
   9   0   1    0.16    0.54
  -8  -1  -1   22.09    1.83
   8   1   1   17.47    1.50
  -7  -2  -1    1.07    0.98
   7   2   1    1.21    0.86
  -6  -3  -1   62.64    4.29
   6   3   1   58.15    3.23
  -5  -4  -1  333.61   11.48
   5   4   1  323.84   12.25
  -4  -5  -1  162.59    5.48
   4   5   1  153.81    7.76
  -3  -6  -1    7.17    0.85
   3   6   1    5.05    1.03
  -2  -7  -1    0.81    0.49
   2   7   1    0.84    0.60
  -1  -8  -1    3.69    0.59
   1   8   1    4.03    0.71
   0  -9  -1   -0.27    0.36
   0   9   1    0.28    0.68
   1 -10  -1    4.86    0.61
  -1  10   1    6.42    0.73
   2 -11  -1  124.50    3.99
   2 -11  -1  114.22    3.63
  -2  11   1  113.56    3.87
   3 -12  -1   14.96    0.87
   3 -12  -1   14.21    1.02
  -3  12   1   11.56    1.02
   4 -13  -1   16.80    1.20
   4 -13  -1   20.26    1.03
  -4  13   1   18.16    1.67
   5 -14  -1   25.13    1.20
   5 -14  -1   26.54    2.09
  -5  14   1   22.80    1.86
   6 -15  -1   38.26    2.05
   6 -15  -1   39.18    1.97
  -6  15   1   37.56    1.85
   7 -16  -1   44.42    1.85
   7 -16  -1   44.58    2.25
  -7  16   1   43.23    2.19
   8 -17  -1   12.19    1.91
   8 -17  -1   11.80    0.96
  -8  17   1   13.51    1.22
   9 -18  -1   16.81    1.51
   9 -18  -1   17.73    1.64
  -9  18   1   16.98    1.47
  10 -19  -1   39.08    1.89
  10 -19  -1   41.84    2.46
 -10  19   1   42.17    2.37
  11 -20  -1   16.71    1.15
  11 -20  -1   13.88    2.27
 -11  20   1   15.39    1.53
  12 -21  -1    2.36    0.89
  12 -21  -1    1.48    0.99
 -12  21   1    2.17    0.92
  13 -22  -1    1.23    1.10
  13 -22  -1    0.06    0.52
 -13  22   1   -0.32    1.11
  14 -23  -1    0.29    0.61
  14 -23  -1    1.16    0.79
 -14  23   1    0.59    1.35
  15 -24  -1    2.44    0.75
  15 -24  -1    2.18    1.54
 -15  24   1    1.64    1.13
  16 -25  -1    0.26    0.72
  16 -25  -1    2.22    0.95
 -16  25   1    2.71    1.09
  17 -26  -1    0.49    0.75
  17 -26  -1    2.33    1.49
 -17  26   1    1.91    1.10
  18 -27  -1   -0.11    0.80
 -26  19  -1    2.23    1.06
 -25  18  -1    1.39    1.23
 -25  18  -1   -0.08    0.79
 -25  18  -1    0.57    0.69
 -24  17  -1    0.26    0.75
 -24  17  -1    0.22    0.67
 -24  17  -1    2.76    1.19
 -23  16  -1    9.42    1.26
 -23  16  -1    5.74    1.60
 -23  16  -1    9.04    1.24
 -22  15  -1   19.50    1.68
 -22  15  -1   20.95    1.71
 -22  15  -1   21.72    1.45
 -21  14  -1   22.40    1.44
 -21  14  -1   19.16    1.74
 -21  14  -1   23.80    1.67
 -20  13  -1   24.11    1.75
 -20  13  -1   25.27    2.48
 -19  12  -1   -0.18    0.45
 -19  12  -1    0.60    1.02
 -19  12  -1    0.95    0.63
 -18  11  -1   38.09    1.66
 -18  11  -1   38.44    2.12
 -18  11  -1   38.13    3.07
 -17  10  -1    5.40    1.64
 -17  10  -1    9.97    1.54
 -17  10  -1    4.86    0.66
 -16   9  -1   20.87    1.47
 -16   9  -1   20.25    1.47
 -16   9  -1   21.31    2.28
 -15   8  -1    3.35    0.90
 -15   8  -1    5.55    0.84
 -15   8  -1    3.93    0.85
 -14   7  -1    8.42    1.02
 -14   7  -1   10.50    1.42
 -13   6  -1   18.37    1.67
 -13   6  -1   15.83    1.79
 -12   5  -1  133.90    4.37
 -12   5  -1  131.82    4.42
 -11   4  -1   72.77    3.49
 -10   3  -1    6.73    0.86
  10  -3   1    5.67    0.88
  -9   2  -1   49.85    2.20
   9  -2   1   48.36    1.69
  -8   1  -1    4.13    0.97
   8  -1   1    3.71    0.69
  -7   0  -1  102.61    4.23
   7   0   1  108.26    3.84
  -6  -1  -1    5.29    1.06
   6   1   1    2.48    1.08
  -5  -2  -1  506.22   17.90
   5   2   1  491.44   20.67
  -4  -3  -1    6.90    0.99
   4   3   1    8.13    1.44
  -3  -4  -1    6.30    0.86
   3   4   1    4.91    1.09
  -2  -5  -1    9.73    1.21
   2   5   1    7.97    0.99
  -1  -6  -1  228.52    6.73
   1   6   1  215.78    7.61
   0  -7  -1   98.29    2.95
   0   7   1   92.35    3.02
   1  -8  -1   17.18    0.90
  -1   8   1   16.80    0.97
   2  -9  -1  100.25    3.03
  -2   9   1   95.38    3.09
   3 -10  -1   30.82    1.25
   3 -10  -1   31.85    1.36
  -3  10   1   29.83    1.36
   4 -11  -1    3.67    0.59
   4 -11  -1    2.07    0.50
  -4  11   1    2.06    0.89
   5 -12  -1    2.34    0.58
   5 -12  -1    1.58    0.47
  -5  12   1    2.17    0.55
   6 -13  -1    4.96    0.59
   6 -13  -1    3.47    0.73
  -6  13   1    4.34    0.70
   7 -14  -1   15.04    1.30
   7 -14  -1   11.68    1.13
  -7  14   1   15.75    1.10
   8 -15  -1   38.04    2.56
   8 -15  -1   35.60    1.59
  -8  15   1   32.66    1.75
   9 -16  -1   94.25    3.39
   9 -16  -1   96.13    3.73
  -9  16   1   95.66    3.88
  10 -17  -1   27.48    2.09
  10 -17  -1   30.30    1.91
 -10  17   1   30.06    1.79
  11 -18  -1  117.01    4.74
  11 -18  -1  107.51    4.08
 -11  18   1  117.02    4.83
  12 -19  -1   20.35    1.60
  12 -19  -1   19.80    1.30
 -12  19   1   18.62    1.60
  13 -20  -1    2.78    1.27
  13 -20  -1    1.92    0.64
 -13  20   1    0.93    0.85
  14 -21  -1    8.51    0.94
  14 -21  -1    7.55    1.19
 -14  21   1    1.99    1.93
  15 -22  -1    0.73    1.07
  15 -22  -1   -0.26    0.57
 -15  22   1    0.91    0.78
  16 -23  -1    0.64    0.87
  16 -23  -1    1.39    0.73
 -16  23   1    2.48    1.01
  17 -24  -1   -0.25    0.52
  17 -24  -1   -0.29    1.00
 -17  24   1    0.79    0.77
  18 -25  -1    4.13    1.17
 -18  25   1    5.76    2.04
  19 -26  -1   -0.01    1.59
 -19  26   1    3.67    1.31
 -25  20  -1    0.34    1.30
 -24  19  -1   -0.35    0.90
 -24  19  -1    0.66    0.53
 -24  19  -1   -0.89    0.66
 -23  18  -1    1.00    0.64
 -23  18  -1    0.05    0.71
 -23  18  -1    0.16    0.79
 -22  17  -1    1.90    1.05
 -22  17  -1    1.46    0.80
 -22  17  -1    1.09    0.90
 -21  16  -1   17.87    1.27
 -21  16  -1   15.13    2.16
 -21  16  -1   16.39    1.57
 -20  15  -1   18.54    2.15
 -20  15  -1   20.09    1.29
 -20  15  -1   20.01    1.65
 -19  14  -1   65.50    2.80
 -19  14  -1   66.37    3.04
 -19  14  -1   65.18    3.20
 -18  13  -1   14.73    0.95
 -18  13  -1   14.04    1.34
 -18  13  -1   10.33    1.14
 -17  12  -1    1.67    0.80
 -17  12  -1    3.29    0.56
 -17  12  -1    2.78    0.90
 -16  11  -1    0.70    0.61
 -16  11  -1    0.45    0.58
 -16  11  -1    0.32    0.67
 -15  10  -1   10.83    1.01
 -15  10  -1   10.28    1.76
 -15  10  -1   11.89    1.05
 -14   9  -1    1.58    0.39
 -14   9  -1    1.96    0.69
 -14   9  -1    1.19    0.61
 -13   8  -1   61.80    2.92
 -13   8  -1   69.20    2.05
 -13   8  -1   70.02    2.60
 -12   7  -1    2.46    0.52
 -12   7  -1    0.93    0.33
 -12   7  -1    0.49    0.92
 -11   6  -1  128.91    3.95
 -11   6  -1  132.94    4.25
 -10   5  -1  107.98    3.52
 -10   5  -1  105.44    3.30
  -9   4  -1  111.23    3.49
   9  -4   1  114.91    3.09
  -8   3  -1  187.14    5.75
   8  -3   1  183.18    5.64
  -7   2  -1   -0.50    0.63
   7  -2   1    1.14    0.44
  -6   1  -1  243.72    9.54
   6  -1   1  232.24    7.24
  -5   0  -1  156.99    5.38
   5   0   1  142.17    6.69
  -4  -1  -1   81.16    2.92
   4   1   1   73.04    3.23
  -3  -2  -1    9.83    0.86
   3   2   1   11.78    1.08
  -2  -3  -1    0.24    0.75
   2   3   1    1.51    0.53
  -1  -4  -1  144.70    4.09
   1   4   1  132.09    4.10
   0  -5  -1  151.52    4.79
   0   5   1  138.64    4.22
   1  -6  -1    3.32    0.47
  -1   6   1    2.70    0.53
   2  -7  -1    0.44    0.33
  -2   7   1    0.13    0.37
   3  -8  -1    5.29    0.54
  -3   8   1    4.88    0.60
   4  -9  -1   12.03    0.70
   4  -9  -1   11.03    1.10
  -4   9   1   10.07    0.76
   5 -10  -1   11.78    0.99
   5 -10  -1   11.71    1.17
  -5  10   1   10.03    0.79
   6 -11  -1  130.75    4.03
   6 -11  -1  136.96    4.88
  -6  11   1  127.84    4.30
   7 -12  -1   31.50    1.87
   7 -12  -1   28.57    1.21
  -7  12   1   26.40    1.39
   8 -13  -1   41.39    1.81
   8 -13  -1   43.27    2.18
  -8  13   1   48.09    1.99
   9 -14  -1   82.66    2.87
   9 -14  -1   80.21    3.04
  -9  14   1   80.47    3.17
  10 -15  -1   72.27    2.71
  10 -15  -1   77.05    3.10
 -10  15   1   74.95    3.11
  11 -16  -1   19.76    1.46
  11 -16  -1   21.02    1.25
 -11  16   1   21.95    1.48
  12 -17  -1   49.76    2.19
  12 -17  -1   45.58    2.38
 -12  17   1   49.86    2.54
  13 -18  -1   43.26    3.11
  13 -18  -1   40.64    2.60
 -13  18   1   43.56    2.39
  14 -19  -1   -0.05    0.59
  14 -19  -1    0.50    0.51
 -14  19   1   -0.49    1.01
  15 -20  -1    1.35    1.08
  15 -20  -1    1.03    1.22
 -15  20   1    3.41    1.40
  16 -21  -1    7.26    0.95
  16 -21  -1    3.29    1.04
 -16  21   1    5.97    1.27
  17 -22  -1   -0.20    0.58
  17 -22  -1   -0.39    1.05
 -17  22   1   -0.42    0.81
  18 -23  -1    1.70    0.87
 -18  23   1    2.22    1.09
  19 -24  -1    0.00    1.13
 -19  24   1    1.09    1.47
  20 -25  -1   -0.73    0.73
 -20  25   1    1.74    0.97
 -24  21  -1    0.55    0.94
 -23  20  -1   -0.07    1.63
 -23  20  -1    3.07    0.85
 -23  20  -1    2.88    0.81
 -22  19  -1   -0.78    0.77
 -22  19  -1    1.05    0.85
 -22  19  -1    1.04    0.97
 -21  18  -1    2.23    0.72
 -21  18  -1    4.67    1.56
 -21  18  -1    3.09    1.21
 -20  17  -1   12.49    1.44
 -20  17  -1   12.04    1.18
 -20  17  -1   15.61    1.10
 -19  16  -1    1.18    0.79
 -19  16  -1    0.44    0.82
 -19  16  -1    1.11    0.63
 -18  15  -1   13.42    1.64
 -18  15  -1   13.17    0.97
 -18  15  -1   13.36    1.37
 -17  14  -1   17.47    1.01
 -17  14  -1   15.56    1.47
 -17  14  -1   15.90    1.72
 -16  13  -1    2.89    0.77
 -16  13  -1    2.54    0.92
 -16  13  -1    1.29    1.07
 -15  12  -1   29.15    2.03
 -15  12  -1   30.85    1.27
 -15  12  -1   29.52    1.83
 -14  11  -1    3.17    0.44
 -14  11  -1    2.68    0.83
 -14  11  -1    3.07    0.99
 -13  10  -1    1.32    0.59
 -13  10  -1   -0.52    0.67
 -13  10  -1    0.53    0.30
 -12   9  -1   60.69    2.49
 -12   9  -1   56.94    2.36
 -12   9  -1   59.76    2.00
 -11   8  -1   75.72    3.44
 -11   8  -1   83.45    2.46
 -11   8  -1   78.54    2.39
 -10   7  -1  216.16    5.63
 -10   7  -1  199.52    6.35
 -10   7  -1  196.74    6.20
  -9   6  -1   62.99    1.85
  -9   6  -1   60.32    2.16
  -8   5  -1    0.67    0.38
  -8   5  -1    0.84    0.45
  -7   4  -1   71.47    2.76
   7  -4   1   66.51    2.03
  -6   3  -1    5.35    0.71
   6  -3   1    5.36    0.47
  -5   2  -1    8.83    1.52
   5  -2   1    9.48    0.82
  -4   1  -1  146.92    4.21
   4  -1   1  150.89    6.07
  -3   0  -1    0.53    0.36
   3   0   1    1.17    0.74
  -2  -1  -1 1416.15   54.49
   2   1   1 1403.29   54.77
  -1  -2  -1   29.60    1.00
   1   2   1   30.19    1.04
   0  -3  -1    0.06    0.27
   0   3   1   -0.29    0.46
   1  -4  -1   77.26    2.20
  -1   4   1   75.01    2.80
   2  -5  -1  480.65   14.86
  -2   5   1  465.46   14.84
   3  -6  -1   53.70    1.69
  -3   6   1   51.85    1.79
   4  -7  -1    0.69    0.31
   4  -7  -1    0.06    0.51
  -4   7   1   -0.33    0.35
   5  -8  -1  138.63    4.06
   5  -8  -1  139.07    3.91
  -5   8   1  145.17    4.98
   6  -9  -1   67.07    2.16
   6  -9  -1   66.05    2.06
  -6   9   1   67.69    2.35
   7 -10  -1   -0.72    0.51
   7 -10  -1    0.57    0.34
  -7  10   1   -0.04    0.36
   8 -11  -1   33.87    1.40
   8 -11  -1   33.16    1.35
  -8  11   1   34.78    1.53
   9 -12  -1    0.65    0.47
   9 -12  -1    0.64    0.43
  -9  12   1    1.45    0.52
  10 -13  -1   68.81    2.50
  10 -13  -1   71.60    2.61
 -10  13   1   65.43    3.37
  11 -14  -1   73.42    3.54
  11 -14  -1   75.82    2.79
 -11  14   1   76.09    3.16
  12 -15  -1    5.02    0.81
  12 -15  -1    3.55    0.72
 -12  15   1    3.95    0.84
  13 -16  -1    0.78    0.64
  13 -16  -1    0.88    0.68
 -13  16   1    2.50    0.74
  14 -17  -1    3.68    0.78
  14 -17  -1    4.39    0.78
 -14  17   1    1.66    0.91
  15 -18  -1    4.02    0.79
  15 -18  -1    2.92    0.83
 -15  18   1    3.22    1.46
  16 -19  -1    0.81    0.62
  16 -19  -1    1.21    0.62
 -16  19   1   -0.42    0.79
  17 -20  -1   10.04    1.15
 -17  20   1    9.71    1.44
  18 -21  -1    7.81    1.11
 -18  21   1    9.31    1.48
  19 -22  -1    4.05    0.96
 -19  22   1    3.97    1.98
  20 -23  -1    0.26    0.76
 -20  23   1    1.70    1.02
 -21  24   1    7.39    1.65
 -23  22  -1    0.79    0.99
 -22  21  -1    0.37    0.84
 -21  20  -1    2.46    0.68
 -21  20  -1    0.12    1.51
 -21  20  -1    1.26    0.99
 -20  19  -1    8.82    1.05
 -20  19  -1   10.26    1.41
 -20  19  -1    9.76    0.95
 -19  18  -1    8.53    1.93
 -19  18  -1    8.69    1.22
 -19  18  -1    5.92    1.38
 -18  17  -1   12.54    0.94
 -18  17  -1   12.82    1.00
 -18  17  -1   13.09    1.47
 -17  16  -1   14.16    0.98
 -17  16  -1   13.39    1.37
 -17  16  -1   14.18    1.23
 -16  15  -1    9.88    1.20
 -16  15  -1    8.08    0.81
 -16  15  -1    7.53    0.70
 -15  14  -1    0.30    0.76
 -15  14  -1    0.12    0.74
 -15  14  -1    0.80    0.37
 -14  13  -1    0.34    0.52
 -14  13  -1    0.60    0.70
 -14  13  -1    1.20    1.10
 -13  12  -1   31.36    1.12
 -13  12  -1   29.79    1.68
 -13  12  -1   34.14    1.86
 -12  11  -1   38.80    1.23
 -12  11  -1   38.02    2.66
 -12  11  -1   40.45    1.80
 -11  10  -1   15.74    1.15
 -11  10  -1   15.21    0.78
 -11  10  -1   15.52    1.03
 -10   9  -1    1.81    0.80
 -10   9  -1    0.18    0.29
 -10   9  -1    0.69    0.33
  -9   8  -1    3.74    0.68
  -9   8  -1    4.33    0.58
  -9   8  -1    3.19    0.40
  -8   7  -1    5.14    0.68
  -8   7  -1    4.96    0.61
  -8   7  -1    5.85    0.29
  -7   6  -1   -0.18    0.13
  -7   6  -1    0.24    0.63
  -7   6  -1    0.53    0.36
  -6   5  -1    8.84    0.77
  -6   5  -1    8.07    0.79
  -5   4  -1  166.04    4.29
  -5   4  -1  166.40    4.86
  -4   3  -1    4.33    0.45
   4  -3   1    3.32    0.30
  -3   2  -1    1.05    0.37
   3  -2   1    1.31    0.42
  -2   1  -1   30.48    0.79
   2  -1   1   31.43    1.09
  -1   0  -1 1685.78   66.63
   1   0   1 1670.31   66.30
   0  -1  -1 1691.64   67.85
   0   1   1 1706.86   68.88
   1  -2  -1 1444.16   56.42
  -1   2   1 1497.77   58.87
   2  -3  -1   10.51    0.66
  -2   3   1   10.72    0.66
   3  -4  -1    8.19    0.60
  -3   4   1    7.57    0.61
   4  -5  -1  308.52    9.57
  -4   5   1  308.91    9.44
   5  -6  -1    2.30    0.57
   5  -6  -1    1.99    0.44
  -5   6   1    3.36    0.47
   6  -7  -1  142.54    4.16
   6  -7  -1  147.75    3.91
  -6   7   1  149.64    4.55
   7  -8  -1   36.47    1.23
   7  -8  -1   37.94    1.37
  -7   8   1   38.01    1.52
   8  -9  -1  106.37    3.08
   8  -9  -1  109.03    3.35
  -8   9   1  115.17    3.73
   9 -10  -1    7.93    0.64
   9 -10  -1   10.43    0.70
  -9  10   1    8.21    0.82
  10 -11  -1    1.45    0.49
  10 -11  -1    2.28    0.51
 -10  11   1    2.26    0.58
  11 -12  -1    1.32    0.46
  11 -12  -1   -0.05    0.44
 -11  12   1    0.57    0.53
  12 -13  -1   22.42    1.31
  12 -13  -1   23.85    1.76
 -12  13   1   20.93    1.98
  13 -14  -1    0.86    0.55
  13 -14  -1    0.58    0.57
 -13  14   1    1.29    0.65
  14 -15  -1    2.29    1.17
  14 -15  -1    4.43    1.25
 -14  15   1    4.41    0.90
  15 -16  -1   -0.24    0.55
  15 -16  -1    0.49    0.49
 -15  16   1    0.51    0.65
  16 -17  -1    0.63    0.57
  16 -17  -1   -0.17    0.82
 -16  17   1   -0.08    1.04
  17 -18  -1   -0.77    0.55
 -17  18   1    0.22    0.74
  18 -19  -1   10.51    1.56
 -18  19   1    8.03    1.41
  19 -20  -1   11.29    1.21
 -19  20   1   17.61    2.46
 -20  21   1    0.71    1.00
 -21  22   1    9.38    1.69
 -22  23   1   12.40    2.81
 -22  23  -1    0.19    1.38
 -21  22  -1    0.29    0.87
 -20  21  -1    0.17    0.85
 -20  21  -1    0.76    0.55
 -20  21  -1    0.77    0.51
 -19  20  -1   15.20    1.56
 -19  20  -1   15.99    1.62
 -19  20  -1   19.32    1.72
 -18  19  -1    9.51    0.89
 -18  19  -1    9.45    1.40
 -18  19  -1    9.03    0.82
 -17  18  -1   -0.26    1.12
 -17  18  -1   -0.05    0.68
 -17  18  -1   -0.42    0.58
 -16  17  -1    0.77    0.70
 -16  17  -1    0.21    0.65
 -16  17  -1    0.37    0.37
 -15  16  -1    1.14    0.72
 -15  16  -1    0.45    0.40
 -15  16  -1    0.15    0.53
 -14  15  -1    3.12    0.44
 -14  15  -1    2.26    0.54
 -14  15  -1    4.96    1.46
 -13  14  -1    0.57    0.45
 -13  14  -1    0.87    0.57
 -13  14  -1   -0.23    0.67
 -12  13  -1   20.04    1.48
 -12  13  -1   22.45    1.29
 -12  13  -1   22.26    0.82
 -11  12  -1    0.46    0.36
 -11  12  -1    0.85    0.47
 -11  12  -1    0.40    0.63
 -10  11  -1    2.35    0.27
 -10  11  -1    3.02    0.50
 -10  11  -1    1.71    0.71
  -9  10  -1    7.65    0.61
  -9  10  -1    8.89    0.50
  -9  10  -1   10.14    0.92
  -8   9  -1  107.40    3.56
  -8   9  -1  111.74    2.57
  -8   9  -1  114.16    2.58
  -7   8  -1   38.16    1.62
  -7   8  -1   38.34    0.90
  -7   8  -1   39.66    0.95
  -6   7  -1  150.78    4.64
  -6   7  -1  150.59    3.49
  -6   7  -1  154.40    3.29
  -5   6  -1    2.34    0.34
  -5   6  -1    2.88    0.16
  -5   6  -1    2.64    0.59
  -4   5  -1  345.76   10.36
  -4   5  -1  338.48    8.14
  -3   4  -1    7.84    1.25
  -3   4  -1    7.14    0.19
   2  -3   1   -0.17    0.09
  -1   2  -1 1410.25   50.49
   1  -2   1 1416.57   51.19
   0   1  -1 1710.63   66.64
   0  -1   1 1743.28   68.87
   1   0  -1 1785.49   72.23
  -1   0   1 1724.56   69.30
   2  -1  -1   34.40    1.07
  -2   1   1   35.41    1.36
   3  -2  -1    1.34    0.36
  -3   2   1    0.77    0.36
   4  -3  -1    5.06    0.51
  -4   3   1    3.65    0.52
   5  -4  -1  155.19    4.80
  -5   4   1  148.45    4.32
   6  -5  -1    7.97    0.61
   6  -5  -1    7.63    0.41
  -6   5   1    7.81    0.64
   7  -6  -1    0.07    0.32
   7  -6  -1   -0.01    0.35
  -7   6   1    0.68    0.37
   8  -7  -1    4.58    0.58
   8  -7  -1    5.67    0.62
  -8   7   1    5.58    0.62
   9  -8  -1    3.06    0.52
   9  -8  -1    2.23    0.61
  -9   8   1    3.50    0.86
  10  -9  -1   -0.22    0.63
  10  -9  -1    0.01    0.48
 -10   9   1    0.81    0.44
  11 -10  -1   14.59    0.97
  11 -10  -1   13.90    0.77
 -11  10   1   14.64    1.02
  12 -11  -1   36.25    1.66
  12 -11  -1   36.31    1.42
 -12  11   1   38.30    1.83
  13 -12  -1   30.92    1.82
  13 -12  -1   29.42    1.58
 -13  12   1   33.54    2.34
  14 -13  -1    0.73    0.46
  14 -13  -1    0.41    0.58
 -14  13   1    0.61    0.62
  15 -14  -1    1.04    0.65
  15 -14  -1    0.48    0.84
 -15  14   1    1.03    0.69
  16 -15  -1    7.75    0.84
 -16  15   1    7.38    1.14
  17 -16  -1    9.75    1.45
 -17  16   1   16.05    2.02
  18 -17  -1   10.25    1.00
 -18  17   1   10.01    1.39
  19 -18  -1    6.49    0.94
 -19  18   1   11.10    1.37
 -20  19   1   13.08    2.47
 -21  20   1    2.66    1.18
 -22  21   1    1.67    1.16
 -23  22   1    1.81    1.29
 -21  24  -1   10.75    1.68
 -20  23  -1   -0.11    1.20
 -19  22  -1   -0.35    1.11
 -19  22  -1    4.31    0.62
 -19  22  -1    2.32    0.97
 -18  21  -1    7.92    0.76
 -18  21  -1    6.65    0.75
 -18  21  -1    0.11    1.27
 -17  20  -1    8.41    1.17
 -17  20  -1   12.49    2.12
 -17  20  -1    9.08    1.15
 -16  19  -1   -0.28    0.65
 -16  19  -1    0.03    0.35
 -16  19  -1    0.19    0.34
 -15  18  -1    4.21    0.77
 -15  18  -1    3.60    1.01
 -15  18  -1    2.43    0.79
 -14  17  -1    3.36    0.87
 -14  17  -1    1.47    0.45
 -14  17  -1    2.57    0.62
 -13  16  -1    0.95    0.41
 -13  16  -1    1.95    0.82
 -13  16  -1    1.15    0.35
 -12  15  -1    3.18    0.98
 -12  15  -1    3.74    0.39
  12 -15   1    3.17    0.98
 -11  14  -1   71.26    3.03
 -11  14  -1   75.17    2.33
  11 -14   1   64.78    3.07
 -10  13  -1   67.26    1.96
 -10  13  -1   63.93    2.71
  10 -13   1   58.90    2.71
  -9  12  -1    0.75    0.30
  -9  12  -1    0.74    0.90
   9 -12   1    0.45    0.59
  -8  11  -1   35.84    1.67
  -8  11  -1   33.40    0.96
   8 -11   1   34.83    1.68
  -7  10  -1    0.05    0.50
  -7  10  -1    0.30    0.18
   7 -10   1    0.51    0.76
  -6   9  -1   67.50    1.34
  -6   9  -1   75.18    3.15
   6  -9   1   68.09    3.07
  -5   8  -1  146.24    2.86
  -5   8  -1  134.19    2.67
  -5   8  -1  142.93    4.39
   5  -8   1  138.23    5.00
  -4   7  -1   -0.78    0.62
   4  -7   1    0.68    0.62
  -3   6  -1   53.35    1.92
   3  -6   1   55.48    2.53
  -2   5  -1  526.14   17.56
   2  -5   1  492.70   15.79
  -1   4  -1   80.09    2.46
   1  -4   1   77.44    2.42
   0   3  -1    0.33    0.24
   0   3  -1    0.90    0.35
   0  -3   1    0.13    0.20
   1   2  -1   33.07    1.01
   1   2  -1   35.25    1.11
  -1  -2   1   33.77    0.82
   2   1  -1 1523.45   58.43
  -2  -1   1 1476.53   56.80
   3   0  -1    0.38    0.31
  -3   0   1    0.47    0.28
   4  -1  -1  153.01    4.18
  -4   1   1  152.03    4.19
   5  -2  -1    9.88    0.66
  -5   2   1    8.87    0.68
   6  -3  -1    0.01    0.07
   6  -3  -1    2.04    0.51
   7  -4  -1   68.77    2.20
  -7   4   1   69.03    2.65
   8  -5  -1    0.42    0.38
   8  -5  -1    0.47    0.28
  -8   5   1    0.47    0.39
   9  -6  -1   60.37    1.79
   9  -6  -1   66.01    2.16
  -9   6   1   63.49    2.22
  10  -7  -1  200.71    5.68
  10  -7  -1  206.93    7.21
 -10   7   1  210.92    6.87
  11  -8  -1   68.16    1.94
  11  -8  -1   71.42    2.59
 -11   8   1   81.45    3.34
  12  -9  -1   61.04    2.30
  12  -9  -1   53.15    1.66
 -12   9   1   60.20    2.35
  13 -10  -1    0.24    0.31
  13 -10  -1   -0.74    0.46
 -13  10   1    0.30    0.47
 -13  10   1    0.33    0.33
  14 -11  -1    2.29    0.45
  14 -11  -1   -0.99    0.64
 -14  11   1    3.01    1.02
  15 -12  -1   23.25    1.19
 -15  12   1   34.01    1.85
  16 -13  -1    1.55    0.86
 -16  13   1    3.29    0.86
  17 -14  -1   15.38    1.00
 -17  14   1   16.29    2.13
 -18  15   1   14.53    1.48
 -19  16   1    0.48    0.78
 -20  17   1   14.52    2.42
 -21  18   1    2.58    1.14
 -22  19   1    1.11    1.03
 -23  20   1    3.97    2.14
 -24  21   1    9.99    1.86
 -20  25  -1    0.05    0.84
 -19  24  -1   -0.22    0.86
 -18  23  -1    0.53    1.37
 -17  22  -1    0.44    0.63
 -17  22  -1   -0.46    0.76
 -17  22  -1    0.26    0.36
 -16  21  -1    6.76    0.70
 -16  21  -1    5.40    0.90
 -16  21  -1    5.01    1.23
 -15  20  -1    3.78    0.54
 -15  20  -1    2.68    0.50
 -15  20  -1    3.01    1.58
 -14  19  -1    0.14    0.72
 -14  19  -1    0.50    0.54
 -13  18  -1   39.71    2.43
 -13  18  -1   41.64    1.81
  13 -18   1   38.09    2.43
 -12  17  -1   47.67    1.58
 -12  17  -1   52.07    3.74
  12 -17   1   44.30    2.70
 -11  16  -1   19.28    1.64
 -11  16  -1   19.40    0.80
  11 -16   1   18.68    1.69
 -10  15  -1   73.60    3.17
 -10  15  -1   74.38    2.07
  10 -15   1   72.61    4.26
  -9  14  -1   79.80    2.07
  -9  14  -1   78.13    3.15
   9 -14   1   74.27    3.25
  -8  13  -1   42.64    2.76
  -8  13  -1   45.57    1.33
   8 -13   1   40.82    2.03
  -7  12  -1   25.36    1.43
  -7  12  -1   26.14    0.68
   7 -12   1   23.63    1.45
  -6  11  -1  126.45    2.86
  -6  11  -1  124.58    4.09
   6 -11   1  129.49    4.35
  -5  10  -1   10.63    1.39
  -5  10  -1    9.89    0.41
   5 -10   1   10.42    0.24
   5 -10   1   10.73    1.43
  -4   9  -1   11.83    0.45
  -4   9  -1   11.20    0.88
   4  -9   1   11.18    0.25
   4  -9   1    9.07    0.89
  -3   8  -1    5.01    0.68
  -3   8  -1    4.58    0.21
   3  -8   1    5.29    0.70
   3  -8   1    4.82    0.12
  -2   7  -1    0.50    0.77
   2  -7   1    0.17    0.46
   2  -7   1    0.68    0.07
  -1   6  -1    3.22    0.62
   1  -6   1    3.07    0.43
   1  -6   1    3.52    0.59
   0   5  -1  155.89    4.42
   0  -5   1  144.07    4.22
   0  -5   1  152.18    3.81
   1   4  -1  139.82    3.83
  -1  -4   1  142.55    3.88
  -1  -4   1  146.35    3.30
   2   3  -1    1.16    0.37
  -2  -3   1    0.99    0.34
  -2  -3   1    0.86    0.43
   3   2  -1   11.81    0.50
  -3  -2   1   10.46    0.59
   4   1  -1   81.70    1.85
  -4  -1   1   77.68    2.23
   5   0  -1  163.35    3.14
  -5   0   1  156.17    4.37
   6  -1  -1  255.28    7.21
   6  -1  -1  234.56    4.34
  -6   1   1  236.68    6.87
   7  -2  -1    1.22    0.45
  -7   2   1    0.82    0.68
   8  -3  -1  188.42    5.54
  -8   3   1  188.39    5.64
   9  -4  -1  120.94    3.67
  -9   4   1  118.68    3.68
  10  -5  -1   96.51    2.35
 -10   5   1  108.09    3.40
  11  -6  -1  116.46    2.84
 -11   6   1  123.83    3.04
 -11   6   1  137.96    4.39
  12  -7  -1    0.81    0.40
 -12   7   1    1.87    0.54
 -12   7   1    1.36    0.29
  13  -8  -1   58.62    2.01
 -13   8   1   66.02    1.85
 -13   8   1   67.43    2.66
  14  -9  -1    0.65    0.34
 -14   9   1    1.56    0.37
 -14   9   1    1.58    0.63
  15 -10  -1    9.28    0.63
 -15  10   1   10.57    0.71
 -15  10   1    9.50    1.59
 -16  11   1    0.77    0.61
 -16  11   1    0.02    0.39
 -17  12   1    3.25    0.61
 -17  12   1    4.14    0.92
 -18  13   1    0.71    0.55
 -18  13   1   10.68    1.44
 -19  14   1   63.41    3.35
 -20  15   1   23.20    1.98
 -21  16   1   19.04    1.93
 -22  17   1    1.33    1.00
 -23  18   1    1.42    1.67
 -24  19   1   -0.56    1.03
 -25  20   1    2.56    1.36
 -19  26  -1    0.74    1.64
 -18  25  -1   -0.50    0.99
 -17  24  -1   -0.08    0.77
 -16  23  -1    0.15    1.50
 -16  23  -1    1.91    0.67
 -16  23  -1    1.24    0.51
 -15  22  -1   -0.03    0.31
 -15  22  -1    0.49    0.72
 -15  22  -1    0.41    0.59
 -14  21  -1    6.29    0.93
 -14  21  -1    5.85    1.19
  14 -21   1    4.12    1.26
 -13  20  -1    1.50    0.80
 -13  20  -1    0.68    0.59
  13 -20   1   -0.05    0.84
 -12  19  -1   23.42    2.56
 -12  19  -1   19.07    0.92
  12 -19   1   18.31    2.61
 -11  18  -1  110.03    4.78
 -11  18  -1  118.66    3.50
  11 -18   1  100.92    4.80
 -10  17  -1   29.36    1.95
 -10  17  -1   28.55    1.34
  10 -17   1   27.04    2.02
  -9  16  -1   95.47    3.91
  -9  16  -1   99.51    3.08
   9 -16   1   92.94    4.09
  -8  15  -1   37.56    1.16
  -8  15  -1   40.65    2.00
   8 -15   1   36.16    3.02
   8 -15   1   35.70    0.93
  -7  14  -1   12.46    1.14
  -7  14  -1   13.06    0.76
   7 -14   1    9.86    1.20
   7 -14   1   13.94    0.56
  -6  13  -1    6.04    0.83
  -6  13  -1    5.22    0.53
   6 -13   1    5.72    0.89
  -5  12  -1    3.00    0.67
  -5  12  -1    3.29    0.47
   5 -12   1    2.64    0.70
   5 -12   1    2.24    0.15
  -4  11  -1    2.89    0.50
  -4  11  -1    3.33    1.03
   4 -11   1    2.77    0.14
   4 -11   1    2.24    1.07
  -3  10  -1   32.30    0.85
  -3  10  -1   32.08    1.40
   3 -10   1   31.10    0.67
   3 -10   1   31.67    1.52
  -2   9  -1  104.17    2.47
  -2   9  -1  102.65    3.17
   2  -9   1  100.68    3.33
   2  -9   1  100.87    2.14
  -1   8  -1   18.57    0.65
  -1   8  -1   15.49    0.96
   1  -8   1   17.79    0.52
   1  -8   1   16.99    1.04
   0   7  -1  100.45    2.39
   0   7  -1   98.51    2.94
   0  -7   1   98.05    3.09
   0  -7   1  105.13    2.68
   1   6  -1  218.77    6.29
  -1  -6   1  244.47    7.09
  -1  -6   1  235.56    6.81
   2   5  -1    9.96    0.69
  -2  -5   1   11.30    0.73
  -2  -5   1    9.77    0.71
   3   4  -1    4.86    0.48
  -3  -4   1    3.89    0.48
  -3  -4   1    5.04    0.61
   4   3  -1    8.40    0.68
  -4  -3   1    7.48    0.73
   5   2  -1  510.73   13.83
  -5  -2   1  543.99   15.12
   6   1  -1    2.90    0.12
  -6  -1   1    3.65    0.53
  -7   0   1   99.66    2.99
  -8   1   1    4.50    0.60
  -9   2   1   51.92    1.85
 -10   3   1    8.51    0.73
 -11   4   1   75.01    3.13
 -11   4   1   71.08    1.49
 -12   5   1  131.44    4.38
 -12   5   1  132.20    3.30
 -13   6   1   15.84    0.77
 -13   6   1   16.11    1.08
 -14   7   1   10.25    0.71
 -14   7   1   10.14    0.99
 -15   8   1    5.13    0.68
 -15   8   1    3.38    0.85
 -16   9   1   23.15    2.20
 -16   9   1   20.31    1.27
 -17  10   1    6.49    1.03
 -17  10   1    5.94    0.59
 -18  11   1   36.10    1.47
 -18  11   1   39.34    2.29
 -19  12   1    0.85    0.61
 -19  12   1   -0.37    0.36
 -20  13   1    0.18    0.61
 -20  13   1   21.56    1.27
 -21  14   1   25.08    2.98
 -22  15   1   20.52    1.99
 -23  16   1   12.45    2.53
 -24  17   1    0.96    1.06
 -25  18   1    0.18    0.94
 -25  18   1    0.73    1.02
 -26  19   1    2.84    1.38
 -26  19   1    5.55    2.32
 -18  27  -1    0.09    0.89
 -17  26  -1    0.70    1.60
 -16  25  -1   -0.44    0.93
 -15  24  -1    0.17    0.80
 -15  24  -1    0.23    0.64
 -15  24  -1   -0.07    0.32
  15 -24   1    1.48    0.84
 -14  23  -1    0.65    0.70
 -14  23  -1    0.52    0.85
  14 -23   1    0.80    0.94
 -13  22  -1    1.48    1.50
 -13  22  -1    1.96    0.52
  13 -22   1    1.02    1.02
 -12  21  -1    1.60    0.48
 -12  21  -1    2.09    0.94
  12 -21   1    3.20    0.99
 -11  20  -1   17.46    0.95
 -11  20  -1   16.57    1.62
  11 -20   1   14.78    1.69
 -10  19  -1   37.73    1.49
 -10  19  -1   39.79    2.45
  10 -19   1   40.46    2.51
  -9  18  -1   17.94    1.26
  -9  18  -1   17.70    2.40
   9 -18   1   21.18    2.65
   9 -18   1   17.85    0.64
  -8  17  -1   13.13    1.11
  -8  17  -1   15.19    1.39
   8 -17   1   14.98    1.54
   8 -17   1   12.33    0.68
  -7  16  -1   41.65    2.28
  -7  16  -1   45.16    1.51
   7 -16   1   43.93    1.11
   7 -16   1   42.91    2.39
  -6  15  -1   40.18    1.39
  -6  15  -1   40.25    2.04
   6 -15   1   40.09    2.17
   6 -15   1   39.15    0.96
  -5  14  -1   24.85    1.47
  -5  14  -1   25.08    0.99
   5 -14   1   22.92    1.60
   5 -14   1   25.36    0.77
  -4  13  -1   20.42    1.86
  -4  13  -1   21.84    0.89
   4 -13   1   18.65    1.39
   4 -13   1   19.04    0.63
  -3  12  -1   14.77    0.99
  -3  12  -1   13.20    1.53
   3 -12   1   14.36    1.12
   3 -12   1   12.34    0.49
  -2  11  -1  119.70    3.44
  -2  11  -1  115.10    3.74
   2 -11   1  118.14    4.84
   2 -11   1  114.52    2.77
  -1  10  -1    4.45    0.66
  -1  10  -1    5.24    0.39
   1 -10   1    5.61    0.74
   1 -10   1    4.24    0.29
   0   9  -1    0.67    0.42
   0   9  -1    0.66    0.38
   0  -9   1    0.03    0.49
   0  -9   1   -0.08    0.45
   1   8  -1    3.71    0.58
   1   8  -1    3.31    0.38
  -1  -8   1    4.40    0.59
  -1  -8   1    4.46    0.63
   2   7  -1    0.60    0.69
   2   7  -1    0.98    0.49
  -2  -7   1    1.34    0.73
  -2  -7   1    1.18    0.80
   3   6  -1    5.48    0.54
  -3  -6   1    5.51    1.04
  -3  -6   1    4.20    0.57
   4   5  -1  161.58    4.57
  -4  -5   1  162.75    4.74
  -4  -5   1  147.75    3.95
   5   4  -1  334.87    9.24
  -5  -4   1  338.38   11.13
  -5  -4   1  314.94    8.50
   6   3  -1   57.88    1.28
  -6  -3   1   59.92    2.15
  -6  -3   1   56.90    1.30
  -7  -2   1    0.75    0.22
  -8  -1   1   -0.15    0.36
  -9   0   1    0.95    0.46
 -10   1   1  142.27    5.11
 -11   2   1   35.07    0.61
 -11   2   1   38.75    1.57
 -12   3   1   15.88    0.44
 -12   3   1   16.00    1.52
 -13   4   1    0.15    0.21
 -13   4   1    0.42    0.44
 -14   5   1    6.12    1.20
 -14   5   1    5.67    0.46
 -15   6   1   54.44    1.42
 -15   6   1   56.13    2.38
 -16   7   1   45.32    2.18
 -16   7   1   41.96    1.28
 -17   8   1   13.45    1.25
 -17   8   1   11.73    0.65
 -18   9   1   21.53    1.59
 -18   9   1   18.37    1.23
 -19  10   1    1.52    0.82
 -19  10   1    1.12    0.42
 -20  11   1    3.81    0.54
 -20  11   1    2.45    1.03
 -21  12   1    1.84    1.24
 -21  12   1    0.41    0.41
 -22  13   1   11.21    1.57
 -23  14   1    4.45    1.24
 -24  15   1    1.28    1.22
 -24  15   1    4.51    1.19
 -25  16   1   -0.01    0.97
 -25  16   1    1.22    1.00
 -26  17   1    0.78    0.97
 -26  17   1   -0.26    1.68
 -27  18   1    4.77    1.61
 -27  18   1    3.72    2.24
 -17  28  -1    0.34    1.04
 -16  27  -1   -1.15    1.13
 -15  26  -1   -0.56    0.94
  15 -26   1   -0.17    1.00
 -14  25  -1    1.74    0.99
  14 -25   1    0.09    1.04
 -13  24  -1   -0.22    0.89
 -13  24  -1    0.79    0.52
  13 -24   1    0.93    1.51
 -12  23  -1    5.21    1.14
 -12  23  -1    5.46    1.26
  12 -23   1    5.80    1.33
 -11  22  -1   -0.50    0.74
 -11  22  -1    0.17    0.70
  11 -22   1    1.32    0.82
 -10  21  -1    6.80    1.90
 -10  21  -1    7.95    1.17
  10 -21   1    7.92    2.14
  -9  20  -1    2.61    0.60
  -9  20  -1    2.61    0.97
   9 -20   1    3.41    1.08
   9 -20   1    2.10    0.47
  -8  19  -1    1.14    0.87
  -8  19  -1    1.96    0.55
   8 -19   1    1.23    0.96
   8 -19   1    0.82    0.39
  -7  18  -1    0.11    0.76
  -7  18  -1    0.21    0.73
   7 -18   1    0.61    0.32
   7 -18   1    0.65    0.81
  -6  17  -1   20.79    1.13
  -6  17  -1   18.21    1.54
   6 -17   1   17.80    0.60
   6 -17   1   17.96    1.71
  -5  16  -1    9.24    1.16
  -5  16  -1   10.48    1.70
   5 -16   1    8.08    1.17
   5 -16   1    7.00    0.50
  -4  15  -1   11.90    1.31
  -4  15  -1   10.12    1.76
   4 -15   1   11.54    0.57
   4 -15   1   13.41    1.25
  -3  14  -1    4.93    0.83
  -3  14  -1    7.30    1.02
   3 -14   1    6.14    0.46
   3 -14   1    8.17    1.50
  -2  13  -1    2.38    0.79
  -2  13  -1    3.41    0.70
   2 -13   1    3.03    0.25
   2 -13   1    2.38    0.80
  -1  12  -1   98.87    2.83
  -1  12  -1   94.31    3.22
   1 -12   1   94.01    2.67
   1 -12   1   96.92    3.50
   0  11  -1   43.40    1.73
   0  11  -1   42.16    1.41
   0 -11   1   43.38    1.62
   0 -11   1   46.16    2.59
   1  10  -1  131.72    4.70
   1  10  -1  137.14    4.20
  -1 -10   1  138.45    4.11
  -1 -10   1  136.84    4.43
   2   9  -1   48.60    1.70
   2   9  -1   47.13    1.86
  -2  -9   1   51.14    1.87
  -2  -9   1   49.86    2.59
   3   8  -1  176.69    4.99
   3   8  -1  176.10    5.40
  -3  -8   1  179.28    5.96
  -3  -8   1  178.32    5.47
   4   7  -1   61.98    2.50
   4   7  -1   65.39    2.38
  -4  -7   1   64.00    1.96
  -4  -7   1   67.36    3.22
   5   6  -1    7.28    0.53
  -5  -6   1    7.09    0.84
  -5  -6   1    6.89    0.56
   6   5  -1    2.77    0.34
  -6  -5   1    1.46    0.67
  -6  -5   1    3.12    0.55
  -7  -4   1   -0.26    0.20
  -7  -4   1   -0.28    0.50
  -8  -3   1    5.09    0.27
  -8  -3   1    4.97    1.23
  -9  -2   1  104.62    2.19
  -9  -2   1  104.86    3.60
 -10  -1   1    5.00    0.18
 -11   0   1   43.86    0.65
 -11   0   1   45.57    0.67
 -11   0   1   39.53    1.72
 -12   1   1  174.56    5.82
 -13   2   1   36.61    0.73
 -13   2   1   35.19    1.63
 -14   3   1    3.31    0.69
 -14   3   1    3.23    0.17
 -15   4   1    2.42    0.68
 -15   4   1    3.38    0.33
 -16   5   1   16.63    1.28
 -16   5   1   16.29    0.54
 -17   6   1   29.07    1.14
 -17   6   1   31.35    1.78
 -18   7   1   68.65    3.01
 -18   7   1   64.64    2.16
 -19   8   1    6.68    0.52
 -19   8   1    6.42    1.74
 -20   9   1   26.68    2.00
 -20   9   1   27.37    1.43
 -21  10   1    6.47    0.59
 -21  10   1    7.28    1.80
 -22  11   1    9.48    0.71
 -22  11   1    8.36    1.42
 -23  12   1    0.68    0.79
 -23  12   1    0.08    0.38
 -23  12   1    0.52    0.86
 -24  13   1    5.64    1.38
 -24  13   1    4.33    1.31
 -25  14   1    0.28    0.91
 -25  14   1    0.22    0.90
 -26  15   1    0.37    1.62
 -26  15   1    0.71    1.54
 -27  16   1   -0.04    0.90
 -27  16   1    0.08    0.87
 -28  17   1    0.88    1.16
 -28  17   1    1.12    1.88
 -15  28  -1   -0.33    1.05
  15 -28   1   -0.39    1.06
 -14  27  -1    3.48    1.24
  14 -27   1    0.01    1.26
 -13  26  -1    0.31    0.88
  13 -26   1    0.03    1.46
 -12  25  -1    1.33    1.58
 -12  25  -1    1.50    0.58
  12 -25   1   -0.07    1.10
 -11  24  -1    1.53    0.63
 -11  24  -1    1.27    0.99
  11 -24   1    1.65    1.10
 -10  23  -1    1.20    0.54
 -10  23  -1    1.26    0.86
  10 -23   1    0.41    0.26
  10 -23   1   -0.63    1.49
  -9  22  -1    3.40    0.74
  -9  22  -1    3.89    1.08
   9 -22   1    4.51    0.55
   9 -22   1    2.93    1.23
  -8  21  -1    0.62    0.90
  -8  21  -1    1.27    0.84
   8 -21   1    1.00    0.25
   8 -21   1    0.59    0.94
  -7  20  -1    4.69    1.12
  -7  20  -1    3.26    1.22
   7 -20   1    3.57    0.33
   7 -20   1    2.92    1.87
  -6  19  -1    2.56    0.73
  -6  19  -1    3.48    1.52
   6 -19   1    1.78    1.10
   6 -19   1    2.29    0.43
  -5  18  -1   -0.16    0.61
  -5  18  -1   -0.02    0.80
   5 -18   1   -0.21    0.73
   5 -18   1    0.12    0.19
  -4  17  -1    2.75    0.74
  -4  17  -1    2.12    0.85
   4 -17   1    3.16    1.54
   4 -17   1    2.46    0.43
  -3  16  -1   26.13    1.35
  -3  16  -1   22.74    1.59
   3 -16   1   23.97    1.76
   3 -16   1   22.68    0.95
  -2  15  -1   18.12    1.62
  -2  15  -1   22.63    1.34
   2 -15   1   17.86    0.86
   2 -15   1   19.31    1.49
  -1  14  -1  103.19    3.66
   1 -14   1  105.23    2.87
   1 -14   1  107.75    5.03
   0  13  -1   91.99    3.22
   0  13  -1  103.94    3.84
   0 -13   1   95.68    3.68
   0 -13   1   96.30    2.74
   1  12  -1  187.24    6.14
   1  12  -1  165.96    5.34
  -1 -12   1  172.64    5.89
  -1 -12   1  165.81    4.99
   2  11  -1   38.29    2.06
   2  11  -1   34.26    1.93
  -2 -11   1   37.02    2.38
  -2 -11   1   37.73    2.32
   3  10  -1    5.06    0.64
   3  10  -1    7.05    0.66
  -3 -10   1    6.72    0.74
  -3 -10   1    5.06    1.47
   4   9  -1  114.11    3.34
   4   9  -1  116.16    3.42
  -4  -9   1  114.52    3.88
  -4  -9   1  114.27    3.49
   5   8  -1    0.72    0.44
   5   8  -1    0.98    0.36
  -5  -8   1    1.33    0.67
  -5  -8   1    0.78    0.63
   6   7  -1    0.04    0.29
   6   7  -1    0.46    0.41
  -6  -7   1   -0.26    0.55
  -6  -7   1    0.56    0.32
  -7  -6   1  146.24    4.36
  -7  -6   1  150.69    4.97
  -8  -5   1  139.18    3.49
  -8  -5   1  140.82    4.65
  -9  -4   1   11.70    0.62
  -9  -4   1   12.51    1.65
 -10  -3   1   32.41    1.70
 -10  -3   1   31.16    0.74
 -11  -2   1  118.78    2.56
 -11  -2   1  114.36    5.05
 -12  -1   1  101.10    3.81
 -13   0   1  101.75    1.95
 -13   0   1  102.86    3.95
 -14   1   1   13.37    1.16
 -14   1   1   16.80    0.42
 -14   1   1   17.44    1.41
 -15   2   1    2.94    1.09
 -15   2   1    2.43    0.15
 -15   2   1    1.72    0.87
 -16   3   1    4.55    1.05
 -16   3   1    4.69    0.33
 -16   3   1    5.05    0.85
 -17   4   1    0.80    1.01
 -17   4   1    2.60    0.81
 -17   4   1    0.50    0.18
 -18   5   1   21.57    1.60
 -18   5   1   21.83    0.89
 -18   5   1   18.86    1.89
 -19   6   1    7.86    1.45
 -19   6   1    8.08    1.72
 -19   6   1    7.30    0.44
 -20   7   1    3.28    0.90
 -20   7   1    1.47    0.53
 -20   7   1    1.37    1.11
 -21   8   1    1.29    0.34
 -21   8   1    2.01    1.30
 -21   8   1    1.42    1.02
 -22   9   1    1.19    1.01
 -22   9   1    0.90    0.93
 -22   9   1    2.02    0.58
 -23  10   1    1.63    0.41
 -23  10   1    2.09    0.98
 -23  10   1    0.18    1.05
 -24  11   1   12.90    2.52
 -24  11   1   11.57    1.59
 -24  11   1    8.84    0.71
 -25  12   1    4.56    1.30
 -25  12   1    3.48    2.10
 -26  13   1    1.19    1.05
 -26  13   1   -0.32    1.59
 -27  14   1    4.01    1.57
 -27  14   1    7.81    1.54
 -28  15   1    2.23    1.40
 -28  15   1    5.22    2.25
  14 -29   1   -0.25    1.11
 -13  28  -1    0.86    1.11
  13 -28   1    0.36    1.82
 -12  27  -1   -0.25    0.87
  12 -27   1    0.10    0.96
 -11  26  -1    1.10    0.94
 -11  26  -1    1.76    1.05
  11 -26   1   -0.07    1.14
 -10  25  -1   13.33    1.69
 -10  25  -1   12.39    1.69
  10 -25   1   10.82    2.82
  10 -25   1   11.53    0.63
  -9  24  -1    7.47    2.16
  -9  24  -1    9.39    1.56
   9 -24   1    7.88    0.52
   9 -24   1    8.47    1.60
  -8  23  -1    0.90    1.39
  -8  23  -1    2.17    1.04
   8 -23   1    0.88    0.28
   8 -23   1    1.16    1.03
  -7  22  -1    0.96    0.96
  -7  22  -1   -0.17    0.78
   7 -22   1    1.49    1.41
   7 -22   1    0.53    0.39
  -6  21  -1    9.64    1.16
  -6  21  -1   11.38    1.41
   6 -21   1   10.10    1.64
   6 -21   1   10.33    0.76
  -5  20  -1    9.87    1.14
  -5  20  -1    9.97    1.34
   5 -20   1    7.47    0.48
   5 -20   1    9.96    1.53
  -4  19  -1   -0.43    0.67
  -4  19  -1   -0.50    0.92
   4 -19   1   -0.07    0.35
   4 -19   1    0.60    1.26
  -3  18  -1    1.87    0.85
  -3  18  -1    3.06    0.78
   3 -18   1    1.81    0.31
   3 -18   1    1.48    1.03
  -2  17  -1    7.75    1.09
  -2  17  -1    7.71    0.96
   2 -17   1    8.02    1.28
   2 -17   1    7.08    0.46
  -1  16  -1    4.35    0.91
  -1  16  -1    4.45    1.28
   1 -16   1    5.18    1.58
   1 -16   1    4.21    0.42
   0  15  -1   46.89    1.92
   0  15  -1   40.06    1.99
   0 -15   1   43.49    1.46
   0 -15   1   44.60    2.31
   1  14  -1   13.96    1.18
   1  14  -1   18.12    1.08
  -1 -14   1   17.05    0.89
  -1 -14   1   16.30    1.33
   2  13  -1   37.13    1.67
   2  13  -1   37.50    2.22
  -2 -13   1   37.86    2.53
  -2 -13   1   38.01    1.71
   3  12  -1   15.22    1.57
   3  12  -1   14.37    1.50
  -3 -12   1   15.25    2.00
  -3 -12   1   15.98    1.11
   4  11  -1   70.25    2.47
   4  11  -1   65.57    2.28
  -4 -11   1   70.46    3.12
  -4 -11   1   70.81    2.53
   5  10  -1  103.91    3.33
   5  10  -1  107.00    3.26
  -5 -10   1  103.09    3.30
  -5 -10   1  101.88    3.84
   6   9  -1   57.40    2.16
  -6  -9   1   65.95    2.15
  -6  -9   1   66.03    2.74
   7   8  -1    4.63    1.12
  -7  -8   1    4.97    0.84
  -7  -8   1    5.09    0.99
   8   7  -1   36.60    1.66
  -8  -7   1   40.40    1.31
  -8  -7   1   36.44    1.97
  -9  -6   1   71.36    2.30
  -9  -6   1   68.60    2.82
 -10  -5   1   10.24    0.49
 -10  -5   1   10.37    1.76
 -11  -4   1    3.20    0.86
 -11  -4   1    2.59    0.27
 -12  -3   1   13.00    2.04
 -12  -3   1   13.64    0.58
 -13  -2   1    3.30    0.90
 -14  -1   1  110.21    4.35
 -15   0   1   44.05    2.42
 -15   0   1   46.10    1.00
 -16   1   1   12.36    1.22
 -16   1   1   16.72    2.29
 -16   1   1   14.98    0.48
 -17   2   1   23.13    0.68
 -17   2   1   21.50    2.29
 -17   2   1   25.79    2.90
 -18   3   1    6.60    1.08
 -18   3   1    7.55    0.44
 -18   3   1    6.82    2.10
 -19   4   1   14.27    0.67
 -19   4   1   14.33    2.69
 -19   4   1   17.21    2.13
 -20   5   1   18.88    0.85
 -20   5   1   22.88    3.05
 -20   5   1   19.17    1.66
 -21   6   1   11.05    1.96
 -21   6   1   11.26    2.50
 -21   6   1    9.73    0.50
 -22   7   1   32.27    3.63
 -22   7   1   34.94    1.38
 -22   7   1   32.14    2.26
 -23   8   1   31.46    2.46
 -23   8   1   30.24    1.37
 -23   8   1   30.30    2.30
 -24   9   1   33.17    2.40
 -24   9   1   27.97    1.12
 -24   9   1   29.65    2.54
 -25  10   1   15.96    0.85
 -25  10   1   17.43    2.10
 -25  10   1   18.90    1.97
 -26  11   1    1.07    0.89
 -26  11   1   -1.18    0.85
 -27  12   1    4.04    1.43
 -27  12   1    4.57    1.42
 -28  13   1    2.87    2.05
 -28  13   1    2.34    2.30
 -29  14   1   -3.05    1.49
 -29  14   1   -1.55    1.39
  12 -29   1    0.02    0.99
 -11  28  -1   -0.30    0.97
  11 -28   1   -0.30    1.08
 -10  27  -1    7.92    1.45
  10 -27   1   -0.24    2.43
  10 -27   1    5.31    0.45
  -9  26  -1    7.15    1.47
  -9  26  -1    4.80    1.46
   9 -26   1   -0.12    1.53
   9 -26   1    5.81    0.47
  -8  25  -1    3.12    1.45
  -8  25  -1    5.90    1.33
   8 -25   1    4.76    0.43
   8 -25   1    4.48    1.48
  -7  24  -1   16.27    1.87
  -7  24  -1   17.74    1.76
   7 -24   1   13.44    0.92
   7 -24   1   17.46    2.97
  -6  23  -1   18.12    1.97
  -6  23  -1   12.83    1.78
   6 -23   1   17.18    0.98
   6 -23   1   14.50    2.00
  -5  22  -1    9.19    1.50
  -5  22  -1    9.59    1.17
   5 -22   1   10.77    0.58
   5 -22   1   10.41    1.69
  -4  21  -1    1.16    0.88
  -4  21  -1    0.45    0.78
   4 -21   1    1.25    1.67
   4 -21   1    1.08    0.48
  -3  20  -1    2.51    1.44
  -3  20  -1    0.67    1.20
   3 -20   1    2.07    1.05
   3 -20   1    1.21    0.34
  -2  19  -1    1.35    1.50
  -2  19  -1    3.48    0.89
   2 -19   1    3.84    1.16
   2 -19   1    2.88    0.60
  -1  18  -1    1.31    1.48
  -1  18  -1    6.03    1.61
   1 -18   1    4.12    0.67
   1 -18   1    5.81    1.79
   0  17  -1   70.97    2.92
   0  17  -1   66.94    3.93
   0 -17   1   65.05    3.28
   0 -17   1   68.92    2.26
   1  16  -1   13.95    1.73
   1  16  -1   14.47    1.25
  -1 -16   1   12.63    0.88
  -1 -16   1   14.01    1.42
   2  15  -1    1.72    0.70
   2  15  -1    1.80    0.68
  -2 -15   1    1.91    1.18
  -2 -15   1    1.70    0.83
   3  14  -1    3.07    0.69
   3  14  -1    1.87    0.70
  -3 -14   1    2.80    0.78
  -3 -14   1    3.02    0.75
   4  13  -1   -0.27    0.71
   4  13  -1    0.00    0.42
  -4 -13   1    0.44    0.97
  -4 -13   1   -0.07    0.47
   5  12  -1  125.87    4.23
  -5 -12   1  121.69    4.15
  -5 -12   1  120.67    5.01
   6  11  -1  124.11    4.23
  -6 -11   1  129.99    4.26
  -6 -11   1  129.19    5.24
   7  10  -1  191.02    7.13
  -7 -10   1  206.88    7.18
  -7 -10   1  210.25    9.23
   8   9  -1    3.04    0.74
  -8  -9   1    2.86    0.53
  -8  -9   1    4.40    1.65
   9   8  -1  108.66    3.88
  -9  -8   1  117.09    4.64
  -9  -8   1  112.08    3.82
 -10  -7   1    0.45    0.33
 -10  -7   1    0.71    0.79
 -11  -6   1  142.20    4.20
 -11  -6   1  136.79    5.10
 -12  -5   1    2.41    0.31
 -12  -5   1    3.29    0.97
 -13  -4   1   16.07    1.58
 -13  -4   1   19.78    0.65
 -14  -3   1    8.86    1.28
 -15  -2   1   20.05    1.80
 -16  -1   1    4.08    1.75
 -17   0   1   70.39    3.46
 -17   0   1   70.05    1.50
 -18   1   1  106.96    5.04
 -18   1   1  117.65    2.77
 -18   1   1  107.53    4.53
 -19   2   1   49.76    3.15
 -19   2   1   55.83    1.42
 -19   2   1   50.59    3.67
 -20   3   1   35.65    2.29
 -20   3   1   35.67    1.06
 -20   3   1   34.22    2.65
 -21   4   1   14.79    2.44
 -21   4   1   17.72    2.03
 -21   4   1   17.75    0.76
 -22   5   1    8.94    1.24
 -22   5   1    5.86    1.44
 -22   5   1    6.69    0.54
 -23   6   1   28.81    2.98
 -23   6   1   28.35    2.44
 -23   6   1   29.80    1.14
 -24   7   1    0.13    0.69
 -24   7   1    0.03    0.20
 -24   7   1   -1.09    0.79
 -25   8   1   16.90    1.00
 -25   8   1   17.52    2.06
 -25   8   1   17.01    1.90
 -26   9   1    8.85    1.48
 -26   9   1    7.58    2.47
 -26   9   1    6.50    0.49
 -27  10   1    2.89    1.40
 -27  10   1    2.41    1.23
 -28  11   1    1.09    1.25
 -28  11   1    2.45    1.37
 -29  12   1    0.34    1.11
 -29  12   1    0.76    1.19
 -30  13   1   -1.49    1.28
 -30  13   1    0.75    1.88
  11 -30   1   -0.19    1.23
  10 -29   1   -0.21    1.78
   9 -28   1   -0.09    1.03
  -8  27  -1    2.37    1.06
   8 -27   1    0.97    0.31
   8 -27   1   -0.08    1.18
  -7  26  -1    6.76    1.47
  -7  26  -1   -0.50    1.36
   7 -26   1    5.13    0.46
   7 -26   1    4.27    2.37
  -6  25  -1    2.13    0.99
  -6  25  -1   -0.02    1.11
   6 -25   1    0.54    0.49
   6 -25   1    1.22    1.09
  -5  24  -1   18.54    2.01
  -5  24  -1   22.82    2.13
   5 -24   1   18.39    0.89
   5 -24   1   19.14    2.21
  -4  23  -1   30.09    2.29
  -4  23  -1   29.95    1.78
   4 -23   1   30.66    1.20
   4 -23   1   34.28    3.71
  -3  22  -1    0.68    0.65
  -3  22  -1    0.18    0.81
   3 -22   1   -0.71    0.88
   3 -22   1    0.41    0.49
  -2  21  -1   15.85    2.25
  -2  21  -1   13.28    1.62
   2 -21   1   15.20    0.81
   2 -21   1   14.07    1.90
  -1  20  -1    2.77    0.98
  -1  20  -1    1.06    1.35
   1 -20   1    0.11    1.75
   1 -20   1    2.10    0.65
   0  19  -1   17.29    1.48
   0  19  -1   17.30    1.53
   0 -19   1   14.90    0.88
   0 -19   1   17.82    1.79
   1  18  -1  114.75    5.61
   1  18  -1  105.24    4.36
  -1 -18   1  110.12    3.72
  -1 -18   1  112.90    5.05
   2  17  -1   21.66    1.57
   2  17  -1   22.74    1.62
  -2 -17   1   22.97    2.70
  -2 -17   1   22.84    1.24
   3  16  -1    0.02    0.78
   3  16  -1    4.01    1.26
  -3 -16   1    3.98    0.88
  -3 -16   1    3.29    0.75
   4  15  -1    1.98    0.80
  -4 -15   1    2.97    0.92
  -4 -15   1    3.95    0.85
   5  14  -1    6.00    0.90
  -5 -14   1    5.59    1.97
  -5 -14   1    7.05    0.94
   6  13  -1   16.19    1.29
  -6 -13   1   15.53    1.89
  -6 -13   1   16.23    1.20
   7  12  -1    0.02    0.60
  -7 -12   1    1.64    0.94
  -7 -12   1    0.90    0.83
   8  11  -1   76.42    3.74
  -8 -11   1   68.46    2.53
  -8 -11   1   74.90    3.64
   9  10  -1   -0.29    0.55
  -9 -10   1    0.50    0.40
  -9 -10   1   -0.10    0.80
  10   9  -1   10.22    1.00
 -10  -9   1    9.07    1.41
 -10  -9   1    7.37    0.69
  11   8  -1   36.49    1.90
 -11  -8   1   35.91    2.48
 -11  -8   1   34.10    1.29
 -12  -7   1   29.92    2.06
 -12  -7   1   24.99    0.99
 -13  -6   1    5.34    1.98
 -13  -6   1    4.71    0.43
 -14  -5   1   23.32    2.02
 -14  -5   1   24.79    0.83
 -15  -4   1   13.57    1.72
 -16  -3   1   23.87    3.15
 -17  -2   1    8.04    1.54
 -18  -1   1    3.45    1.36
 -19   0   1   17.33    2.06
 -19   0   1   12.75    1.47
 -19   0   1   17.04    0.64
 -20   1   1    1.27    0.78
 -20   1   1    0.58    0.27
 -20   1   1    0.33    1.10
 -21   2   1    5.48    1.91
 -21   2   1    6.15    1.71
 -21   2   1    7.08    0.46
 -22   3   1   14.69    0.47
 -22   3   1   15.14    2.01
 -22   3   1   13.63    1.57
 -23   4   1    4.48    1.48
 -23   4   1    5.53    1.78
 -23   4   1    5.31    0.31
 -24   5   1   31.00    2.78
 -24   5   1   36.21    2.46
 -24   5   1   32.29    0.95
 -25   6   1    0.38    0.91
 -25   6   1    0.60    1.18
 -25   6   1   -0.12    0.19
 -26   7   1    9.37    1.52
 -26   7   1    8.38    0.65
 -26   7   1    8.98    1.81
 -27   8   1    5.66    1.63
 -27   8   1    4.52    2.10
 -28   9   1    4.31    1.39
 -28   9   1    3.46    1.58
 -29  10   1    8.04    1.80
 -29  10   1    5.21    1.65
 -30  11   1    0.93    2.08
 -30  11   1   -1.47    1.22
  10 -31   1   -0.18    1.21
   9 -30   1    0.27    1.21
   8 -29   1    0.05    1.01
  -7  28  -1    0.24    0.72
   7 -28   1    0.09    0.96
   7 -28   1    0.02    0.25
  -6  27  -1    4.17    0.88
   6 -27   1    4.00    0.46
   6 -27   1    0.00    1.51
  -5  26  -1   14.70    1.93
   5 -26   1   12.25    1.98
   5 -26   1   11.21    1.01
  -4  25  -1   56.43    3.49
   4 -25   1   52.45    3.58
   4 -25   1   46.95    1.77
  -3  24  -1   16.58    2.07
   3 -24   1   14.51    2.00
   3 -24   1   14.56    0.85
  -2  23  -1   -0.06    1.13
   2 -23   1   -0.03    1.04
   2 -23   1    1.37    0.61
  -1  22  -1    2.51    0.95
   1 -22   1    2.64    0.51
   1 -22   1    3.40    1.23
   0  21  -1   14.38    1.60
   0 -21   1   14.02    1.25
   0 -21   1   16.41    1.92
   1  20  -1    2.44    1.25
  -1 -20   1    0.02    0.98
  -1 -20   1    0.53    0.47
   2  19  -1   53.81    2.74
  -2 -19   1   52.37    4.47
  -2 -19   1   51.38    2.15
   3  18  -1    5.00    1.82
  -3 -18   1    8.16    1.43
  -3 -18   1    5.84    1.28
   4  17  -1    0.70    0.80
  -4 -17   1    1.11    0.83
  -4 -17   1    1.86    0.75
   5  16  -1   15.02    1.47
  -5 -16   1   12.96    1.57
  -5 -16   1   18.02    2.16
   6  15  -1   52.68    2.53
  -6 -15   1   52.94    2.53
  -6 -15   1   56.44    4.50
   7  14  -1    7.17    1.73
  -7 -14   1    7.74    1.03
  -7 -14   1    8.78    2.59
   8  13  -1   63.64    2.77
  -8 -13   1   62.29    2.55
  -8 -13   1   74.36    5.31
   9  12  -1   60.29    3.56
  -9 -12   1   55.72    2.26
  -9 -12   1   56.29    4.86
  10  11  -1   12.66    1.26
 -10 -11   1   13.87    1.91
 -10 -11   1   15.37    1.43
  11  10  -1    1.93    1.32
 -11 -10   1    2.85    0.54
 -11 -10   1    0.04    1.20
  12   9  -1    0.46    0.73
 -12  -9   1    1.24    0.44
 -12  -9   1    1.69    1.07
 -13  -8   1   43.87    1.52
 -13  -8   1   42.64    2.94
 -14  -7   1   12.97    1.87
 -14  -7   1   13.37    0.73
 -15  -6   1   41.36    1.33
 -15  -6   1   44.09    3.06
 -16  -5   1    7.79    0.51
 -16  -5   1   12.01    2.53
 -17  -4   1    2.95    1.35
 -18  -3   1    2.10    1.32
 -19  -2   1    2.06    1.40
 -20  -1   1    2.58    2.39
 -21   0   1   14.75    1.58
 -21   0   1   14.61    0.65
 -21   0   1   18.18    3.38
 -22   1   1    5.40    0.42
 -22   1   1    5.41    1.63
 -22   1   1    8.05    1.22
 -23   2   1    1.53    0.19
 -23   2   1    0.83    1.20
 -23   2   1    0.86    0.93
 -24   3   1   27.89    0.89
 -24   3   1   29.23    2.23
 -24   3   1   27.02    2.61
 -25   4   1   20.60    1.96
 -25   4   1   16.22    2.34
 -25   4   1   20.55    0.76
 -26   5   1   20.08    2.22
 -26   5   1   15.80    0.70
 -26   5   1   19.61    1.94
 -27   6   1   17.73    3.72
 -27   6   1   23.15    3.20
 -28   7   1   12.63    1.81
 -28   7   1    7.66    3.37
 -29   8   1    1.25    1.56
 -29   8   1    3.90    1.93
 -30   9   1    0.55    1.40
 -30   9   1    5.18    1.68
 -31  10   1    0.02    1.93
 -31  10   1    1.64    1.48
   8 -31   1    0.30    1.30
   7 -30   1    0.06    1.06
   6 -29   1    0.32    0.30
   6 -29   1   -0.05    1.79
  -5  28  -1   -0.01    0.56
   5 -28   1    0.17    1.01
  -4  27  -1    7.00    1.00
   4 -27   1    5.23    0.86
   4 -27   1    0.28    1.71
  -3  26  -1   21.01    1.71
   3 -26   1   25.75    3.59
   3 -26   1   21.83    1.50
  -2  25  -1   24.49    1.80
   2 -25   1   25.35    2.52
   2 -25   1   23.47    1.21
  -1  24  -1   -0.02    0.69
   1 -24   1    0.87    0.97
   1 -24   1    0.31    0.61
   0  23  -1    1.93    1.40
   0 -23   1    0.48    1.83
   0 -23   1    1.84    0.52
   1  22  -1    3.46    1.10
  -1 -22   1    4.80    0.68
  -1 -22   1    5.93    1.38
   2  21  -1    8.19    1.29
  -2 -21   1    7.77    1.28
  -2 -21   1    7.47    1.56
   3  20  -1   34.17    3.49
  -3 -20   1   36.81    2.65
  -3 -20   1   40.67    2.59
   4  19  -1   12.30    1.52
  -4 -19   1   15.69    1.73
  -4 -19   1   14.58    1.33
   5  18  -1   18.21    1.74
  -5 -18   1   19.36    1.68
  -5 -18   1   20.59    1.80
   6  17  -1   29.50    2.92
  -6 -17   1   28.35    2.25
  -6 -17   1   29.54    2.05
   7  16  -1   42.16    2.43
  -7 -16   1   42.28    2.94
  -7 -16   1   42.29    2.35
   8  15  -1    1.86    1.54
  -8 -15   1    3.60    1.56
  -8 -15   1    4.60    1.41
   9  14  -1    0.60    0.85
  -9 -14   1    1.38    1.40
  -9 -14   1    1.77    0.69
  10  13  -1   -0.57    1.15
 -10 -13   1   -0.37    0.54
 -10 -13   1    0.14    1.13
  11  12  -1   31.81    2.12
 -11 -12   1   35.45    2.31
 -11 -12   1   36.69    3.03
  12  11  -1    1.08    1.24
 -12 -11   1    3.07    1.96
 -12 -11   1    0.72    0.53
  13  10  -1   70.59    3.26
 -13 -10   1   67.00    2.47
 -13 -10   1   72.83    4.38
 -14  -9   1   80.84    2.66
 -14  -9   1   81.88    4.57
 -15  -8   1   36.33    3.18
 -15  -8   1   37.30    1.44
 -16  -7   1   44.44    3.31
 -16  -7   1   44.69    2.03
 -17  -6   1   16.78    2.39
 -17  -6   1   20.87    0.91
 -18  -5   1   -0.19    1.08
 -18  -5   1    0.22    0.27
 -19  -4   1    1.89    2.28
 -20  -3   1    0.60    1.26
 -21  -2   1   17.49    2.41
 -22  -1   1    4.18    1.61
 -22  -1   1    3.21    0.27
 -22  -1   1    0.33    1.04
 -23   0   1    3.16    1.39
 -23   0   1    1.64    0.21
 -23   0   1    3.00    0.96
 -24   1   1    2.85    1.73
 -24   1   1    3.72    0.25
 -24   1   1    2.78    1.50
 -25   2   1   13.08    0.42
 -25   2   1   11.38    2.20
 -25   2   1   12.45    1.72
 -26   3   1   12.98    2.24
 -26   3   1   14.02    1.79
 -26   3   1   12.55    0.52
 -27   4   1    3.93    1.71
 -27   4   1    4.13    1.26
 -28   5   1    0.99    0.99
 -28   5   1    0.28    1.31
 -29   6   1   14.57    2.21
 -29   6   1    8.76    1.81
 -30   7   1    6.99    1.90
 -30   7   1    3.80    1.56
 -31   8   1   -0.12    1.18
 -31   8   1    0.01    1.54
   7 -32   1   -0.45    1.35
   6 -31   1   -0.11    1.79
   5 -30   1   -0.22    1.17
  -4  29  -1    3.49    1.36
   4 -29   1    4.99    0.58
   4 -29   1   -0.26    1.74
  -3  28  -1    1.29    1.17
   3 -28   1    0.12    1.98
   3 -28   1    1.21    0.47
  -2  27  -1    6.76    1.55
   2 -27   1   -0.11    1.57
   2 -27   1    4.14    0.92
  -1  26  -1    3.12    1.50
   1 -26   1    3.92    0.65
   1 -26   1    1.70    1.52
   0  25  -1    0.47    0.60
   0 -25   1   -0.20    0.38
   0 -25   1    0.38    1.33
   1  24  -1    3.54    1.00
  -1 -24   1    2.93    0.65
  -1 -24   1    3.93    1.40
   2  23  -1    0.81    0.86
  -2 -23   1    2.40    0.89
  -2 -23   1    0.56    1.12
   3  22  -1   13.73    2.33
  -3 -22   1   13.22    1.17
  -3 -22   1   15.18    2.78
   4  21  -1   14.80    1.62
  -4 -21   1   17.05    1.92
  -4 -21   1   15.73    1.40
   5  20  -1   18.23    1.88
  -5 -20   1   19.76    2.03
  -5 -20   1   19.72    1.72
   6  19  -1    9.22    2.30
  -6 -19   1    7.43    2.27
  -6 -19   1   10.33    1.47
   7  18  -1   60.80    3.18
  -7 -18   1   58.08    3.54
  -7 -18   1   60.65    3.19
   8  17  -1   14.24    1.55
  -8 -17   1   11.21    1.47
  -8 -17   1   15.04    2.05
   9  16  -1   19.95    1.70
  -9 -16   1   16.72    2.52
  -9 -16   1   18.55    2.35
  10  15  -1   11.15    1.42
 -10 -15   1    9.25    1.18
 -10 -15   1   10.80    2.26
  11  14  -1    4.65    1.58
 -11 -14   1    3.85    1.65
 -11 -14   1    1.96    0.80
  12  13  -1   30.12    2.18
 -12 -13   1   38.40    5.16
 -12 -13   1   28.69    2.31
  13  12  -1   19.15    2.63
 -13 -12   1   18.60    1.28
 -13 -12   1   21.78    2.79
  14  11  -1   68.62    3.53
 -14 -11   1   74.95    4.74
 -14 -11   1   70.63    2.67
 -15 -10   1   71.48    2.56
 -15 -10   1   73.95    4.90
 -16  -9   1   94.68    5.56
 -16  -9   1   94.01    3.19
 -17  -8   1   12.54    2.39
 -17  -8   1   13.87    1.25
 -18  -7   1   -2.14    2.04
 -18  -7   1    0.33    0.36
 -19  -6   1    2.89    1.62
 -19  -6   1    2.16    0.44
 -20  -5   1    0.08    0.31
 -20  -5   1    5.58    1.33
 -21  -4   1    2.79    1.69
 -22  -3   1    0.77    1.37
 -23  -2   1    0.78    2.14
 -24  -1   1    0.60    0.19
 -24  -1   1   -1.13    1.96
 -24  -1   1    0.69    0.89
 -25   0   1    2.16    1.03
 -25   0   1    2.08    2.33
 -26   1   1   -0.02    1.34
 -26   1   1   -0.60    1.16
 -26   1   1    0.37    0.20
 -27   2   1   11.01    2.10
 -27   2   1    9.69    1.70
 -28   3   1    3.71    2.03
 -28   3   1    4.51    2.71
 -29   4   1    1.95    1.24
 -29   4   1    2.47    2.45
 -30   5   1    3.65    3.10
 -30   5   1    7.23    2.42
 -31   6   1    0.62    1.10
 -31   6   1    1.23    2.39
 -32   7   1   -0.14    1.49
 -32   7   1   -0.63    1.16
   4 -31   1    0.13    1.17
  -3  30  -1    0.61    0.60
   3 -30   1    0.29    0.62
   3 -30   1   -0.27    1.24
  -2  29  -1    1.72    0.81
   2 -29   1    0.22    2.16
   2 -29   1    1.31    0.52
  -1  28  -1    1.20    0.73
   1 -28   1   -0.51    1.18
   1 -28   1    0.21    0.47
   0  27  -1    0.81    0.89
   0 -27   1    1.58    0.57
   0 -27   1    0.40    1.25
   1  26  -1   -0.18    0.71
  -1 -26   1   -0.10    0.71
  -1 -26   1    2.13    1.54
   2  25  -1   14.72    2.32
  -2 -25   1   14.55    1.98
  -2 -25   1   12.06    1.16
   3  24  -1   27.97    3.00
  -3 -24   1   31.38    2.69
  -3 -24   1   30.25    1.75
   4  23  -1    3.42    1.09
  -4 -23   1    4.43    2.07
  -4 -23   1    4.36    0.86
   5  22  -1    6.32    1.22
  -5 -22   1    4.56    1.04
  -5 -22   1    5.26    1.43
   6  21  -1   10.04    2.27
  -6 -21   1    9.88    1.35
  -6 -21   1    9.93    1.64
   7  20  -1    2.26    1.13
  -7 -20   1    4.44    1.21
  -7 -20   1    2.83    1.86
   8  19  -1    6.82    1.43
  -8 -19   1    8.16    1.77
  -8 -19   1    7.11    1.37
   9  18  -1   19.26    2.93
  -9 -18   1   17.01    1.77
  -9 -18   1   20.99    2.45
  10  17  -1    4.53    1.24
 -10 -17   1    4.87    1.85
 -10 -17   1    4.84    1.71
  11  16  -1   -0.01    0.89
 -11 -16   1    0.66    0.69
 -11 -16   1    0.32    1.35
  12  15  -1   30.44    2.19
 -12 -15   1   27.94    1.81
 -12 -15   1   29.64    5.47
  13  14  -1    0.75    0.87
 -13 -14   1   -0.03    1.44
 -13 -14   1    0.17    0.96
  14  13  -1   -0.26    1.39
 -14 -13   1    1.43    1.34
 -14 -13   1    0.30    0.58
  15  12  -1    2.84    1.24
 -15 -12   1    0.87    1.94
 -15 -12   1    4.40    0.77
  16  11  -1   21.49    1.98
 -16 -11   1   21.49    3.06
 -16 -11   1   19.27    1.80
 -17 -10   1   25.01    3.30
 -17 -10   1   25.21    1.35
 -18  -9   1   26.09    4.41
 -18  -9   1   17.23    1.09
 -19  -8   1    0.34    0.69
 -19  -8   1    2.39    1.52
 -20  -7   1    4.87    0.57
 -20  -7   1    6.53    2.13
 -21  -6   1   10.03    0.65
 -21  -6   1   10.75    3.84
 -22  -5   1   11.28    1.81
 -22  -5   1    3.61    0.44
 -23  -4   1   31.84    3.30
 -24  -3   1   15.80    2.56
 -25  -2   1   26.24    3.00
 -25  -2   1   24.26    0.75
 -26  -1   1    5.17    0.42
 -26  -1   1    4.52    1.34
 -26  -1   1    7.29    1.96
 -27   0   1    0.43    1.04
 -27   0   1    3.04    1.47
 -28   1   1    5.97    1.50
 -28   1   1    7.03    2.00
 -29   2   1   -1.33    1.35
 -29   2   1    1.57    1.01
 -30   3   1    1.58    1.51
 -30   3   1    0.73    1.12
 -31   4   1    1.72    1.67
 -31   4   1    1.21    1.24
 -32   5   1    1.87    2.25
 -32   5   1    3.32    1.95
   3 -32   1   -0.21    1.32
   2 -31   1    0.15    0.39
   2 -31   1   -0.06    1.18
  -1  30  -1    0.30    1.03
   1 -30   1    0.56    0.71
   1 -30   1   -0.48    1.23
   0  29  -1    0.61    1.18
   0 -29   1    2.40    1.31
   0 -29   1   -0.01    0.86
   1  28  -1    8.88    1.76
  -1 -28   1    4.42    1.75
  -1 -28   1    4.56    0.87
   2  27  -1    9.21    1.38
  -2 -27   1   10.07    1.07
  -2 -27   1    7.96    1.93
   3  26  -1   17.13    1.64
  -3 -26   1   12.01    2.15
  -3 -26   1   13.58    1.33
   4  25  -1   23.80    2.04
  -4 -25   1   23.76    2.57
  -4 -25   1   23.46    1.70
   5  24  -1   33.68    2.42
  -5 -24   1   35.28    2.84
  -5 -24   1   36.35    2.17
   6  23  -1   26.92    3.21
  -6 -23   1   29.88    2.12
  -6 -23   1   32.61    2.60
   7  22  -1   32.50    2.32
  -7 -22   1   32.75    2.56
  -7 -22   1   34.32    2.33
   8  21  -1    3.31    1.08
  -8 -21   1    1.12    1.15
  -8 -21   1    1.88    1.73
   9  20  -1   32.75    2.47
  -9 -20   1   31.60    2.87
  -9 -20   1   28.71    2.35
  10  19  -1    1.73    1.10
 -10 -19   1    2.10    1.06
 -10 -19   1    1.79    1.54
  11  18  -1   38.35    2.66
 -11 -18   1   34.90    3.44
 -11 -18   1   35.17    3.69
  12  17  -1    1.39    1.14
 -12 -17   1    2.57    0.89
 -12 -17   1   -1.92    1.67
  13  16  -1    1.05    1.08
 -13 -16   1    3.24    1.85
 -13 -16   1    1.37    0.83
  14  15  -1   -0.48    0.90
 -14 -15   1    2.32    1.45
 -14 -15   1    0.15    0.99
  15  14  -1    1.63    1.91
 -15 -14   1    3.84    1.99
 -15 -14   1    2.41    0.78
  16  13  -1    0.11    1.07
 -16 -13   1    1.56    0.66
 -16 -13   1    0.69    1.76
  17  12  -1   48.63    3.18
 -17 -12   1   45.69    2.90
 -17 -12   1   48.95    4.65
 -18 -11   1  110.22    3.95
 -18 -11   1  100.76    6.79
 -19 -10   1   35.09    3.97
 -19 -10   1   39.02    1.75
 -20  -9   1    1.89    0.54
 -20  -9   1   -0.05    1.77
 -21  -8   1    0.51    0.64
 -21  -8   1    1.24    1.47
 -22  -7   1   -0.46    1.52
 -22  -7   1    1.24    0.40
 -23  -6   1   16.70    0.82
 -23  -6   1   16.12    2.85
 -24  -5   1   25.76    2.98
 -24  -5   1   18.57    0.86
 -25  -4   1   61.85    6.56
 -25  -4   1   49.91    1.55
 -26  -3   1   21.69    0.79
 -26  -3   1   24.72    0.81
 -26  -3   1   24.86    4.65
 -27  -2   1    6.69    1.39
 -27  -2   1    8.16    3.17
 -27  -2   1    4.87    0.44
 -28  -1   1    0.55    1.04
 -28  -1   1    1.71    1.42
 -29   0   1    0.87    1.56
 -29   0   1    1.33    1.10
 -30   1   1    0.93    1.60
 -30   1   1    1.50    1.19
 -31   2   1    0.88    1.62
 -31   2   1   -1.50    1.46
 -32   3   1   -1.11    1.26
 -32   3   1   -1.34    2.71
   1 -32   1    1.99    2.64
   0  31  -1    6.30    1.15
   0 -31   1    8.14    1.97
   0 -31   1    5.72    0.87
   1  30  -1    1.87    0.92
  -1 -30   1    1.36    1.48
  -1 -30   1    1.35    0.70
   2  29  -1    0.34    0.82
  -2 -29   1    0.29    1.24
  -2 -29   1    0.65    0.62
   3  28  -1    3.70    1.20
  -3 -28   1    5.50    1.68
  -3 -28   1    4.56    0.90
   4  27  -1    3.30    1.14
  -4 -27   1    2.39    1.54
  -4 -27   1    3.63    0.93
   5  26  -1   17.15    2.79
  -5 -26   1   19.69    1.71
  -5 -26   1   16.91    2.41
   6  25  -1    0.15    1.50
  -6 -25   1    0.57    0.86
  -6 -25   1    2.37    1.14
   7  24  -1    1.02    0.91
  -7 -24   1   -1.63    1.04
  -7 -24   1    1.65    0.84
   8  23  -1   26.64    2.33
  -8 -23   1   28.91    2.53
  -8 -23   1   30.26    2.29
   9  22  -1    1.85    1.10
  -9 -22   1    2.21    1.74
  -9 -22   1    2.13    1.21
  10  21  -1    8.19    2.20
 -10 -21   1    8.16    1.80
 -10 -21   1    8.18    1.43
  11  20  -1    2.73    1.17
 -11 -20   1    2.41    1.11
 -11 -20   1    4.17    1.61
  12  19  -1   -1.27    0.97
 -12 -19   1    0.33    1.26
 -12 -19   1   -0.30    2.21
  13  18  -1   10.35    2.55
 -13 -18   1   12.49    1.47
 -13 -18   1   14.50    2.63
  14  17  -1   13.52    1.80
 -14 -17   1   14.22    1.48
 -14 -17   1   15.43    2.86
  15  16  -1    8.80    1.65
 -15 -16   1   10.33    2.75
 -15 -16   1   10.01    1.84
  16  15  -1    0.88    1.46
 -16 -15   1    0.45    1.54
 -16 -15   1   -0.84    0.64
  17  14  -1    0.64    1.15
 -17 -14   1    2.25    0.72
 -17 -14   1    1.12    1.86
  18  13  -1   37.26    2.81
 -18 -13   1   39.63    4.13
 -18 -13   1   40.87    1.98
 -19 -12   1   17.03    1.78
 -19 -12   1   17.61    3.06
 -20 -11   1   17.38    1.15
 -20 -11   1   14.71    4.41
 -21 -10   1    8.02    2.32
 -21 -10   1    7.40    0.78
 -22  -9   1    2.98    2.05
 -22  -9   1    4.50    0.62
 -23  -8   1    0.98    2.59
 -23  -8   1    1.06    0.68
 -24  -7   1   16.72    1.24
 -24  -7   1   15.82    4.38
 -25  -6   1    1.58    0.62
 -25  -6   1    2.06    1.74
 -26  -5   1   16.40    2.61
 -26  -5   1   11.62    0.91
 -27  -4   1    6.10    2.23
 -27  -4   1    5.78    0.60
 -28  -3   1    3.01    1.81
 -28  -3   1    1.76    1.17
 -29  -2   1    0.90    1.13
 -29  -2   1    1.58    1.64
 -30  -1   1    1.43    1.80
 -30  -1   1    1.66    1.86
 -31   0   1   11.76    1.83
 -31   0   1    3.51    2.66
 -32   1   1   -1.15    1.78
 -32   1   1   -0.63    1.22
 -33   2   1    1.57    1.39
   0 -33   1   -0.44    2.22
  -1 -32   1    0.74    1.47
  -1 -32   1    0.77    0.59
   2  31  -1    0.95    1.32
  -2 -31   1    0.35    1.05
  -2 -31   1    1.87    1.43
   3  30  -1    1.06    1.22
  -3 -30   1   -0.67    1.93
  -3 -30   1    0.12    1.00
   4  29  -1    0.94    1.45
  -4 -29   1    1.50    1.32
  -4 -29   1    0.96    1.22
   5  28  -1    0.43    0.92
  -5 -28   1    0.79    1.26
  -5 -28   1    1.97    1.33
   6  27  -1   23.59    2.11
  -6 -27   1   19.86    2.58
  -6 -27   1   27.46    2.90
   7  26  -1    9.51    1.62
  -7 -26   1    9.64    1.86
  -7 -26   1   11.39    1.56
   8  25  -1   17.67    1.98
  -8 -25   1   14.22    2.21
  -8 -25   1   18.40    2.00
   9  24  -1   33.76    2.54
  -9 -24   1   29.17    2.60
  -9 -24   1   25.73    2.69
  10  23  -1    1.45    1.64
 -10 -23   1    1.05    1.81
 -10 -23   1    1.88    1.26
  11  22  -1    8.49    1.48
 -11 -22   1    5.38    1.92
 -11 -22   1    7.40    1.48
  12  21  -1   -0.38    1.01
 -12 -21   1   -1.79    0.93
 -12 -21   1    1.14    2.20
  13  20  -1   25.34    3.35
 -13 -20   1   21.38    3.05
 -13 -20   1   22.27    2.84
  14  19  -1   59.69    3.52
 -14 -19   1   55.37    3.15
 -14 -19   1   66.72    5.07
  15  18  -1   11.24    1.76
 -15 -18   1   12.83    1.40
 -15 -18   1   11.00    4.32
  16  17  -1   11.11    1.79
 -16 -17   1   11.56    1.34
 -16 -17   1   16.28    2.76
  17  16  -1   -0.92    0.99
 -17 -16   1   -1.28    2.64
 -17 -16   1   -0.40    1.08
  18  15  -1    2.88    1.35
 -18 -15   1    1.45    2.03
 -18 -15   1    4.19    0.83
 -19 -14   1    2.44    0.73
 -19 -14   1    2.63    3.12
 -20 -13   1    0.03    0.53
 -20 -13   1    1.52    1.38
 -21 -12   1    2.27    1.70
 -21 -12   1    0.75    0.90
 -22 -11   1    3.43    2.10
 -22 -11   1   -0.09    0.41
 -23 -10   1    0.45    0.47
 -23 -10   1    0.99    1.55
 -24  -9   1    8.31    0.78
 -24  -9   1   10.90    2.55
 -25  -8   1    5.76    0.63
 -25  -8   1    6.89    2.43
 -26  -7   1    7.21    2.37
 -26  -7   1    5.08    0.57
 -27  -6   1    3.67    0.45
 -27  -6   1    5.44    3.40
 -28  -5   1    3.16    3.12
 -29  -4   1    0.99    1.21
 -29  -4   1    5.66    1.91
 -30  -3   1   -1.44    1.73
 -30  -3   1   -0.71    1.14
 -31  -2   1   -0.22    0.98
 -31  -2   1   -0.01    1.51
 -32  -1   1    3.20    1.43
 -32  -1   1   -0.60    2.05
 -33   0   1    1.17    1.32
 -33   0   1    2.27    2.06
   3  32  -1   -0.13    0.73
  -3 -32   1    0.23    0.95
  -3 -32   1    0.80    1.28
   4  31  -1    0.67    0.90
  -4 -31   1    3.31    2.25
  -4 -31   1    0.44    1.24
   5  30  -1    5.32    1.39
  -5 -30   1    7.57    1.99
  -5 -30   1    6.41    1.87
   6  29  -1   10.22    1.60
  -6 -29   1    9.64    2.28
  -6 -29   1    9.30    2.20
   7  28  -1   10.41    1.72
  -7 -28   1   11.96    2.24
  -7 -28   1   13.39    2.51
   8  27  -1    2.29    1.24
  -8 -27   1    3.74    1.46
  -8 -27   1    2.36    1.27
   9  26  -1    5.91    2.36
  -9 -26   1    6.99    1.64
  -9 -26   1    7.08    1.74
  10  25  -1   20.67    3.10
 -10 -25   1   16.38    2.35
 -10 -25   1   23.08    2.37
  11  24  -1   13.45    1.77
 -11 -24   1   12.97    2.16
 -11 -24   1    7.88    2.86
  12  23  -1    1.12    1.13
 -12 -23   1   -0.50    2.36
 -12 -23   1    2.39    1.09
  13  22  -1    9.30    1.73
 -13 -22   1    9.76    1.58
 -13 -22   1   10.66    2.25
  14  21  -1   21.78    3.24
 -14 -21   1   20.95    3.21
 -14 -21   1   20.68    1.99
  15  20  -1   19.09    2.11
 -15 -20   1   24.75    5.09
 -15 -20   1   17.45    1.84
  16  19  -1    1.21    1.09
 -16 -19   1    1.88    0.89
 -16 -19   1   -0.68    1.89
  17  18  -1    9.13    2.68
 -17 -18   1   16.93    3.03
 -17 -18   1   10.39    1.39
  18  17  -1   -0.97    1.01
 -18 -17   1   -1.82    1.71
 -18 -17   1    0.45    1.10
  19  16  -1    0.58    1.01
 -19 -16   1    1.22    2.59
 -19 -16   1    0.25    1.02
 -20 -15   1    1.00    1.96
 -20 -15   1    1.87    0.76
 -21 -14   1    5.87    0.90
 -21 -14   1    0.00    2.46
 -22 -13   1    2.28    0.69
 -22 -13   1    0.13    1.96
 -23 -12   1    8.37    1.25
 -23 -12   1   -1.03    2.58
 -24 -11   1    1.95    0.92
 -24 -11   1    0.41    1.99
 -25 -10   1   15.88    1.52
 -26  -9   1    3.97    2.51
 -26  -9   1    6.89    1.04
 -27  -8   1    1.11    0.66
 -27  -8   1    1.82    1.80
 -28  -7   1    2.07    2.03
 -29  -6   1    0.97    1.84
 -30  -5   1   -1.34    1.07
 -30  -5   1    0.98    1.88
 -31  -4   1    1.22    1.66
 -31  -4   1   -0.64    0.99
 -32  -3   1    9.96    3.01
 -32  -3   1    5.94    1.79
 -33  -2   1    1.70    1.39
   5  32  -1    0.89    1.32
  -5 -32   1    1.24    2.06
  -5 -32   1   -0.09    0.77
   6  31  -1    1.16    1.52
  -6 -31   1    0.58    0.92
  -6 -31   1    0.41    1.46
   7  30  -1    6.58    2.29
  -7 -30   1    5.86    1.99
  -7 -30   1    6.74    2.23
   8  29  -1    0.79    1.83
  -8 -29   1    2.77    1.53
   9  28  -1    1.63    1.99
  -9 -28   1    3.76    1.56
  -9 -28   1    3.59    1.40
  10  27  -1    2.32    1.04
 -10 -27   1   -0.91    1.22
 -10 -27   1    1.13    1.23
  11  26  -1    1.62    0.99
 -11 -26   1   -0.12    1.10
 -11 -26   1    0.05    1.21
  12  25  -1    3.19    1.30
 -12 -25   1    0.36    2.03
 -12 -25   1    2.97    1.66
  13  24  -1    4.30    1.47
 -13 -24   1    5.71    1.83
 -13 -24   1    4.15    1.46
  14  23  -1    7.46    2.27
 -14 -23   1    5.42    1.43
 -14 -23   1    5.03    2.15
  15  22  -1   16.41    2.10
 -15 -22   1   16.82    1.95
 -15 -22   1   22.85    3.31
  16  21  -1   15.34    2.01
 -16 -21   1   15.85    2.65
 -16 -21   1   17.64    3.17
  17  20  -1   13.72    1.95
 -17 -20   1    9.17    3.22
 -17 -20   1   12.05    1.59
  18  19  -1    6.46    1.58
 -18 -19   1    7.98    1.26
 -18 -19   1    0.12    2.80
  19  18  -1    5.72    1.66
 -19 -18   1    8.49    1.21
 -19 -18   1   -0.35    2.90
  20  17  -1   11.36    1.86
 -20 -17   1   10.95    1.85
 -20 -17   1    0.18    3.22
 -21 -16   1    0.14    4.22
 -21 -16   1    6.80    1.56
 -22 -15   1   -0.13    1.74
 -22 -15   1   -0.24    0.60
 -23 -14   1    0.49    2.17
 -23 -14   1    1.57    0.69
 -24 -13   1    1.01    0.62
 -24 -13   1    0.21    3.02
 -25 -12   1    0.17    1.90
 -25 -12   1    0.97    0.58
 -26 -11   1    4.66    0.70
 -26 -11   1    0.54    2.43
 -27 -10   1    5.42    0.69
 -27 -10   1   -0.13    2.60
 -28  -9   1    6.97    4.57
 -29  -8   1    1.63    3.34
 -30  -7   1    5.18    2.70
 -31  -6   1    3.54    2.61
 -32  -5   1    2.23    1.38
 -32  -5   1    1.95    2.44
   7  32  -1    1.22    1.07
  -7 -32   1    2.40    1.58
  -7 -32   1    0.91    1.08
   8  31  -1    0.39    1.01
  -8 -31   1    1.91    1.42
  -8 -31   1    0.59    1.07
   9  30  -1    2.79    1.16
  -9 -30   1   -0.05    1.55
  10  29  -1    6.90    1.38
 -10 -29   1    0.04    1.58
 -10 -29   1    0.83    2.51
  11  28  -1    1.32    1.11
 -11 -28   1    1.76    1.28
 -11 -28   1   -0.16    1.37
  12  27  -1    2.44    1.24
 -12 -27   1   -0.47    1.61
 -12 -27   1    2.88    1.35
  13  26  -1   -0.36    1.33
 -13 -26   1   -0.01    0.91
 -13 -26   1    0.56    1.81
  14  25  -1   -0.38    1.77
 -14 -25   1   -0.23    1.65
 -14 -25   1    2.87    1.19
  15  24  -1    2.54    1.24
 -15 -24   1    0.09    1.93
 -15 -24   1    2.61    1.22
  16  23  -1    7.66    1.66
 -16 -23   1    0.45    4.10
 -16 -23   1    8.75    1.50
  17  22  -1    2.18    1.19
 -17 -22   1    2.31    2.05
 -17 -22   1    0.90    1.06
  18  21  -1    4.03    2.00
 -18 -21   1   -0.16    3.60
 -18 -21   1    1.86    1.65
  19  20  -1    8.37    1.85
 -19 -20   1   10.35    1.41
 -19 -20   1    0.35    3.28
  20  19  -1   16.49    2.18
 -20 -19   1    0.33    6.05
 -20 -19   1   13.79    1.63
 -21 -18   1    9.71    1.27
 -21 -18   1    0.00    3.27
 -22 -17   1   -0.49    1.12
 -22 -17   1   -0.42    2.13
 -23 -16   1    2.68    1.30
 -23 -16   1   -0.19    3.97
 -24 -15   1    0.95    1.06
 -24 -15   1    0.19    2.14
 -25 -14   1    1.09    0.65
 -25 -14   1    0.10    2.22
 -26 -13   1    0.40    0.55
 -26 -13   1   -0.29    3.19
 -27 -12   1    0.44    0.49
 -27 -12   1    0.12    1.92
 -28 -11   1   -0.62    2.12
 -29 -10   1   12.46    3.72
 -30  -9   1    8.73    3.42
 -31  -8   1   12.57    3.81
 -32  -7   1    3.56    2.99
  10  31  -1    1.89    1.20
 -10 -31   1    1.92    2.04
 -10 -31   1    0.28    1.56
  11  30  -1    0.14    0.92
 -11 -30   1   -0.25    1.74
 -11 -30   1   -0.24    1.07
  12  29  -1   -0.13    1.62
 -12 -29   1    0.15    1.29
 -12 -29   1    0.71    1.17
  13  28  -1    0.43    1.32
 -13 -28   1   -0.26    1.19
 -13 -28   1   -0.02    0.98
  14  27  -1    3.49    1.25
 -14 -27   1   -0.03    1.40
 -14 -27   1    0.69    1.72
  15  26  -1    0.39    0.98
 -15 -26   1    0.81    1.51
 -15 -26   1   -0.66    1.62
  16  25  -1   -0.13    1.00
 -16 -25   1   -0.38    0.99
 -16 -25   1   -0.77    2.61
  17  24  -1    0.07    1.10
 -17 -24   1   -0.82    1.82
 -17 -24   1    1.44    1.01
  18  23  -1   -0.09    1.68
 -18 -23   1   -0.27    1.95
 -18 -23   1    1.05    0.98
  19  22  -1    0.02    1.20
 -19 -22   1    2.38    2.09
 -19 -22   1    1.73    1.51
  20  21  -1    0.29    1.08
 -20 -21   1    0.54    1.33
 -20 -21   1    0.28    2.06
  21  20  -1    0.55    1.30
 -21 -20   1    0.75    2.39
 -21 -20   1    1.68    0.94
 -22 -19   1   -0.35    4.84
 -22 -19   1    4.21    1.11
 -23 -18   1    2.48    0.95
 -23 -18   1    0.00    2.67
 -24 -17   1   -0.49    2.19
 -24 -17   1    0.39    0.68
 -25 -16   1    2.82    1.33
 -25 -16   1   -0.16    4.78
 -26 -15   1    2.59    1.23
 -26 -15   1   -0.57    2.71
 -27 -14   1    0.60    0.92
 -27 -14   1   -0.12    2.31
 -28 -13   1    0.29    0.77
 -28 -13   1    0.07    2.21
 -29 -12   1   -0.11    3.47
 -30 -11   1   14.94    6.76
 -31 -10   1    6.23    3.43
  13  30  -1   -0.11    0.88
 -13 -30   1   -0.14    1.23
 -13 -30   1    0.08    1.11
  14  29  -1    0.02    0.92
 -14 -29   1   -0.19    1.09
 -14 -29   1   -0.18    2.13
  15  28  -1    0.00    0.95
 -15 -28   1    0.01    1.04
 -15 -28   1    0.20    1.37
  16  27  -1   -0.10    1.03
 -16 -27   1   -0.07    1.05
 -16 -27   1   -0.31    1.54
  17  26  -1    0.09    1.02
 -17 -26   1   -0.80    1.59
 -17 -26   1   -0.30    1.65
  18  25  -1    0.02    1.41
 -18 -25   1    0.12    0.84
 -18 -25   1   -0.41    1.61
  19  24  -1   -0.17    1.07
 -19 -24   1    0.48    0.95
 -19 -24   1    0.14    2.92
  20  23  -1    0.29    1.58
 -20 -23   1    3.87    1.26
 -20 -23   1    9.70    2.89
  21  22  -1   -0.06    1.23
 -21 -22   1   -0.78    2.28
 -21 -22   1   -1.04    1.45
 -22 -21   1    6.72    1.94
 -22 -21   1    0.32    3.51
 -23 -20   1    0.91    0.87
 -23 -20   1   -0.16    2.57
 -24 -19   1   -0.17    3.44
 -24 -19   1   -0.07    0.67
 -25 -18   1    0.20    3.38
 -25 -18   1    3.79    1.01
 -26 -17   1   -0.26    3.23
 -26 -17   1    2.74    0.91
 -27 -16   1    3.07    0.86
 -27 -16   1   -0.26    3.46
 -28 -15   1    0.63    3.14
 -28 -15   1    2.32    0.74
 -29 -14   1    0.28    2.41
 -30 -13   1   -0.15    2.52
  17  28  -1    0.00    1.54
 -17 -28   1   -0.06    2.49
 -17 -28   1   -0.04    1.00
  18  27  -1    0.15    1.81
 -18 -27   1   -0.09    1.73
 -18 -27   1    0.75    1.87
  19  26  -1    0.03    1.13
 -19 -26   1    0.29    1.60
 -19 -26   1    0.47    3.16
  20  25  -1   -0.19    1.20
 -20 -25   1   -0.58    1.02
 -20 -25   1    0.29    2.19
  21  24  -1    0.25    1.44
 -21 -24   1   12.34    4.01
 -21 -24   1    0.27    1.14
 -22 -23   1    1.35    1.11
 -22 -23   1   -0.43    2.75
 -23 -22   1    0.58    6.94
 -23 -22   1   11.63    1.74
 -24 -21   1   -0.29    3.42
 -24 -21   1    2.82    1.78
 -25 -20   1   -0.06    1.15
 -25 -20   1    0.06    2.28
 -26 -19   1    2.51    1.57
 -26 -19   1   -0.31    5.48
 -27 -18   1   -0.68    0.76
 -27 -18   1    0.03    2.98
 -28 -17   1   -0.52    3.01
 -28 -17   1    0.57    0.69
 -27 -17  -2    1.76    3.48
  27  17   2    0.85    1.98
 -26 -18  -2    0.13    3.56
  26  18   2    1.68    3.09
 -25 -19  -2    1.19    4.86
  25  19   2   -0.99    2.01
 -24 -20  -2   -0.81    2.83
  24  20   2    1.13    1.92
 -23 -21  -2   12.73    4.38
  23  21   2   -0.09    4.67
 -22 -22  -2    0.77    3.98
  22  22   2    0.10    1.93
 -21 -23  -2   18.00    4.05
  21  23   2    0.54    3.08
 -20 -24  -2    3.18    3.02
  20  24   2   -0.35    3.78
 -19 -25  -2   11.77    3.43
  19  25   2    0.34    3.13
 -18 -26  -2   -0.45    2.18
 -18 -26  -2   -0.88    1.39
  18  26   2    0.45    2.21
 -17 -27  -2    2.31    1.72
 -17 -27  -2    4.75    3.74
  17  27   2   -0.05    2.56
 -29 -13  -2   -2.58    3.38
  29  13   2   -0.59    1.68
 -28 -14  -2    1.03    4.32
  28  14   2   -0.09    2.32
 -27 -15  -2   -1.09    3.11
  27  15   2   -0.96    1.86
 -26 -16  -2   -0.02    2.82
  26  16   2   -0.65    1.63
 -25 -17  -2   -1.26    2.57
  25  17   2    0.21    1.73
 -24 -18  -2    0.39    4.14
  24  18   2   -0.51    1.66
 -23 -19  -2   -1.82    2.96
  23  19   2   -0.75    3.35
 -22 -20  -2    6.97    3.14
  22  20   2   -0.70    2.34
 -21 -21  -2   30.61    7.94
  21  21   2   18.40    4.04
 -20 -22  -2    0.02    2.49
  20  22   2    1.55    3.20
 -19 -23  -2    7.22    2.84
  19  23   2   -1.84    2.41
 -18 -24  -2    1.82    2.77
  18  24   2   -0.62    1.71
 -17 -25  -2    1.92    2.31
  17  25   2   -0.31    3.51
 -16 -26  -2   -0.44    1.43
 -16 -26  -2   -2.30    3.19
  16  26   2   -1.31    2.30
 -15 -27  -2   -0.19    1.95
 -15 -27  -2    1.66    1.50
  15  27   2    1.91    2.43
 -14 -28  -2    1.17    1.55
 -14 -28  -2    0.82    1.73
  14  28   2   -0.26    2.27
 -13 -29  -2    1.51    1.61
 -13 -29  -2    0.15    1.57
  13  29   2    0.98    2.24
 -30 -10  -2   -0.56    2.86
  30  10   2   -0.76    1.52
 -29 -11  -2    0.82    2.35
  29  11   2   -0.18    1.33
 -28 -12  -2   -1.44    2.78
  28  12   2   -0.46    1.48
 -27 -13  -2    1.33    2.48
  27  13   2   -0.13    1.45
 -26 -14  -2    1.54    4.67
  26  14   2    1.37    1.73
 -25 -15  -2    1.05    2.69
  25  15   2    0.58    2.76
 -24 -16  -2    0.21    2.28
  24  16   2    0.22    1.58
 -23 -17  -2    0.32    2.28
  23  17   2    0.00    2.44
 -22 -18  -2   -0.29    3.42
  22  18   2    0.35    1.65
 -21 -19  -2    0.34    2.33
  21  19   2   -0.65    1.75
 -20 -20  -2   -0.04    2.39
  20  20   2    1.66    3.08
 -19 -21  -2   15.74    3.40
  19  21   2    0.55    3.06
 -18 -22  -2    0.07    2.10
  18  22   2    0.88    1.92
 -17 -23  -2    3.90    3.61
  17  23   2   -1.00    3.69
 -16 -24  -2    0.13    1.66
  16  24   2   -0.34    1.76
 -15 -25  -2    5.04    2.28
  15  25   2   -0.35    2.67
 -14 -26  -2    2.95    2.03
 -14 -26  -2    3.89    1.71
  14  26   2    0.58    2.53
 -13 -27  -2    8.55    2.20
 -13 -27  -2    2.72    1.96
  13  27   2    1.08    4.77
 -12 -28  -2   -1.31    2.33
 -12 -28  -2    2.17    1.44
  12  28   2   -0.92    2.27
 -11 -29  -2    4.60    1.79
 -11 -29  -2    4.11    1.94
  11  29   2   -0.06    2.82
 -10 -30  -2   -1.57    1.20
 -10 -30  -2    0.40    1.45
  10  30   2    6.05    2.11
 -31  -7  -2    4.59    3.64
 -30  -8  -2   -1.53    2.58
  30   8   2   -0.17    1.40
 -29  -9  -2    8.12    4.69
  29   9   2   -0.01    2.56
 -28 -10  -2   -1.15    2.51
  28  10   2   -0.80    1.47
 -27 -11  -2    0.35    2.10
  27  11   2   -0.18    1.86
 -26 -12  -2    0.75    2.26
  26  12   2    0.15    1.41
 -25 -13  -2    1.09    2.50
  25  13   2    0.00    2.32
 -24 -14  -2    0.42    3.09
  24  14   2   -0.02    1.36
 -23 -15  -2    0.76    2.05
  23  15   2   -0.83    1.48
 -22 -16  -2    1.11    2.26
  22  16   2   -1.37    1.73
 -21 -17  -2   -0.04    3.46
  21  17   2    0.62    1.74
 -20 -18  -2   -0.62    1.79
  20  18   2    1.03    2.54
 -19 -19  -2   24.10    4.48
  19  19   2   22.50    4.03
 -18 -20  -2    1.36    2.98
  18  20   2   -1.04    1.83
 -17 -21  -2   27.71    3.64
  17  21   2   -0.11    3.47
 -16 -22  -2    4.50    3.19
  16  22   2   -0.06    2.14
 -15 -23  -2   27.65    3.86
  15  23   2   20.64    4.30
 -14 -24  -2    0.28    1.66
  14  24   2    1.06    3.07
 -13 -25  -2    0.08    1.65
 -13 -25  -2   10.47    2.06
  13  25   2    1.71    2.77
 -12 -26  -2   -0.05    1.43
 -12 -26  -2    1.40    1.31
  12  26   2    0.25    2.10
 -11 -27  -2    4.90    1.69
 -11 -27  -2    2.19    1.71
  11  27   2    0.14    2.70
 -10 -28  -2    2.11    1.27
 -10 -28  -2   -1.06    1.36
  10  28   2    0.35    3.36
  -9 -29  -2   10.95    1.93
  -9 -29  -2    5.27    2.36
   9  29   2   11.07    5.67
  -8 -30  -2    0.94    1.63
   8  30   2   -1.05    2.05
  -7 -31  -2    0.27    1.14
  -7 -31  -2    0.59    1.59
   7  31   2    3.24    2.39
 -31  -5  -2   14.53    4.26
 -30  -6  -2    3.38    3.06
 -29  -7  -2    3.53    2.56
  29   7   2    0.39    1.43
 -28  -8  -2   -1.18    2.13
  28   8   2    0.87    1.23
 -27  -9  -2   13.37    4.23
  27   9   2    0.47    1.64
 -26 -10  -2   -0.46    1.88
  26  10   2   -0.02    1.22
 -25 -11  -2    0.76    2.25
  25  11   2    0.80    1.46
 -24 -12  -2    1.04    2.12
  24  12   2    0.16    1.46
 -23 -13  -2    0.95    3.44
  23  13   2    0.53    1.54
 -22 -14  -2   -0.61    1.88
  22  14   2    1.41    2.29
 -21 -15  -2   -0.33    2.34
  21  15   2   -1.80    1.85
 -20 -16  -2    0.41    1.91
  20  16   2   -0.25    2.37
 -19 -17  -2   25.88    4.14
  19  17   2   24.09    3.90
 -18 -18  -2    1.25    1.92
  18  18   2   -0.01    1.72
 -17 -19  -2   23.27    5.79
  17  19   2   19.14    3.83
 -16 -20  -2    3.37    2.06
  16  20   2   -0.26    2.13
 -15 -21  -2   32.22    5.26
  15  21   2    0.36    5.82
 -14 -22  -2    9.25    2.33
  14  22   2   -0.23    2.89
 -13 -23  -2   11.10    2.39
  13  23   2   -0.92    3.08
 -12 -24  -2    2.82    1.61
  12  24   2    0.31    2.38
 -11 -25  -2    8.90    2.03
 -11 -25  -2   10.72    2.19
  11  25   2    0.63    5.32
 -10 -26  -2    3.01    1.33
 -10 -26  -2   -0.56    1.23
  10  26   2   -1.02    2.19
  -9 -27  -2    6.34    2.83
  -9 -27  -2    4.59    1.64
   9  27   2   -0.07    2.85
  -8 -28  -2   -2.80    1.48
  -8 -28  -2   -0.02    1.23
   8  28   2   -2.08    2.36
  -7 -29  -2    3.81    2.70
  -7 -29  -2   12.10    2.30
   7  29   2    9.66    3.47
  -6 -30  -2   -0.22    0.93
  -6 -30  -2    0.57    1.27
   6  30   2    1.90    3.06
  -5 -31  -2    4.54    2.06
  -5 -31  -2    3.69    2.00
   5  31   2   -2.92    4.75
 -31  -3  -2    4.22    4.69
 -30  -4  -2    2.22    2.54
 -29  -5  -2    2.73    2.11
  29   5   2   -0.06    1.27
 -28  -6  -2    1.63    1.89
  28   6   2   -0.28    1.11
 -27  -7  -2    2.88    1.97
  27   7   2   -0.49    1.18
 -26  -8  -2   -1.67    1.89
  26   8   2    0.29    1.13
 -25  -9  -2   34.38    7.32
  25   9   2   30.19    3.28
 -24 -10  -2   -0.38    1.91
  24  10   2   -0.64    2.07
 -23 -11  -2    0.28    2.98
  23  11   2    9.97    2.21
 -22 -12  -2   -0.29    1.86
  22  12   2   -0.05    2.05
 -21 -13  -2    0.75    2.86
  21  13   2   -0.61    1.52
 -20 -14  -2   -1.25    2.13
  20  14   2    3.36    1.75
 -19 -15  -2    0.01    1.96
  19  15   2   -1.57    1.82
 -18 -16  -2    1.32    2.00
  18  16   2    2.24    1.94
 -17 -17  -2    0.02    1.95
  17  17   2    2.25    2.00
 -16 -18  -2    5.33    3.71
  16  18   2    3.71    2.47
 -15 -19  -2   64.67    5.35
  15  19   2   43.99    8.20
 -14 -20  -2    0.28    2.59
  14  20   2   -1.45    2.02
 -13 -21  -2   39.33    3.98
  13  21   2   36.39    5.01
 -12 -22  -2   18.21    2.72
  12  22   2   11.18    5.72
 -11 -23  -2   10.93    2.12
  11  23   2    5.62    3.24
 -10 -24  -2   -0.05    0.96
  10  24   2    0.19    1.66
  -9 -25  -2   18.27    2.35
  -9 -25  -2   16.45    2.59
   9  25   2   22.06    3.98
  -8 -26  -2    2.08    1.53
  -8 -26  -2   -0.75    1.17
   8  26   2   -0.64    2.96
  -7 -27  -2   32.04    3.36
  -7 -27  -2   34.70    3.02
   7  27   2   33.33    5.06
  -6 -28  -2   -1.24    1.64
  -6 -28  -2    0.98    1.41
   6  28   2    4.69    2.28
  -5 -29  -2    9.84    1.77
  -5 -29  -2   14.85    2.40
   5  29   2   14.51    3.78
  -4 -30  -2    0.16    0.92
  -4 -30  -2   -1.20    1.44
   4  30   2   -4.23    2.24
  -3 -31  -2   -0.31    0.76
   3  31   2    1.64    1.85
 -31  -1  -2    7.04    3.20
 -30  -2  -2    3.20    2.62
 -29  -3  -2    5.12    4.28
 -28  -4  -2   -0.33    2.46
  28   4   2    0.02    0.91
 -27  -5  -2   20.22    3.72
  27   5   2   19.87    2.38
 -26  -6  -2   -0.01    1.72
  26   6   2    0.33    1.07
 -25  -7  -2   20.00    3.87
  25   7   2   20.85    3.71
 -24  -8  -2    0.33    2.17
  24   8   2    1.87    1.46
 -23  -9  -2    0.01    3.11
  23   9   2    1.47    2.21
 -22 -10  -2   -0.29    2.71
  22  10   2    9.87    2.08
 -21 -11  -2    0.84    2.75
  21  11   2    8.89    2.18
 -20 -12  -2   15.60    5.02
  20  12   2   12.67    2.72
 -19 -13  -2   21.46    3.33
  19  13   2   13.11    3.15
 -18 -14  -2   -0.07    1.71
  18  14   2    0.99    1.59
 -17 -15  -2    6.03    3.44
  17  15   2    2.90    2.29
 -16 -16  -2    3.02    2.07
  16  16   2    3.98    2.30
 -15 -17  -2   50.80    6.88
  15  17   2   45.97    7.75
 -14 -18  -2    2.25    1.82
  14  18   2    3.83    2.44
 -13 -19  -2   39.32    5.25
  13  19   2   28.83    4.57
 -12 -20  -2    1.03    1.43
  12  20   2    0.83    2.13
 -11 -21  -2    0.35    2.21
  11  21   2   -3.25    2.24
 -10 -22  -2    1.49    1.19
  10  22   2   -1.38    2.03
  -9 -23  -2   28.40    4.02
   9  23   2   28.82    7.38
  -8 -24  -2   -1.21    0.92
  -8 -24  -2    1.44    1.10
   8  24   2   -1.11    1.88
  -7 -25  -2   27.70    2.88
  -7 -25  -2   27.02    3.40
   7  25   2   32.36    4.64
  -6 -26  -2    0.63    1.98
  -6 -26  -2   -1.33    1.00
   6  26   2    0.59    2.11
  -5 -27  -2    8.59    1.59
  -5 -27  -2    6.69    2.01
   5  27   2   12.70    4.97
  -4 -28  -2    6.20    2.49
  -4 -28  -2    1.91    1.19
   4  28   2    4.64    4.04
  -3 -29  -2    4.66    1.16
  -3 -29  -2    3.37    1.79
   3  29   2    0.45    2.77
  -2 -30  -2    1.39    2.21
  -2 -30  -2    0.00    1.31
   2  30   2    1.48    2.15
  -1 -31  -2   -0.16    1.30
  -1 -31  -2   -0.01    0.78
   1  31   2    3.23    1.95
   0 -32  -2   -0.06    0.73
   0  32   2    1.56    1.89
 -31   1  -2   -0.30    1.84
 -30   0  -2    2.67    2.38
 -29  -1  -2    2.15    2.26
 -28  -2  -2    1.04    1.96
 -27  -3  -2   21.32    3.65
  27   3   2   19.15    2.33
 -26  -4  -2   -1.44    2.70
  26   4   2    1.17    1.67
 -25  -5  -2   52.67    4.90
  25   5   2   36.57    3.26
 -24  -6  -2    2.01    2.08
  24   6   2    2.17    2.16
 -23  -7  -2   12.78    3.11
  23   7   2   13.13    2.18
 -22  -8  -2    3.22    3.42
  22   8   2    2.65    1.62
 -21  -9  -2    4.74    1.89
  21   9   2   -0.39    1.51
 -20 -10  -2    2.95    1.91
  20  10   2    1.24    1.64
 -19 -11  -2  105.42    7.46
  19  11   2  102.15    8.91
 -18 -12  -2    0.12    1.39
  18  12   2   -0.32    1.37
 -17 -13  -2   54.04    4.85
  17  13   2   43.22    7.11
 -16 -14  -2   13.99    4.07
  16  14   2   10.32    2.94
 -15 -15  -2    5.03    2.07
 -14 -16  -2    3.92    2.87
  14  16   2    2.61    2.38
 -13 -17  -2    5.59    1.88
  13  17   2    2.85    2.42
 -12 -18  -2   13.92    3.60
  12  18   2   12.77    3.45
 -11 -19  -2    3.51    1.69
  11  19   2    7.25    2.59
  10  20   2    1.37    3.61
  -9 -21  -2    0.52    1.20
   9  21   2    3.09    2.19
  -8 -22  -2    5.43    2.25
   8  22   2    7.16    2.91
  -7 -23  -2   29.67    2.60
   7  23   2   30.25    4.74
  -6 -24  -2    2.17    1.51
  -6 -24  -2    3.67    1.12
   6  24   2    2.24    4.09
  -5 -25  -2   35.45    2.50
  -5 -25  -2   42.10    4.82
   5  25   2   40.35    5.16
  -4 -26  -2   -0.83    1.26
  -4 -26  -2   -0.81    0.93
   4  26   2   -2.06    2.03
  -3 -27  -2   12.44    2.46
  -3 -27  -2   14.66    3.29
   3  27   2   12.88    3.55
  -2 -28  -2   -0.63    1.21
  -2 -28  -2   -0.66    0.88
   2  28   2    1.03    1.87
  -1 -29  -2    0.11    1.10
  -1 -29  -2    8.19    2.39
   1  29   2    4.64    2.37
   0 -30  -2    1.68    1.37
   0 -30  -2    0.03    1.29
   0  30   2    0.10    3.11
   1 -31  -2    3.48    2.31
   1 -31  -2    0.28    0.87
  -1  31   2    4.61    3.29
 -31   3  -2   -0.66    1.86
 -30   2  -2    1.50    2.02
 -29   1  -2    9.69    2.84
 -28   0  -2   -0.29    1.61
 -27  -1  -2    7.64    2.61
 -26  -2  -2    5.41    2.29
  26   2   2    3.13    1.36
 -25  -3  -2   53.84    5.08
  25   3   2   46.02    4.63
 -24  -4  -2    0.07    2.88
  24   4   2    1.16    1.10
 -23  -5  -2   33.41    4.00
  23   5   2   34.73    2.97
 -22  -6  -2   -0.18    1.72
  22   6   2    1.41    1.14
 -21  -7  -2    4.80    2.31
  21   7   2    5.27    1.68
 -20  -8  -2    8.87    4.19
  20   8   2   12.69    2.35
 -19  -9  -2   45.96    4.56
  19   9   2   47.68    4.09
 -18 -10  -2    5.52    2.33
  18  10   2    3.97    2.12
 -17 -11  -2   76.59    5.67
  17  11   2   76.25    5.72
 -16 -12  -2   24.94    3.43
  16  12   2   22.57    3.71
 -15 -13  -2   -0.34    2.06
  15  13   2    0.25    2.50
 -14 -14  -2    4.04    1.88
  14  14   2    3.11    2.46
 -13 -15  -2    1.43    2.44
  13  15   2    4.92    3.63
 -12 -16  -2   12.63    2.28
  12  16   2   11.09    3.36
 -11 -17  -2    3.17    2.40
  11  17   2    2.53    2.37
 -10 -18  -2    4.76    1.50
  10  18   2    2.86    2.72
  -9 -19  -2    7.58    1.62
   9  19   2    5.85    3.06
  -8 -20  -2    3.50    1.35
   8  20   2    0.87    3.94
  -7 -21  -2   33.03    2.59
   7  21   2   29.23    4.42
  -6 -22  -2    3.31    1.22
   6  22   2    2.55    2.41
  -5 -23  -2   15.73    1.83
  -5 -23  -2   17.14    2.25
   5  23   2   19.72    3.73
  -4 -24  -2    6.10    1.60
  -4 -24  -2    3.62    1.79
   4  24   2    2.91    4.02
  -3 -25  -2   37.85    2.46
  -3 -25  -2   41.13    3.39
   3  25   2   41.82    4.68
  -2 -26  -2    1.46    1.18
  -2 -26  -2    0.64    0.76
   2  26   2   -1.78    1.72
  -1 -27  -2   12.35    2.11
  -1 -27  -2   11.21    2.15
   1  27   2   11.61    3.08
   0 -28  -2    2.71    1.75
   0 -28  -2   -0.10    0.77
   0  28   2    0.27    1.67
   1 -29  -2    0.13    0.76
   1 -29  -2    0.12    1.16
  -1  29   2    1.16    1.64
   2 -30  -2    0.10    0.84
   2 -30  -2    1.87    2.02
  -2  30   2    2.30    1.86
   3 -31  -2    3.21    1.58
   3 -31  -2    0.03    0.93
  -3  31   2    6.33    2.13
 -31   5  -2    8.41    3.02
 -31   5  -2    0.66    0.94
 -30   4  -2    0.89    2.70
 -29   3  -2    4.22    3.50
 -28   2  -2    3.60    2.04
 -27   1  -2   11.42    2.79
 -26   0  -2   -0.72    1.62
 -25  -1  -2   15.53    3.07
  25   1   2   15.38    1.87
 -24  -2  -2   -0.36    1.40
  24   2   2    0.61    1.32
 -23  -3  -2   25.14    3.23
  23   3   2   16.51    2.03
 -22  -4  -2   10.02    4.26
  22   4   2   14.00    1.96
 -21  -5  -2    1.77    1.86
  21   5   2    3.43    2.16
 -20  -6  -2   15.92    3.22
  20   6   2   22.18    2.46
 -19  -7  -2   -1.48    2.55
  19   7   2    1.25    1.35
 -18  -8  -2    2.36    1.99
  18   8   2    4.89    2.79
 -17  -9  -2   56.16    5.13
  17   9   2   58.31    4.85
 -16 -10  -2   79.16    5.54
  16  10   2   77.96    6.22
 -15 -11  -2  162.20    8.69
  15  11   2  140.77    8.93
 -14 -12  -2   -1.61    1.87
  14  12   2    1.05    1.60
 -13 -13  -2   65.01    4.40
  13  13   2   55.50    5.70
 -12 -14  -2    3.34    2.38
  12  14   2    0.66    2.32
 -11 -15  -2    7.90    1.96
  11  15   2    7.88    2.95
 -10 -16  -2   10.15    1.84
  10  16   2    8.38    3.43
  -9 -17  -2   11.71    1.98
   9  17   2   14.26    3.52
  -8 -18  -2    0.77    0.92
   8  18   2   -1.81    1.86
  -7 -19  -2   17.81    2.06
   7  19   2   21.78    3.82
  -6 -20  -2   -0.47    0.89
   6  20   2   -0.62    1.88
  -5 -21  -2   36.32    3.53
   5  21   2   33.57    4.47
  -4 -22  -2    0.85    1.02
  -4 -22  -2    0.11    0.79
   4  22   2   -0.03    1.63
  -3 -23  -2   10.74    1.44
  -3 -23  -2   11.81    1.85
   3  23   2   11.28    2.94
  -2 -24  -2    0.66    1.03
  -2 -24  -2   -0.94    0.89
   2  24   2    0.67    1.44
  -1 -25  -2    1.04    1.33
  -1 -25  -2    2.15    0.88
   1  25   2    4.33    3.07
   0 -26  -2   -0.59    0.97
   0 -26  -2    0.08    0.61
   0  26   2   -0.33    2.18
   1 -27  -2    9.48    1.58
   1 -27  -2   -0.03    1.54
  -1  27   2    4.93    2.17
   2 -28  -2   -0.11    0.68
   2 -28  -2    0.37    1.03
  -2  28   2    0.81    1.42
   3 -29  -2    3.87    1.90
   3 -29  -2    0.06    0.77
  -3  29   2    0.16    1.59
   4 -30  -2   -0.04    0.76
   4 -30  -2   -1.09    1.16
  -4  30   2    0.30    1.55
   5 -31  -2    8.88    3.13
   5 -31  -2    8.41    1.28
  -5  31   2    0.20    2.60
 -31   7  -2   -0.21    2.01
 -31   7  -2    0.02    1.11
 -30   6  -2    2.79    2.07
 -30   6  -2   -0.43    0.72
 -29   5  -2   21.60    4.86
 -28   4  -2    1.76    1.04
 -28   4  -2    2.28    2.69
 -27   3  -2   12.45    4.06
 -26   2  -2    1.45    2.72
 -25   1  -2    1.89    1.80
 -24   0  -2    3.52    1.88
  24   0   2    2.85    1.16
 -23  -1  -2    2.89    1.81
  23   1   2    1.64    1.66
 -22  -2  -2    1.22    1.64
  22   2   2    1.19    0.98
 -21  -3  -2    3.52    3.13
  21   3   2    4.05    1.36
 -20  -4  -2    7.34    2.27
  20   4   2    6.78    1.72
 -19  -5  -2   31.07    3.88
  19   5   2   30.57    2.92
 -18  -6  -2   17.84    4.75
  18   6   2   18.08    2.52
 -17  -7  -2   68.55    5.14
  17   7   2   69.31    5.01
 -16  -8  -2    6.08    2.09
  16   8   2    4.46    3.36
 -15  -9  -2  126.92    7.05
  15   9   2  131.64    7.69
 -14 -10  -2   27.40    3.27
  14  10   2   28.37    3.82
 -13 -11  -2   57.71    3.88
  13  11   2   45.85    4.96
 -12 -12  -2    1.75    1.40
  12  12   2    1.32    2.07
 -11 -13  -2   20.95    2.36
  11  13   2   19.78    5.83
 -10 -14  -2    2.75    1.41
  10  14   2    3.68    2.44
  -9 -15  -2    6.63    1.56
   9  15   2    7.37    4.53
  -8 -16  -2    6.01    2.15
   8  16   2    3.68    2.75
  -7 -17  -2   87.19    4.43
   7  17   2   78.54    6.93
  -6 -18  -2   38.55    2.64
   6  18   2   32.96    4.47
  -5 -19  -2   31.24    2.34
   5  19   2   25.37    4.13
  -4 -20  -2    0.68    0.78
   4  20   2   -1.23    1.61
  -3 -21  -2    2.35    1.25
  -3 -21  -2   -0.66    0.99
   3  21   2    2.29    2.56
  -2 -22  -2    0.19    0.64
  -2 -22  -2   -0.35    0.79
   2  22   2    0.25    1.19
  -1 -23  -2    8.17    1.63
  -1 -23  -2    8.39    1.21
   1  23   2    6.59    2.38
   0 -24  -2    1.27    1.36
   0 -24  -2    3.40    1.29
   0  24   2    2.64    1.87
   1 -25  -2   13.32    1.43
   1 -25  -2   14.03    2.02
  -1  25   2   17.96    2.87
   2 -26  -2    2.84    1.23
   2 -26  -2   -0.04    0.77
  -2  26   2    4.70    1.70
   3 -27  -2   20.39    2.31
   3 -27  -2   15.02    1.50
  -3  27   2   21.03    4.50
   4 -28  -2    0.06    0.68
   4 -28  -2    3.23    1.76
  -4  28   2    1.40    2.33
   5 -29  -2    3.72    1.36
   5 -29  -2    0.01    1.24
  -5  29   2   -0.02    2.75
   6 -30  -2   -0.36    1.70
   6 -30  -2    0.25    0.69
  -6  30   2    0.74    2.26
   7 -31  -2    0.07    1.19
   7 -31  -2   -0.04    0.75
  -7  31   2    1.36    1.58
 -30   8  -2    0.04    1.38
 -30   8  -2    0.50    0.79
 -29   7  -2   11.29    2.50
 -29   7  -2   11.70    1.48
 -28   6  -2    0.71    0.95
 -28   6  -2    1.46    1.50
 -27   5  -2    8.14    2.25
 -26   4  -2    1.22    1.35
 -26   4  -2   -0.89    0.83
 -25   3  -2   38.63    5.68
 -24   2  -2    0.72    2.33
 -23   1  -2   15.87    2.32
  23  -1   2    8.15    1.39
 -22   0  -2   15.67    2.43
  22   0   2    9.07    2.26
 -21  -1  -2   -0.75    1.48
  21   1   2    1.25    0.89
 -20  -2  -2   59.93    4.83
  20   2   2   54.64    3.44
 -19  -3  -2    1.93    1.58
  19   3   2    0.64    1.21
 -18  -4  -2    0.17    1.52
  18   4   2   -2.16    1.92
 -17  -5  -2   16.06    2.72
  17   5   2   11.87    2.22
 -16  -6  -2   31.12    3.36
  16   6   2   31.56    3.18
 -15  -7  -2   64.06    4.67
  15   7   2   66.23    4.78
 -14  -8  -2    0.24    1.21
  14   8   2    2.98    2.48
 -13  -9  -2  155.22    7.50
  13   9   2  133.91    8.09
 -12 -10  -2   28.92    2.83
  12  10   2   31.21    3.76
 -11 -11  -2   16.73    2.25
  11  11   2   18.73    4.95
 -10 -12  -2    0.06    0.99
  10  12   2   -1.77    1.70
  -9 -13  -2   17.91    3.00
   9  13   2   17.99    5.45
  -8 -14  -2    5.44    1.32
   8  14   2    5.57    2.49
  -7 -15  -2   63.31    3.42
   7  15   2   60.89    8.02
  -6 -16  -2    0.98    0.88
   6  16   2   -0.66    1.68
  -5 -17  -2   86.09    4.09
   5  17   2   79.29    6.39
  -4 -18  -2    3.56    1.74
   4  18   2    5.56    2.09
  -3 -19  -2  102.76    4.71
   3  19   2  100.29    6.72
  -2 -20  -2   34.25    2.23
   2  20   2   32.19    3.80
  -1 -21  -2    2.84    1.24
  -1 -21  -2    4.27    1.55
   1  21   2    5.68    2.78
   0 -22  -2    6.88    1.15
   0 -22  -2    7.20    1.52
   0  22   2    9.38    1.94
   1 -23  -2    0.60    0.84
   1 -23  -2   -0.47    0.62
  -1  23   2    1.11    1.11
   2 -24  -2   -2.58    1.05
   2 -24  -2   -0.57    1.15
  -2  24   2    1.84    1.40
   3 -25  -2   45.52    2.56
   3 -25  -2   53.50    4.71
  -3  25   2   48.37    4.11
   4 -26  -2    1.09    1.05
   4 -26  -2   -0.10    0.64
  -4  26   2    0.95    1.33
   5 -27  -2   16.14    1.47
   5 -27  -2   18.93    3.34
  -5  27   2   18.29    2.68
   6 -28  -2    1.94    1.11
   6 -28  -2   -0.10    0.67
  -6  28   2    1.02    1.39
   7 -29  -2   -0.42    1.09
   7 -29  -2   -0.17    1.02
  -7  29   2   -0.22    1.38
   8 -30  -2   -0.11    0.65
   8 -30  -2   -0.09    1.03
  -8  30   2   -0.29    1.30
 -30  10  -2    0.32    0.80
 -30  10  -2    1.08    1.36
 -29   9  -2    6.24    2.07
 -29   9  -2    6.55    1.24
 -28   8  -2    0.75    1.31
 -28   8  -2    2.48    1.49
 -27   7  -2   34.11    3.50
 -27   7  -2   39.22    3.52
 -26   6  -2   -0.10    0.83
 -26   6  -2   -1.11    1.25
 -25   5  -2   50.80    3.01
 -25   5  -2   46.81    4.02
 -24   4  -2    4.43    1.85
 -23   3  -2   15.25    2.45
 -22   2  -2    1.45    2.30
 -21   1  -2    4.71    1.87
  21  -1   2    4.42    1.12
 -20   0  -2    2.53    1.99
  20   0   2    5.61    1.18
 -19  -1  -2    0.32    1.57
  19   1   2    0.72    0.96
 -18  -2  -2   11.81    3.93
  18   2   2   12.42    1.86
 -17  -3  -2   18.82    2.84
  17   3   2   21.54    2.34
 -16  -4  -2    1.75    1.67
  16   4   2    3.23    2.28
 -15  -5  -2   74.35    4.62
  15   5   2   65.11    4.37
 -14  -6  -2    7.73    1.91
  14   6   2    4.91    1.95
 -13  -7  -2   22.77    2.32
  13   7   2   18.12    2.89
 -12  -8  -2   21.06    2.47
  12   8   2   23.46    4.88
 -11  -9  -2   24.02    2.38
  11   9   2   23.99    3.21
 -10 -10  -2    0.80    1.48
  10  10   2   -0.16    1.52
  -9 -11  -2  166.77    7.20
   9  11   2  149.46   12.11
  -8 -12  -2    4.83    1.13
   8  12   2    2.30    2.25
  -7 -13  -2  102.00    4.62
   7  13   2   91.11    6.21
  -6 -14  -2   30.39    2.18
   6  14   2   25.20    3.52
  -5 -15  -2   10.81    1.39
   5  15   2   15.18    2.50
  -4 -16  -2    1.06    0.78
   4  16   2   -0.38    1.47
  -3 -17  -2    3.05    0.92
   3  17   2    3.98    2.81
  -2 -18  -2   -0.53    0.63
   2  18   2    2.21    1.15
  -1 -19  -2   53.43    2.81
   1  19   2   49.35    4.07
   0 -20  -2    5.10    1.36
   0 -20  -2    4.49    1.05
   0  20   2    6.61    1.86
   1 -21  -2   -1.34    1.38
   1 -21  -2   -0.16    0.67
  -1  21   2    0.43    1.79
   2 -22  -2    2.48    1.19
   2 -22  -2    3.52    0.90
  -2  22   2    2.10    2.25
   3 -23  -2   17.55    1.96
   3 -23  -2   18.80    1.53
  -3  23   2   15.56    2.26
   4 -24  -2   -0.37    1.55
   4 -24  -2    0.65    1.04
  -4  24   2    1.26    1.22
   5 -25  -2   41.07    3.10
   5 -25  -2   41.41    2.31
  -5  25   2   43.54    3.60
   6 -26  -2    0.05    0.62
   6 -26  -2    1.24    0.99
  -6  26   2    0.03    1.17
   7 -27  -2   -0.12    1.28
   7 -27  -2    3.92    1.31
  -7  27   2    4.21    1.53
   8 -28  -2   -0.18    0.54
   8 -28  -2    0.00    0.87
  -8  28   2    0.75    1.04
   9 -29  -2    5.65    1.33
   9 -29  -2    0.13    1.46
  -9  29   2    0.37    1.72
  10 -30  -2   -0.36    0.68
  10 -30  -2   -0.36    1.14
 -10  30   2   -0.23    2.10
 -29  11  -2    2.35    1.57
 -29  11  -2    2.88    1.44
 -28  10  -2    0.01    1.11
 -28  10  -2    1.21    1.24
 -27   9  -2    7.17    1.15
 -27   9  -2    4.73    2.05
 -27   9  -2    9.83    1.87
 -26   8  -2   -0.32    0.68
 -26   8  -2    0.42    0.56
 -26   8  -2   -0.47    1.00
 -25   7  -2   29.41    2.15
 -25   7  -2   23.49    2.91
 -24   6  -2    4.06    1.64
 -24   6  -2    0.64    1.54
 -23   5  -2   17.59    1.77
 -23   5  -2   16.53    2.51
 -22   4  -2   -0.34    1.18
 -21   3  -2    1.51    2.20
 -20   2  -2   38.27    5.16
  20  -2   2   31.64    2.08
 -19   1  -2   52.39    4.25
  19  -1   2   50.33    2.82
 -18   0  -2   12.15    2.45
  18   0   2   11.84    1.60
 -17  -1  -2   89.56    7.44
  17   1   2   82.81    4.17
 -16  -2  -2    1.87    1.40
  16   2   2    1.12    1.15
 -15  -3  -2   52.59    3.84
  15   3   2   48.32    3.42
 -14  -4  -2   49.18    3.59
  14   4   2   47.66    5.10
 -13  -5  -2   51.96    3.53
  13   5   2   41.80    5.09
 -12  -6  -2    2.48    1.23
  12   6   2    2.72    1.53
 -11  -7  -2    7.10    2.31
  11   7   2    9.18    2.09
 -10  -8  -2   -0.58    0.84
  10   8   2    0.53    1.29
  -9  -9  -2    1.20    0.91
   9   9   2    2.32    2.49
  -8 -10  -2   13.12    1.58
   8  10   2   10.71    2.47
  -7 -11  -2  186.26    7.34
   7  11   2  163.25    8.67
  -6 -12  -2    7.26    1.22
   6  12   2    2.83    3.15
  -5 -13  -2   39.63    2.32
   5  13   2   36.28    3.37
  -4 -14  -2    2.53    0.90
   4  14   2    3.12    2.40
  -3 -15  -2    7.45    1.09
   3  15   2    7.41    1.77
  -2 -16  -2    0.49    1.06
   2  16   2    0.66    1.18
  -1 -17  -2   69.98    3.21
   1  17   2   65.19    5.69
   0 -18  -2   12.96    1.29
   0  18   2   11.64    1.97
   1 -19  -2    1.18    0.99
   1 -19  -2    0.92    1.19
  -1  19   2    1.27    1.22
   2 -20  -2   56.69    2.79
   2 -20  -2   53.68    3.18
  -2  20   2   52.85    3.74
   3 -21  -2    3.11    0.82
   3 -21  -2    3.11    1.14
  -3  21   2    2.14    1.38
   4 -22  -2    8.18    1.54
   4 -22  -2   12.77    1.81
  -4  22   2    9.12    2.76
   5 -23  -2   31.65    1.97
   5 -23  -2   31.05    3.55
  -5  23   2   31.40    4.05
   6 -24  -2   -1.31    0.95
   6 -24  -2   -0.08    0.86
  -6  24   2    2.27    1.61
   7 -25  -2   18.95    2.08
   7 -25  -2   18.02    1.46
  -7  25   2   15.79    3.47
   8 -26  -2    0.49    0.92
   8 -26  -2   -0.08    0.61
  -8  26   2    1.77    1.66
   9 -27  -2    0.04    1.05
   9 -27  -2    0.00    1.03
  -9  27   2    2.70    1.89
  10 -28  -2   -0.67    0.68
  10 -28  -2   -0.06    1.60
 -10  28   2    0.10    1.98
  11 -29  -2   10.95    1.98
  11 -29  -2   10.00    1.90
 -11  29   2   13.69    2.42
 -29  13  -2    0.85    1.20
 -29  13  -2    0.98    0.76
 -28  12  -2   -0.62    0.95
 -28  12  -2    0.29    0.57
 -27  11  -2    1.80    1.50
 -27  11  -2    4.09    0.90
 -26  10  -2   -0.09    0.84
 -26  10  -2   -0.16    1.10
 -26  10  -2   -0.64    0.63
 -25   9  -2   21.97    1.95
 -25   9  -2   19.93    2.51
 -25   9  -2   23.84    2.18
 -24   8  -2    0.24    1.16
 -24   8  -2    0.49    0.54
 -24   8  -2   -1.24    1.01
 -23   7  -2   37.90    3.24
 -23   7  -2   38.08    2.46
 -22   6  -2    3.62    1.21
 -22   6  -2    7.94    1.65
 -21   5  -2   33.51    3.09
 -20   4  -2   -3.99    1.62
 -19   3  -2  102.14    8.07
  19  -3   2  101.23    4.25
 -18   2  -2    0.93    1.27
  18  -2   2    0.47    0.72
 -17   1  -2   73.44    4.62
  17  -1   2   69.55    3.42
 -16   0  -2   17.88    3.77
  16   0   2   19.78    1.86
 -15  -1  -2   23.86    2.61
  15   1   2   23.21    2.08
 -14  -2  -2    6.06    2.37
  14   2   2    3.34    1.35
 -13  -3  -2   17.80    2.12
  13   3   2   19.80    2.13
 -12  -4  -2    6.08    2.02
  12   4   2    3.61    1.47
 -11  -5  -2    1.55    1.04
  11   5   2    2.29    1.34
 -10  -6  -2   55.30    2.94
  10   6   2   58.50    4.03
  -9  -7  -2   44.27    3.56
   9   7   2   41.03    5.13
  -8  -8  -2   10.80    1.37
   8   8   2   11.70    2.16
  -7  -9  -2   71.18    3.27
   7   9   2   64.81    4.27
  -6 -10  -2   -0.40    1.03
   6  10   2    0.80    1.00
  -5 -11  -2   96.83    3.94
   5  11   2   85.80    5.03
  -4 -12  -2   24.69    1.68
   4  12   2   20.57    2.27
  -3 -13  -2   26.37    2.30
   3  13   2   26.40    2.42
  -2 -14  -2    2.82    0.81
   2  14   2    2.75    1.16
  -1 -15  -2   38.53    2.05
   1  15   2   36.67    2.80
   0 -16  -2   20.19    2.14
   0  16   2   25.85    2.24
   1 -17  -2   82.16    3.48
  -1  17   2   76.13    4.23
   2 -18  -2   12.27    1.53
   2 -18  -2   13.29    1.22
  -2  18   2   11.71    1.78
   3 -19  -2    0.64    0.82
   3 -19  -2    0.24    0.64
  -3  19   2    0.33    0.98
   4 -20  -2    4.74    1.30
   4 -20  -2    6.21    1.03
  -4  20   2    9.94    1.57
   5 -21  -2    4.77    1.19
   5 -21  -2    4.23    0.92
  -5  21   2    3.91    1.40
   6 -22  -2    0.71    0.82
   6 -22  -2   -0.08    0.97
  -6  22   2    0.85    1.04
   7 -23  -2   12.77    1.28
   7 -23  -2   11.93    1.64
  -7  23   2   11.87    2.00
   8 -24  -2    3.62    1.12
   8 -24  -2    2.13    0.84
  -8  24   2    2.32    1.42
   9 -25  -2   23.56    1.77
   9 -25  -2   28.42    3.28
  -9  25   2   28.88    2.78
  10 -26  -2    1.06    0.80
  10 -26  -2   -0.81    0.55
 -10  26   2    1.33    0.98
  11 -27  -2   12.44    1.83
  11 -27  -2   11.03    1.90
 -11  27   2   11.35    2.19
  12 -28  -2    0.74    0.72
  12 -28  -2    0.37    1.07
 -12  28   2    0.35    1.30
  13 -29  -2    0.43    1.15
  13 -29  -2    1.97    1.17
 -13  29   2   -0.08    1.41
 -27  13  -2    3.20    1.48
 -27  13  -2    6.07    1.45
 -26  12  -2   -0.40    0.88
 -26  12  -2    0.25    0.73
 -26  12  -2   -0.08    0.53
 -25  11  -2    8.91    1.80
 -25  11  -2   12.77    1.46
 -25  11  -2    8.76    1.08
 -24  10  -2   -1.40    1.37
 -24  10  -2   -0.01    0.49
 -24  10  -2    1.45    1.13
 -23   9  -2   27.72    1.68
 -23   9  -2   30.01    2.23
 -23   9  -2   33.68    2.68
 -22   8  -2    7.89    1.28
 -22   8  -2    4.02    1.57
 -21   7  -2   28.66    2.77
 -21   7  -2   41.71    3.28
 -20   6  -2    0.66    0.89
 -20   6  -2    1.75    1.16
 -19   5  -2   29.91    2.91
 -18   4  -2    8.13    2.79
  18  -4   2    6.20    0.99
 -17   3  -2    3.66    1.59
  17  -3   2    4.97    0.91
 -16   2  -2   -0.76    1.07
  16  -2   2    0.70    0.66
 -15   1  -2   38.75    4.35
  15  -1   2   38.14    2.28
 -14   0  -2    1.27    1.01
  14   0   2   -0.05    0.80
 -13  -1  -2  143.68    7.79
  13   1   2  137.22    5.80
 -12  -2  -2    3.71    1.09
  12   2   2    0.52    1.10
 -11  -3  -2   75.97    3.51
  11   3   2   67.72    3.76
 -10  -4  -2   65.47    4.18
  10   4   2   62.80    3.72
  -9  -5  -2    1.27    0.83
   9   5   2    1.59    1.22
  -8  -6  -2    1.51    0.78
   8   6   2    2.55    1.30
  -7  -7  -2    0.84    1.11
   7   7   2    1.24    1.16
  -6  -8  -2    0.25    0.59
   6   8   2    0.31    0.92
  -5  -9  -2  222.60    8.10
   5   9   2  223.39   11.22
  -4 -10  -2   49.19    2.26
   4  10   2   45.65    2.93
  -3 -11  -2  187.14    7.47
   3  11   2  169.68    7.08
  -2 -12  -2    7.37    1.00
   2  12   2   10.29    1.39
  -1 -13  -2  138.46    5.06
   1  13   2  124.70    5.45
   0 -14  -2    0.66    0.90
   0  14   2    0.36    0.81
   1 -15  -2   23.20    1.54
  -1  15   2   24.08    2.06
   2 -16  -2    2.00    0.67
  -2  16   2    0.32    1.52
   3 -17  -2   18.53    2.02
   3 -17  -2   18.36    1.70
  -3  17   2   21.18    1.85
   4 -18  -2   -0.21    0.53
   4 -18  -2    0.23    0.67
  -4  18   2   -0.16    0.78
   5 -19  -2   26.75    1.81
   5 -19  -2   32.68    3.09
  -5  19   2   31.73    2.43
   6 -20  -2   19.95    1.75
   6 -20  -2   18.25    2.12
  -6  20   2   19.05    1.99
   7 -21  -2    3.97    0.90
   7 -21  -2    4.45    1.14
  -7  21   2    4.49    1.33
   8 -22  -2    2.43    1.62
   8 -22  -2    2.07    0.80
  -8  22   2    3.59    1.23
   9 -23  -2   -0.89    0.80
   9 -23  -2   -0.26    0.62
  -9  23   2    0.59    0.97
  10 -24  -2   -0.34    0.80
  10 -24  -2   -0.12    0.61
 -10  24   2   -0.32    0.97
  11 -25  -2    4.12    0.94
  11 -25  -2    2.81    1.91
 -11  25   2    5.60    1.51
  12 -26  -2    0.28    0.60
  12 -26  -2   -0.02    0.84
 -12  26   2   -0.15    1.00
  13 -27  -2   -0.05    1.29
  13 -27  -2    0.26    0.95
 -13  27   2   -0.07    1.03
  14 -28  -2    3.26    0.88
  14 -28  -2   -0.03    1.20
 -14  28   2   -0.14    2.32
 -26  14  -2    1.68    1.04
 -26  14  -2    1.52    1.08
 -25  13  -2    6.46    2.36
 -25  13  -2    7.23    1.46
 -25  13  -2    9.08    1.46
 -24  12  -2    4.14    0.77
 -24  12  -2    3.50    1.99
 -24  12  -2    2.07    1.80
 -23  11  -2    7.53    2.45
 -23  11  -2    7.86    0.90
 -23  11  -2    8.74    1.40
 -22  10  -2    0.02    0.80
 -22  10  -2    0.49    1.47
 -22  10  -2    0.51    0.51
 -21   9  -2    2.47    0.92
 -21   9  -2    1.27    1.75
 -21   9  -2    0.99    0.58
 -20   8  -2    2.09    1.19
 -20   8  -2    3.01    0.99
 -19   7  -2   20.52    2.17
 -19   7  -2   20.78    1.82
 -18   6  -2   34.07    3.00
 -18   6  -2   40.52    2.53
 -17   5  -2   83.92    6.18
 -16   4  -2   -0.40    1.02
  16  -4   2   -0.58    0.88
 -15   3  -2    9.44    1.61
  15  -3   2    6.67    1.02
 -14   2  -2    3.93    1.21
  14  -2   2    3.04    0.90
 -13   1  -2  145.74    6.12
  13  -1   2  139.66    5.27
 -12   0  -2   13.83    1.61
  12   0   2   15.65    1.49
 -11  -1  -2   65.65    4.36
  11   1   2   64.69    4.74
 -10  -2  -2   19.95    1.59
  10   2   2   18.08    1.96
  -9  -3  -2    7.78    1.09
   9   3   2    9.69    1.58
  -8  -4  -2   -1.76    1.02
   8   4   2    0.62    1.02
  -7  -5  -2  220.88    7.86
   7   5   2  214.41    8.97
  -6  -6  -2    5.72    0.90
   6   6   2    7.41    1.34
  -5  -7  -2   32.67    1.71
   5   7   2   32.30    2.22
  -4  -8  -2   11.71    1.51
   4   8   2   12.99    2.23
  -3  -9  -2   96.75    3.59
   3   9   2   96.43    4.13
  -2 -10  -2   37.68    1.72
   2  10   2   28.05    2.00
  -1 -11  -2  173.53    6.07
   1  11   2  174.42    6.71
   0 -12  -2   15.70    1.63
   0  12   2   15.50    2.10
   1 -13  -2  139.49    4.98
  -1  13   2  132.93    5.39
   2 -14  -2    7.72    0.90
  -2  14   2    5.93    1.12
   3 -15  -2   41.20    2.03
  -3  15   2   40.32    3.38
   4 -16  -2    3.30    0.75
   4 -16  -2    3.07    0.91
  -4  16   2    3.19    1.60
   5 -17  -2   11.72    1.09
   5 -17  -2    9.03    1.30
  -5  17   2    9.75    1.49
   6 -18  -2   15.29    1.48
   6 -18  -2   12.33    1.87
  -6  18   2   11.86    1.70
   7 -19  -2   -0.04    1.10
   7 -19  -2    0.30    0.57
  -7  19   2    0.14    0.83
   8 -20  -2    8.65    1.16
   8 -20  -2   13.10    1.37
  -8  20   2   10.85    1.59
   9 -21  -2    2.72    0.87
   9 -21  -2    0.93    0.72
  -9  21   2    0.24    1.07
  10 -22  -2   12.46    2.17
  10 -22  -2   10.90    1.23
 -10  22   2   11.90    1.78
  11 -23  -2   11.24    1.27
  11 -23  -2   12.29    1.51
 -11  23   2   12.52    1.90
  12 -24  -2   -0.14    0.69
  12 -24  -2    1.48    0.88
 -12  24   2    2.01    1.13
  13 -25  -2   10.26    1.54
  13 -25  -2   10.47    1.86
 -13  25   2   12.22    2.87
  14 -26  -2    0.37    0.95
  14 -26  -2    1.06    0.72
 -14  26   2    0.44    1.89
  15 -27  -2    0.42    1.71
  15 -27  -2    3.06    1.35
 -15  27   2    0.60    1.50
 -25  15  -2    2.83    1.02
 -25  15  -2    1.13    1.02
 -24  14  -2    1.84    1.41
 -24  14  -2   -0.62    1.39
 -23  13  -2   14.59    1.52
 -23  13  -2    8.94    2.52
 -23  13  -2   13.68    1.64
 -22  12  -2   15.98    2.60
 -22  12  -2   16.82    1.11
 -22  12  -2   16.07    1.72
 -21  11  -2    1.58    1.17
 -21  11  -2   -0.55    0.75
 -21  11  -2   -0.15    0.40
 -20  10  -2   -0.24    0.42
 -20  10  -2    1.94    1.30
 -20  10  -2    1.70    0.76
 -19   9  -2   10.47    1.43
 -19   9  -2    8.77    1.99
 -19   9  -2    6.70    0.74
 -18   8  -2    1.16    0.94
 -18   8  -2    1.67    1.07
 -17   7  -2   89.84    4.06
 -17   7  -2   87.50    4.43
 -16   6  -2   -0.62    1.51
 -15   5  -2   12.41    1.68
  15  -5   2   12.53    0.98
 -14   4  -2    2.42    1.70
  14  -4   2    2.46    1.00
 -13   3  -2   25.84    1.96
  13  -3   2   26.16    1.52
 -12   2  -2   12.75    1.91
  12  -2   2    6.72    1.03
 -11   1  -2  192.93    7.16
  11  -1   2  194.61    8.30
 -10   0  -2    1.01    0.68
  10   0   2    1.22    0.84
  -9  -1  -2  133.65    5.59
   9   1   2  121.75    5.13
  -8  -2  -2    1.08    0.95
   8   2   2    0.50    1.52
  -7  -3  -2   10.49    1.00
   7   3   2    9.76    1.47
  -6  -4  -2    0.58    0.59
   6   4   2    2.67    0.88
  -5  -5  -2   87.97    3.15
   5   5   2   85.36    3.71
  -4  -6  -2  133.36    5.10
   4   6   2  128.50    4.83
  -3  -7  -2   85.39    3.05
   3   7   2   85.05    4.39
  -2  -8  -2    6.18    0.75
   2   8   2    4.29    0.94
  -1  -9  -2   75.93    2.74
   1   9   2   71.12    2.99
   0 -10  -2    1.01    0.53
   0  10   2    1.21    0.66
   1 -11  -2   65.45    2.52
  -1  11   2   62.12    3.54
   2 -12  -2    1.34    0.56
  -2  12   2    0.25    0.70
   3 -13  -2   19.50    1.24
  -3  13   2   18.66    1.55
   4 -14  -2   53.40    2.30
  -4  14   2   46.44    2.56
   5 -15  -2   70.07    3.07
   5 -15  -2   67.86    2.86
  -5  15   2   69.60    4.22
   6 -16  -2   30.69    1.85
   6 -16  -2   30.21    2.26
  -6  16   2   27.27    2.08
   7 -17  -2   64.76    3.09
   7 -17  -2   66.88    2.88
  -7  17   2   67.45    3.51
   8 -18  -2    2.79    0.95
   8 -18  -2    2.49    0.83
  -8  18   2    3.88    1.07
   9 -19  -2   44.37    2.32
   9 -19  -2   42.28    3.35
  -9  19   2   46.70    2.93
  10 -20  -2    0.65    0.76
  10 -20  -2    3.71    0.84
 -10  20   2    0.79    1.08
  11 -21  -2    7.05    1.08
  11 -21  -2    8.60    1.21
 -11  21   2    7.71    2.32
  12 -22  -2   -0.35    0.60
  12 -22  -2   -0.14    1.07
 -12  22   2    0.29    1.43
  13 -23  -2    0.34    0.88
  13 -23  -2    1.47    1.16
 -13  23   2    4.12    1.81
  14 -24  -2    2.87    1.03
  14 -24  -2    2.60    0.90
 -14  24   2    3.88    1.43
  15 -25  -2    3.36    1.20
  15 -25  -2    4.12    1.56
 -15  25   2    6.95    1.65
  16 -26  -2   -0.65    0.77
  16 -26  -2    0.83    0.68
 -16  26   2   -0.06    1.10
  17 -27  -2    7.33    1.79
  17 -27  -2    2.68    1.60
 -17  27   2    0.14    1.68
 -24  16  -2   -0.16    1.26
 -23  15  -2   20.89    2.80
 -23  15  -2   26.03    1.88
 -23  15  -2   27.25    2.26
 -22  14  -2    7.48    0.82
 -22  14  -2    9.16    1.46
 -22  14  -2    6.42    1.94
 -21  13  -2   29.29    2.98
 -21  13  -2   35.27    1.58
 -21  13  -2   39.41    2.55
 -20  12  -2    0.64    0.83
 -20  12  -2    0.51    0.40
 -20  12  -2   -0.27    1.19
 -19  11  -2    2.53    1.58
 -19  11  -2    2.90    1.07
 -19  11  -2    3.77    0.53
 -18  10  -2    2.29    0.99
 -18  10  -2    4.20    0.99
 -18  10  -2    1.96    0.49
 -17   9  -2   13.09    2.28
 -17   9  -2   11.09    1.53
 -16   8  -2    4.35    1.19
 -16   8  -2    5.39    1.13
 -15   7  -2   64.30    4.42
 -15   7  -2   67.53    3.20
 -14   6  -2   30.74    2.12
 -13   5  -2   42.48    3.09
  13  -5   2   36.76    1.51
 -12   4  -2   25.71    1.70
  12  -4   2   23.94    1.71
 -11   3  -2  188.27    6.48
  11  -3   2  180.30    5.91
 -10   2  -2   35.97    1.69
  10  -2   2   32.12    1.80
  -9   1  -2   81.82    3.62
   9  -1   2   71.88    3.05
  -8   0  -2   12.54    1.02
   8   0   2   15.39    1.48
  -7  -1  -2   92.39    3.18
   7   1   2   92.84    3.97
  -6  -2  -2   12.41    0.89
   6   2   2   10.71    1.97
  -5  -3  -2    0.67    0.46
   5   3   2    1.74    0.68
  -4  -4  -2    1.52    0.47
   4   4   2    0.36    0.60
  -3  -5  -2   14.12    1.33
   3   5   2   16.49    1.16
  -2  -6  -2    2.09    0.59
   2   6   2    3.72    0.70
  -1  -7  -2  128.84    4.22
   1   7   2  130.06    4.66
   0  -8  -2   13.79    0.92
   0   8   2   12.86    1.08
   1  -9  -2  121.91    4.03
  -1   9   2  121.46    4.50
   2 -10  -2   17.46    1.08
  -2  10   2   17.91    1.25
   3 -11  -2   68.67    2.57
  -3  11   2   66.55    2.87
   4 -12  -2    3.95    1.07
  -4  12   2    4.30    0.89
   5 -13  -2   50.61    2.14
  -5  13   2   49.24    3.28
   6 -14  -2    5.41    0.82
   6 -14  -2    6.85    1.42
  -6  14   2    5.36    1.60
   7 -15  -2   55.95    2.49
   7 -15  -2   61.19    2.60
  -7  15   2   57.74    3.93
   8 -16  -2    5.35    0.93
   8 -16  -2    3.81    0.88
  -8  16   2    5.35    1.12
   9 -17  -2   54.28    3.49
   9 -17  -2   54.73    2.66
  -9  17   2   53.82    3.19
  10 -18  -2    2.80    0.84
  10 -18  -2    1.65    0.77
  11 -19  -2   89.43    4.76
  11 -19  -2   91.27    4.84
 -11  19   2   88.98    5.83
  12 -20  -2   12.29    1.27
  12 -20  -2   13.50    1.34
 -12  20   2   12.83    2.61
  13 -21  -2   -0.93    1.08
  13 -21  -2   -1.12    0.76
 -13  21   2   -0.13    1.03
  14 -22  -2    0.67    1.22
  14 -22  -2    0.71    0.71
 -14  22   2    1.07    1.07
  15 -23  -2    0.51    0.59
 -15  23   2    1.53    0.83
  16 -24  -2    1.45    0.85
  16 -24  -2    0.39    0.80
 -16  24   2    1.66    1.24
  17 -25  -2    1.25    1.38
  17 -25  -2    2.27    1.44
 -17  25   2    0.08    2.09
  18 -26  -2    0.37    0.85
  18 -26  -2    1.29    0.86
 -18  26   2    0.13    2.12
 -25  19  -2    0.49    1.02
 -23  17  -2    3.75    1.22
 -22  16  -2    4.37    0.59
 -22  16  -2    2.16    1.44
 -22  16  -2    2.24    1.22
 -21  15  -2   24.49    2.05
 -21  15  -2   23.61    1.21
 -21  15  -2   18.33    2.41
 -20  14  -2    0.72    0.40
 -20  14  -2    0.89    1.11
 -20  14  -2   -0.22    0.87
 -19  13  -2   32.67    2.32
 -19  13  -2   29.85    2.76
 -19  13  -2   32.77    1.34
 -18  12  -2   11.55    1.53
 -18  12  -2   12.84    0.73
 -18  12  -2   11.17    1.96
 -17  11  -2    3.90    1.04
 -17  11  -2    3.45    0.90
 -17  11  -2    2.16    0.43
 -16  10  -2    9.21    0.61
 -16  10  -2    8.17    1.35
 -16  10  -2    8.57    1.26
 -15   9  -2    7.79    1.94
 -15   9  -2    8.31    1.77
 -14   8  -2    3.79    0.98
 -14   8  -2    3.01    0.91
 -13   7  -2  101.40    4.84
 -13   7  -2  102.97    4.19
 -12   6  -2    5.62    0.91
  12  -6   2    6.56    0.56
 -11   5  -2   90.59    3.19
  11  -5   2   91.20    2.76
 -10   4  -2   52.95    2.61
  10  -4   2   54.18    1.94
  -9   3  -2  107.11    3.99
   9  -3   2   97.49    3.37
  -8   2  -2    4.79    0.94
   8  -2   2    6.00    0.93
  -7   1  -2  137.92    4.19
   7  -1   2  132.94    6.01
  -6   0  -2   15.26    0.86
   6   0   2   15.38    1.29
  -5  -1  -2   25.81    1.11
   5   1   2   26.30    1.42
  -4  -2  -2  114.41    3.44
   4   2   2  109.27    3.72
  -3  -3  -2   38.41    1.43
   3   3   2   35.91    1.65
  -2  -4  -2  172.01    5.22
   2   4   2  175.64    5.70
  -1  -5  -2   89.20    3.33
   1   5   2   85.91    3.06
   0  -6  -2   15.70    0.92
   0   6   2   15.22    1.52
   1  -7  -2   84.61    2.86
  -1   7   2   89.92    3.23
   2  -8  -2    0.11    0.36
  -2   8   2   -0.29    0.68
   3  -9  -2    8.43    0.77
  -3   9   2    7.29    0.91
   4 -10  -2   60.63    2.29
  -4  10   2   59.54    2.57
   5 -11  -2    0.16    0.72
  -5  11   2    0.34    0.57
   6 -12  -2    2.28    0.65
   6 -12  -2    3.49    0.63
  -6  12   2    2.13    1.24
   7 -13  -2   22.80    1.32
  -7  13   2   19.25    2.19
   8 -14  -2    1.20    0.63
   8 -14  -2    1.14    0.65
  -8  14   2    2.14    1.27
   9 -15  -2  133.96    5.87
  10 -16  -2   75.12    4.03
  10 -16  -2   75.38    3.28
  11 -17  -2   71.83    3.10
  12 -18  -2    0.80    0.63
  12 -18  -2    0.84    0.66
 -12  18   2   -0.32    0.94
  13 -19  -2   15.01    1.33
 -13  19   2   16.56    1.92
  14 -20  -2    1.00    1.10
  14 -20  -2    1.10    0.73
 -14  20   2    1.32    1.04
  15 -21  -2    5.13    1.54
  15 -21  -2    4.95    1.01
 -15  21   2    5.16    1.45
  16 -22  -2    3.85    0.97
  16 -22  -2    3.77    1.02
 -16  22   2    4.29    1.44
  17 -23  -2    9.76    1.30
  17 -23  -2   11.45    2.00
 -17  23   2    9.81    2.87
  18 -24  -2    1.02    0.86
  18 -24  -2    1.38    0.81
 -18  24   2    0.09    1.29
  19 -25  -2    4.90    1.15
  19 -25  -2    3.31    1.61
 -19  25   2    0.21    1.75
 -24  20  -2   -0.21    0.92
 -23  19  -2    0.83    1.61
 -22  18  -2   -1.25    1.01
 -21  17  -2   12.16    1.29
 -21  17  -2   20.02    1.80
 -21  17  -2   16.26    1.22
 -20  16  -2    0.57    0.85
 -20  16  -2   -0.25    0.32
 -20  16  -2   -0.82    0.81
 -19  15  -2   51.15    3.06
 -19  15  -2   54.68    1.84
 -19  15  -2   46.62    3.01
 -18  14  -2    1.08    1.12
 -18  14  -2    2.20    0.38
 -18  14  -2    1.36    1.03
 -17  13  -2    5.24    0.47
 -17  13  -2    6.93    0.87
 -17  13  -2    4.49    1.18
 -16  12  -2    8.02    0.73
 -16  12  -2    5.88    1.31
 -16  12  -2    7.47    0.98
 -15  11  -2    4.46    0.58
 -15  11  -2    3.71    1.35
 -15  11  -2    4.05    1.16
 -14  10  -2    1.50    0.32
 -14  10  -2    3.14    0.92
 -14  10  -2    2.62    0.67
 -13   9  -2   15.92    1.70
 -13   9  -2   18.31    2.34
 -12   8  -2    4.33    0.72
 -12   8  -2    5.69    1.06
 -11   7  -2  185.80    5.71
 -11   7  -2  197.65    6.95
 -10   6  -2    0.50    0.59
  10  -6   2    0.36    0.42
  -9   5  -2  235.76    7.39
   9  -5   2  228.81    7.16
  -8   4  -2   13.83    1.00
   8  -4   2   14.22    0.90
  -7   3  -2   87.74    2.44
   7  -3   2   87.63    3.00
  -6   2  -2    3.53    0.39
   6  -2   2    4.23    1.12
  -5   1  -2   84.30    2.38
   5  -1   2   90.65    3.70
  -4   0  -2    3.81    0.67
   4   0   2    3.51    0.58
  -3  -1  -2   52.04    2.03
   3   1   2   54.15    2.36
  -2  -2  -2   84.03    2.57
   2   2   2   86.44    3.35
  -1  -3  -2  111.51    3.32
   1   3   2  107.85    4.04
   0  -4  -2    3.91    0.51
   0   4   2    3.07    0.63
   1  -5  -2   27.11    1.55
  -1   5   2   25.41    1.32
   2  -6  -2   10.29    0.78
  -2   6   2    9.89    1.33
   3  -7  -2   10.22    0.77
  -3   7   2    8.66    0.90
   4  -8  -2    1.61    0.50
  -4   8   2    0.63    0.60
   5  -9  -2    1.96    0.53
  -5   9   2    1.41    0.64
   6 -10  -2   54.48    2.79
  -6  10   2   57.10    3.19
   7 -11  -2    9.04    0.78
   7 -11  -2    9.39    0.90
  -7  11   2   10.58    1.59
   8 -12  -2   21.95    1.22
   9 -13  -2  133.50    4.90
   9 -13  -2  135.92    4.62
  10 -14  -2   27.16    1.48
  11 -15  -2  144.45    5.17
  12 -16  -2   20.86    1.37
 -12  16   2   17.97    1.99
  13 -17  -2   45.52    2.83
 -13  17   2   45.10    2.90
  14 -18  -2    0.52    0.83
 -14  18   2   -0.20    0.82
  15 -19  -2   -0.43    0.60
 -15  19   2   -0.91    0.94
  16 -20  -2    1.37    0.71
  16 -20  -2    1.02    0.81
 -16  20   2    1.52    1.09
  17 -21  -2    3.49    1.43
  17 -21  -2    5.22    1.61
 -17  21   2    4.39    2.26
  18 -22  -2    0.77    0.69
  18 -22  -2    1.19    0.79
 -18  22   2   -0.37    1.16
  19 -23  -2    2.57    0.90
  19 -23  -2   -0.40    1.18
 -19  23   2   -0.03    1.31
  20 -24  -2   -0.08    0.59
 -20  24   2    0.05    1.03
 -23  21  -2    9.94    1.74
 -22  20  -2   -1.51    1.15
 -20  18  -2    2.80    1.13
 -19  17  -2   18.52    0.79
 -19  17  -2   16.24    1.10
 -19  17  -2   17.89    1.84
 -18  16  -2    2.56    0.35
 -18  16  -2    2.91    0.61
 -18  16  -2    3.22    1.07
 -17  15  -2   44.23    1.36
 -17  15  -2   40.43    1.75
 -17  15  -2   40.89    2.65
 -16  14  -2    1.34    0.54
 -16  14  -2    1.77    0.29
 -16  14  -2    1.93    0.97
 -15  13  -2    0.67    0.78
 -15  13  -2    0.81    0.23
 -15  13  -2    1.65    0.88
 -14  12  -2    0.48    0.21
 -14  12  -2    0.14    0.45
 -14  12  -2    0.30    0.79
 -13  11  -2   19.70    1.66
 -13  11  -2   17.31    1.46
 -13  11  -2   19.96    0.79
 -12  10  -2   -0.78    0.66
 -12  10  -2    0.14    0.16
 -12  10  -2    0.48    0.52
 -11   9  -2  169.09    4.09
 -11   9  -2  161.28    6.05
 -11   9  -2  162.67    4.58
 -10   8  -2   10.69    0.56
 -10   8  -2   12.89    1.18
  -9   7  -2   77.92    3.06
  -9   7  -2   72.84    2.14
  -8   6  -2    0.26    0.30
  -8   6  -2    0.41    0.55
   8  -6   2    0.17    0.21
  -7   5  -2   30.70    1.08
   7  -5   2   32.59    1.14
  -6   4  -2  129.16    3.24
   6  -4   2  134.75    3.96
  -5   3  -2   13.01    0.53
   5  -3   2   16.57    1.24
  -4   2  -2  168.63    4.40
   4  -2   2  170.57    4.85
  -3   1  -2  112.70    3.26
   3  -1   2  110.89    3.16
  -2   0  -2   80.70    2.32
   2   0   2   80.42    2.49
  -1  -1  -2 1186.67   45.86
   1   1   2 1205.34   47.76
   0  -2  -2   82.14    2.49
   0   2   2   79.95    2.67
   1  -3  -2   53.15    1.77
  -1   3   2   52.45    1.89
   2  -4  -2  113.64    3.44
  -2   4   2  119.36    4.45
   3  -5  -2   -0.19    0.62
  -3   5   2    0.75    0.45
   4  -6  -2    1.23    0.47
  -4   6   2    1.48    0.56
   5  -7  -2  211.26    7.42
  -5   7   2  219.47    7.53
   6  -8  -2    1.06    0.53
  -6   8   2    2.30    0.92
   7  -9  -2   46.56    2.47
  -7   9   2   44.13    2.69
   8 -10  -2    0.26    0.40
   8 -10  -2    0.46    0.48
  -8  10   2   -0.90    0.48
   9 -11  -2   23.61    1.39
   9 -11  -2   25.82    1.18
  10 -12  -2   27.99    1.56
  10 -12  -2   25.40    1.30
  11 -13  -2   57.60    2.18
  11 -13  -2   53.29    2.41
  12 -14  -2    0.01    0.41
  13 -15  -2    0.66    0.66
  13 -15  -2    0.82    0.83
 -13  15   2    0.47    0.83
  14 -16  -2   10.05    1.44
 -14  16   2   12.09    1.54
  15 -17  -2    3.59    1.02
  15 -17  -2    5.12    0.77
 -15  17   2    6.38    1.27
  16 -18  -2    0.27    0.49
 -16  18   2   -0.41    1.30
  17 -19  -2   15.04    1.83
  17 -19  -2   18.56    1.67
 -17  19   2   21.22    3.13
  18 -20  -2    0.22    0.80
  18 -20  -2    1.12    0.60
 -18  20   2    0.10    1.08
  19 -21  -2    6.87    1.02
 -19  21   2   11.81    1.82
  20 -22  -2    3.38    0.83
 -20  22   2    0.24    2.34
  21 -23  -2    3.22    0.88
 -21  23   2    0.19    1.62
 -22  22  -2    0.38    1.00
 -21  21  -2   18.29    2.05
 -20  20  -2   -0.16    0.83
 -19  19  -2   18.74    2.82
 -18  18  -2    0.36    0.18
 -18  18  -2    0.04    0.84
 -18  18  -2    0.63    0.47
 -17  17  -2    2.27    0.64
 -17  17  -2    2.60    1.05
 -17  17  -2    2.78    0.25
 -16  16  -2    2.16    0.59
 -16  16  -2    1.81    0.32
 -16  16  -2    2.15    0.99
 -15  15  -2    3.46    0.41
 -15  15  -2    3.11    1.05
 -15  15  -2    3.11    0.33
 -14  14  -2    3.55    0.64
 -14  14  -2    5.02    1.13
 -14  14  -2    3.78    0.32
 -13  13  -2   57.50    1.37
 -13  13  -2   53.59    1.55
 -13  13  -2   59.54    3.08
 -12  12  -2    0.39    0.17
 -12  12  -2    0.43    1.22
 -12  12  -2    0.43    0.20
 -11  11  -2   15.52    0.42
 -11  11  -2   14.96    0.62
 -11  11  -2   16.28    1.52
 -10  10  -2    0.18    0.70
 -10  10  -2    0.53    0.19
 -10  10  -2    0.40    0.13
  -9   9  -2    2.86    0.77
  -9   9  -2    1.60    0.19
  -9   9  -2    1.46    0.15
  -8   8  -2   10.10    1.08
  -8   8  -2    8.52    0.31
  -7   7  -2    0.61    0.11
  -7   7  -2    0.69    0.58
  -6   6  -2    6.11    0.23
  -6   6  -2    6.17    0.87
  -5   5  -2   86.04    1.90
   5  -5   2   85.94    2.32
  -4   4  -2    0.79    0.17
   4  -4   2    0.74    0.29
  -3   3  -2   39.93    1.20
   3  -3   2   35.80    1.08
  -2   2  -2   85.73    2.17
   2  -2   2   84.54    2.31
  -1   1  -2 1166.34   45.50
   1  -1   2 1210.05   46.99
   0   0  -2    0.32    0.38
   0   0   2    1.48    0.46
   1  -1  -2 1190.48   46.57
  -1   1   2 1165.22   46.74
   2  -2  -2   82.15    2.51
  -2   2   2   83.61    3.26
   3  -3  -2   39.13    1.88
  -3   3   2   41.24    1.61
   4  -4  -2    0.81    0.42
  -4   4   2    1.34    0.47
   5  -5  -2   86.61    2.83
  -5   5   2   90.01    3.68
   6  -6  -2    6.52    0.67
  -6   6   2    5.39    0.75
   7  -7  -2    0.48    0.44
  -7   7   2    0.57    0.51
   8  -8  -2    9.12    0.57
  -8   8   2    9.16    0.98
   9  -9  -2    0.75    0.38
   9  -9  -2    1.65    0.56
  -9   9   2    1.95    0.66
  10 -10  -2    0.86    0.60
  10 -10  -2    1.45    0.62
  11 -11  -2   15.89    0.87
  11 -11  -2   15.46    1.21
  12 -12  -2    1.09    0.44
  12 -12  -2    0.75    0.67
  13 -13  -2   54.74    2.66
 -13  13   2   57.71    3.10
  14 -14  -2    4.07    0.93
  14 -14  -2    2.03    0.96
 -14  14   2    3.91    1.08
  15 -15  -2    1.83    0.59
  15 -15  -2    2.77    0.88
 -15  15   2    3.31    1.04
  16 -16  -2    2.67    1.23
  16 -16  -2    0.44    0.54
 -16  16   2    1.99    1.44
  17 -17  -2    2.50    0.98
  17 -17  -2    2.67    0.93
 -17  17   2    4.45    1.26
  18 -18  -2    0.49    0.79
  18 -18  -2    0.41    0.52
 -18  18   2    0.98    1.03
  19 -19  -2   17.83    1.27
 -19  19   2   20.48    2.29
  20 -20  -2   -0.05    0.73
 -20  20   2    0.65    1.47
  21 -21  -2   11.38    1.19
 -21  21   2   18.47    2.33
 -22  22   2    0.12    1.12
 -21  23  -2    0.61    1.09
 -20  22  -2   -0.13    0.91
 -19  21  -2    9.35    1.61
 -18  20  -2    1.08    1.01
 -17  19  -2   16.75    2.72
 -16  18  -2    1.11    0.89
 -15  17  -2    3.83    1.09
 -14  16  -2   13.01    1.55
 -13  15  -2    2.25    1.05
 -12  14  -2    0.05    1.13
 -11  13  -2   53.82    2.88
 -10  12  -2   29.62    2.06
  -9  11  -2   26.47    1.79
  -8  10  -2    0.49    0.67
  -7   9  -2   47.91    2.24
  -6   8  -2    1.84    0.71
  -5   7  -2  231.29    4.90
  -5   7  -2  222.91    7.39
  -4   6  -2    1.31    0.96
  -4   6  -2    1.28    0.12
  -3   5  -2    0.39    0.13
  -3   5  -2    0.03    0.47
   3  -5   2    0.32    0.25
  -2   4  -2  117.12    2.70
   2  -4   2  116.09    2.88
  -1   3  -2   54.28    1.37
   1  -3   2   53.37    1.47
   0   2  -2   82.96    2.17
   0  -2   2   82.69    2.35
   1   1  -2 1192.42   47.03
  -1  -1   2 1264.50   50.01
   2   0  -2   83.22    2.95
  -2   0   2   85.54    2.71
   3  -1  -2  112.72    3.31
  -3   1   2  121.36    3.79
   4  -2  -2  178.33    5.29
  -4   2   2  186.49    6.44
   5  -3  -2   14.60    0.86
  -5   3   2   14.54    0.97
   6  -4  -2  133.77    4.70
  -6   4   2  141.76    4.78
   7  -5  -2   31.52    1.40
  -7   5   2   33.41    1.57
   8  -6  -2   -0.23    0.43
  -8   6   2   -0.39    0.51
   9  -7  -2   68.14    3.19
   9  -7  -2   69.70    2.14
  -9   7   2   70.77    2.88
  10  -8  -2   12.43    1.00
  10  -8  -2   11.02    0.57
 -10   8   2   10.05    1.11
  11  -9  -2  159.38    5.55
  11  -9  -2  153.75    4.82
 -11   9   2  162.41    7.06
  12 -10  -2   -0.75    0.83
  12 -10  -2    0.07    0.29
 -12  10   2    0.81    0.61
  13 -11  -2   16.93    1.40
  13 -11  -2   16.90    0.89
 -13  11   2   20.34    1.61
  14 -12  -2    0.35    0.39
  14 -12  -2    1.37    0.68
 -14  12   2    0.43    0.79
  15 -13  -2    0.41    0.70
  15 -13  -2    1.63    1.24
 -15  13   2    2.36    0.90
  16 -14  -2    0.94    0.75
  16 -14  -2    2.34    0.84
 -16  14   2    2.50    1.46
  17 -15  -2   36.24    1.61
  17 -15  -2   46.43    2.51
 -17  15   2   47.38    2.96
  18 -16  -2   -0.05    0.88
  18 -16  -2    2.21    0.53
 -18  16   2    4.56    1.17
  19 -17  -2   17.84    1.56
 -19  17   2   17.99    2.12
  20 -18  -2    0.92    0.54
 -20  18   2    2.08    1.78
 -21  19   2   11.09    2.02
 -22  20   2   -0.35    1.14
 -23  21   2    0.14    1.78
 -20  24  -2   -0.29    1.57
 -19  23  -2   -0.15    0.93
 -18  22  -2   -0.91    1.02
 -17  21  -2    5.13    1.35
 -16  20  -2    0.93    0.97
 -15  19  -2   -0.29    1.26
 -14  18  -2   -0.92    0.87
 -13  17  -2   41.02    2.55
 -12  16  -2   22.11    2.88
 -11  15  -2  147.22    6.16
 -10  14  -2   29.67    2.16
  -9  13  -2  148.04    5.85
  -8  12  -2   22.62    1.72
  -7  11  -2   10.28    1.78
  -6  10  -2   59.35    2.55
  -5   9  -2    2.09    0.72
  -4   8  -2    1.21    0.63
  -3   7  -2   10.11    0.93
  -2   6  -2   14.35    0.99
  -2   6  -2   12.95    0.47
  -1   5  -2   27.83    1.72
  -1   5  -2   26.14    0.83
   1  -5   2   25.33    0.72
   0   4  -2    3.26    0.29
   0   4  -2    4.25    0.59
   0  -4   2    3.43    0.30
   1   3  -2  120.11    3.38
  -1  -3   2  119.92    3.63
   2   2  -2   87.63    2.81
  -2  -2   2   87.65    2.62
   3   1  -2   57.77    2.19
  -3  -1   2   54.89    2.26
   4   0  -2    6.00    0.82
  -4   0   2    3.68    0.54
   5  -1  -2   86.17    3.14
  -5   1   2   89.79    2.94
   6  -2  -2    3.99    0.58
  -6   2   2    3.66    0.61
   7  -3  -2   85.20    2.87
  -7   3   2   86.39    3.10
   8  -4  -2   13.72    0.94
  -8   4   2   13.37    1.04
   9  -5  -2  213.05    5.29
   9  -5  -2  224.98    7.23
  -9   5   2  232.11    8.02
  10  -6  -2    0.00    0.73
  10  -6  -2   -0.04    0.17
 -10   6   2    1.23    0.49
  11  -7  -2  173.78    4.42
  11  -7  -2  181.77    6.22
 -11   7   2  171.74    6.57
  12  -8  -2    3.05    0.54
  12  -8  -2    6.46    0.84
 -12   8   2    3.60    1.49
  13  -9  -2   13.30    0.89
  13  -9  -2   15.65    1.28
 -13   9   2   13.77    1.42
  14 -10  -2    1.34    0.53
  14 -10  -2    1.39    0.78
 -14  10   2    1.56    0.86
  15 -11  -2    4.23    1.06
  15 -11  -2    6.67    0.78
 -15  11   2    6.26    1.20
  16 -12  -2    7.06    0.58
  16 -12  -2    7.98    1.21
 -16  12   2    8.40    1.98
  17 -13  -2    0.28    0.96
  17 -13  -2    4.98    0.51
 -17  13   2    5.46    1.24
  18 -14  -2    1.46    0.68
 -18  14   2    3.08    1.09
  19 -15  -2   39.01    1.65
 -19  15   2   53.11    3.23
 -20  16   2    1.90    1.87
 -21  17   2   21.29    2.45
 -22  18   2    1.87    1.33
 -23  19   2    6.75    2.77
 -24  20   2    0.16    1.16
 -19  25  -2   -1.13    1.19
 -18  24  -2   -1.51    1.79
 -17  23  -2    9.85    1.73
 -16  22  -2    3.61    1.20
 -15  21  -2    8.26    2.22
 -14  20  -2    2.13    1.04
 -13  19  -2   15.33    1.68
 -12  18  -2   -1.59    1.53
 -11  17  -2   75.78    3.64
 -10  16  -2   71.61    3.64
  -9  15  -2  135.23    6.93
  -8  14  -2    1.96    0.95
  -7  13  -2   20.94    1.68
  -6  12  -2    2.66    0.87
  -5  11  -2    0.98    0.67
  -4  10  -2   64.67    2.62
  -3   9  -2    7.43    0.93
  -2   8  -2    1.77    0.51
   2  -8   2    0.23    0.19
  -1   7  -2   97.62    3.67
   1  -7   2   79.48    1.75
   0   6  -2   18.13    1.01
   0  -6   2   17.13    0.69
   1   5  -2  100.65    3.53
  -1  -5   2   93.35    2.41
   2   4  -2  193.93    5.45
   2   4  -2  188.44    5.02
  -2  -4   2  185.83    5.07
   3   3  -2   41.05    1.70
   3   3  -2   41.83    1.74
  -3  -3   2   40.61    1.34
   4   2  -2  119.22    3.08
   4   2  -2  122.00    3.52
  -4  -2   2  119.74    3.55
   5   1  -2   26.77    1.19
  -5  -1   2   27.64    1.20
   6   0  -2   14.61    0.90
  -6   0   2   18.52    0.98
   7  -1  -2  140.35    4.47
  -7   1   2  144.68    4.68
   8  -2  -2    4.32    0.69
  -8   2   2    4.76    0.71
   9  -3  -2  105.22    3.64
  -9   3   2  107.93    3.84
  10  -4  -2   55.03    2.96
 -10   4   2   57.57    2.47
  11  -5  -2   90.27    3.43
 -11   5   2   93.28    3.66
  12  -6  -2    6.27    0.91
 -12   6   2    5.24    1.43
  13  -7  -2   95.69    3.80
 -13   7   2   98.99    4.12
  14  -8  -2    2.78    0.84
 -14   8   2    2.51    0.88
  15  -9  -2    1.45    1.02
  15  -9  -2    6.56    0.57
 -15   9   2    8.72    1.13
  16 -10  -2    6.37    0.64
 -16  10   2    7.93    1.82
  17 -11  -2    2.58    0.35
 -17  11   2    2.97    1.05
 -18  12   2   11.76    1.60
 -19  13   2   28.60    2.44
 -20  14   2    0.53    1.59
 -21  15   2   26.97    2.61
 -22  16   2    5.20    1.60
 -23  17   2    5.99    2.66
 -24  18   2    1.08    1.31
 -25  19   2    4.67    1.86
 -18  26  -2    0.58    1.09
 -17  25  -2    5.02    1.49
 -16  24  -2    0.75    1.62
 -15  23  -2    0.13    0.80
 -14  22  -2    0.30    0.87
 -13  21  -2    0.62    1.41
 -12  20  -2   15.24    1.68
 -11  19  -2   87.35    4.29
 -10  18  -2    2.07    1.05
  -9  17  -2   55.68    3.09
  -8  16  -2    5.21    1.18
  -7  15  -2   59.43    2.93
   7 -15   2   55.03    3.03
  -6  14  -2    7.55    1.87
   6 -14   2    7.97    1.25
  -5  13  -2   50.06    2.46
   5 -13   2   49.81    2.52
  -4  12  -2    6.06    0.89
   4 -12   2    2.78    0.96
  -3  11  -2   77.17    3.75
   3 -11   2   67.85    2.82
  -2  10  -2   18.50    1.24
   2 -10   2   19.04    1.25
   2 -10   2   18.43    0.48
   2 -10   2   17.71    0.33
  -1   9  -2  131.19    4.30
   1  -9   2  121.14    4.19
   1  -9   2  128.61    3.20
   0   8  -2   12.93    0.99
   0  -8   2   13.32    0.51
   0  -8   2   13.14    0.53
   1   7  -2  148.90    5.07
  -1  -7   2  134.62    3.34
   2   6  -2    2.39    0.54
  -2  -6   2    4.27    0.50
   3   5  -2   17.37    0.86
  -3  -5   2   15.33    0.91
   4   4  -2    0.42    0.51
  -4  -4   2    0.57    0.30
   5   3  -2    0.21    0.24
  -5  -3   2    0.45    0.32
   6   2  -2   11.84    0.49
  -6  -2   2   12.52    0.78
   7   1  -2   95.14    2.14
  -7  -1   2   92.27    3.61
   8   0  -2   13.24    0.47
  -8   0   2   14.03    0.93
   9  -1  -2   79.56    1.55
  -9   1   2   79.91    2.95
  10  -2  -2    5.59    0.99
 -10   2   2   35.67    1.36
 -11   3   2  187.86    6.63
 -12   4   2   21.59    2.04
 -13   5   2   39.89    2.15
 -14   6   2   31.91    1.94
 -15   7   2   68.70    3.34
 -16   8   2    3.80    1.65
 -17   9   2   14.43    1.62
 -18  10   2    3.90    1.12
 -19  11   2    3.07    1.16
 -20  12   2    0.93    1.02
 -21  13   2   32.09    2.80
 -22  14   2    8.98    1.79
 -23  15   2   27.88    2.76
 -24  16   2    0.95    1.25
 -25  17   2    1.26    1.37
 -26  18   2    3.51    1.76
 -17  27  -2    3.48    2.32
 -16  26  -2    1.09    1.14
 -15  25  -2    3.47    1.33
 -14  24  -2    4.63    1.31
 -13  23  -2    2.00    1.10
 -12  22  -2   -0.63    0.90
 -11  21  -2    7.47    1.42
 -10  20  -2   -0.12    1.17
  -9  19  -2   43.56    2.71
   9 -19   2   43.18    2.87
  -8  18  -2    3.06    1.10
   8 -18   2    3.40    1.22
  -7  17  -2   63.46    3.18
   7 -17   2   57.25    3.26
  -6  16  -2   27.24    2.94
   6 -16   2   29.01    2.19
  -5  15  -2   69.99    3.13
   5 -15   2   67.88    3.30
  -4  14  -2   48.11    2.37
   4 -14   2   49.28    2.59
  -3  13  -2   18.42    1.42
   3 -13   2   20.18    2.18
  -2  12  -2    1.03    1.02
   2 -12   2    0.92    0.07
   2 -12   2    0.16    1.04
   2 -12   2    1.01    0.11
  -1  11  -2   68.71    2.60
   1 -11   2   63.59    1.89
   1 -11   2   64.51    3.40
   0  10  -2    0.81    0.51
   0 -10   2    0.25    0.20
   0 -10   2    0.60    0.44
   0 -10   2    1.46    0.83
   1   9  -2   78.59    2.75
  -1  -9   2   78.02    2.78
  -1  -9   2   77.37    1.84
  -1  -9   2   83.32    2.21
   2   8  -2    4.54    0.65
  -2  -8   2    4.61    0.65
  -2  -8   2    3.51    0.43
  -2  -8   2    3.73    0.32
   3   7  -2   91.49    2.81
  -3  -7   2   87.57    2.79
  -3  -7   2   95.99    2.68
  -3  -7   2   87.86    2.37
   4   6  -2  145.49    4.64
  -4  -6   2  140.45    3.91
   5   5  -2   90.81    2.96
  -5  -5   2   94.04    2.71
   6   4  -2    1.15    0.29
  -6  -4   2    1.02    0.40
   7   3  -2    9.41    0.44
  -7  -3   2    9.22    0.71
   8   2  -2    0.05    0.22
  -8  -2   2    0.25    0.57
   9   1  -2  133.76    2.86
  -9  -1   2  133.65    4.39
 -10   0   2    1.49    0.57
 -11   1   2  192.71    6.68
 -12   2   2    9.00    1.02
 -13   3   2   28.59    1.70
 -14   4   2    1.08    0.72
 -15   5   2   15.61    1.42
 -17   7   2   81.66    3.96
 -18   8   2   -0.11    0.76
 -19   9   2    7.72    2.07
 -20  10   2    0.46    0.86
 -21  11   2   -0.10    0.83
 -22  12   2   14.58    2.88
 -23  13   2   14.36    2.10
 -24  14   2    1.39    1.30
 -25  15   2    5.47    2.57
 -26  16   2    0.79    1.34
 -27  17   2    4.05    1.84
 -15  27  -2    2.88    1.42
 -14  26  -2    0.42    0.99
 -13  25  -2    8.99    1.64
 -12  24  -2   -0.24    0.86
 -11  23  -2   17.05    2.77
 -10  22  -2   10.46    1.58
  10 -22   2    9.40    1.71
  -9  21  -2    2.41    0.97
   9 -21   2    0.14    1.08
  -8  20  -2   10.76    1.47
   8 -20   2    9.58    1.62
  -7  19  -2   -0.26    1.11
   7 -19   2    0.16    0.76
  -6  18  -2   14.58    1.65
   6 -18   2   14.41    2.71
  -5  17  -2    7.92    1.34
   5 -17   2   10.34    1.48
  -4  16  -2    3.27    0.95
   4 -16   2    2.88    1.07
  -3  15  -2   45.29    2.28
   3 -15   2   38.12    2.40
  -2  14  -2    4.76    1.40
   2 -14   2    6.51    1.01
   2 -14   2    4.62    0.18
   2 -14   2    4.37    0.16
  -1  13  -2  143.11    5.87
   1 -13   2  127.22    3.24
   1 -13   2  136.57    5.01
   0  12  -2   11.40    1.07
   0 -12   2   12.37    1.15
   0 -12   2   12.17    1.05
   1  11  -2  189.31    6.05
  -1 -11   2  183.38    6.21
  -1 -11   2  185.34    5.87
  -1 -11   2  177.35    4.64
   2  10  -2   32.99    1.48
  -2 -10   2   34.97    1.71
  -2 -10   2   33.15    1.55
  -2 -10   2   30.39    0.91
   3   9  -2  102.47    3.22
  -3  -9   2  106.20    3.64
  -3  -9   2   97.45    3.27
  -3  -9   2   94.15    2.52
   4   8  -2   12.73    0.82
  -4  -8   2   12.45    0.85
  -4  -8   2   11.07    0.89
  -4  -8   2   14.12    0.83
   5   7  -2   32.95    1.22
  -5  -7   2   37.21    1.43
  -5  -7   2   34.51    1.73
  -5  -7   2   32.78    1.54
   6   6  -2    5.50    0.73
  -6  -6   2    6.11    0.56
  -6  -6   2    5.29    0.53
   7   5  -2  215.54    5.78
  -7  -5   2  222.78    6.82
   8   4  -2    0.30    0.36
  -8  -4   2    1.04    0.45
   9   3  -2    8.08    0.46
  -9  -3   2    7.87    1.15
  10   2  -2   18.27    0.40
 -10  -2   2   17.62    1.17
 -11  -1   2   68.58    2.69
 -12   0   2   12.33    1.09
 -13   1   2  141.97    5.18
 -14   2   2    4.07    0.87
 -15   3   2    8.75    1.17
 -16   4   2    0.15    1.01
 -17   5   2   90.72    4.23
 -18   6   2   33.07    2.36
 -19   7   2   24.59    2.96
 -20   8   2    2.19    1.10
 -21   9   2    0.33    0.89
 -22  10   2   -1.21    1.66
 -23  11   2    8.66    1.73
 -24  12   2    3.12    1.39
 -25  13   2    9.02    2.94
 -26  14   2    4.51    1.69
 -27  15   2    1.16    1.55
 -27  15   2    3.43    1.53
 -14  28  -2    0.98    1.27
 -13  27  -2    2.65    1.31
 -12  26  -2    4.02    2.05
 -11  25  -2    3.64    1.15
  11 -25   2   -0.14    1.33
 -10  24  -2   -1.86    1.03
  10 -24   2   -0.11    1.15
  -9  23  -2    1.03    1.01
   9 -23   2    1.12    1.14
  -8  22  -2    4.29    1.73
   8 -22   2    2.09    1.30
  -7  21  -2    4.86    1.16
   7 -21   2    0.85    1.97
  -6  20  -2   20.57    1.80
   6 -20   2   16.13    2.01
  -5  19  -2   33.14    2.27
   5 -19   2   34.33    2.54
  -4  18  -2    0.05    0.77
   4 -18   2   -0.94    0.88
  -3  17  -2   19.64    1.70
   3 -17   2   23.10    1.90
  -2  16  -2    1.03    1.34
   2 -16   2    2.48    1.48
   2 -16   2    1.86    0.19
  -1  15  -2   24.98    2.38
   1 -15   2   24.82    2.68
   1 -15   2   24.53    0.69
   0  14  -2    1.37    0.65
   0 -14   2    0.12    0.73
   0 -14   2    0.64    0.50
   1  13  -2  133.44    4.64
  -1 -13   2  139.63    5.03
  -1 -13   2  135.48    5.06
   2  12  -2    9.43    0.88
  -2 -12   2    7.44    0.77
  -2 -12   2    8.07    0.98
   3  11  -2  183.56    5.84
  -3 -11   2  175.88    5.43
  -3 -11   2  180.69    6.10
   4  10  -2   51.55    1.93
  -4 -10   2   51.82    2.04
  -4 -10   2   52.33    1.98
   5   9  -2  230.58    7.56
  -5  -9   2  232.69    8.24
  -5  -9   2  221.62    7.01
   6   8  -2   -0.17    0.32
  -6  -8   2   -0.08    0.32
  -6  -8   2   -0.40    0.55
  -6  -8   2    0.37    0.73
   7   7  -2   -0.03    0.30
  -7  -7   2    1.19    0.49
  -7  -7   2    0.43    0.33
  -7  -7   2    0.27    0.38
   8   6  -2    1.16    0.32
  -8  -6   2    1.04    0.64
  -8  -6   2    1.77    0.49
  -8  -6   2    2.02    0.54
   9   5  -2    1.24    0.42
  -9  -5   2    1.53    0.85
  -9  -5   2    1.93    0.29
  -9  -5   2    1.74    0.67
  10   4  -2   65.53    1.52
 -10  -4   2   64.75    2.47
 -11  -3   2   69.38    2.69
 -12  -2   2    0.30    0.53
 -13  -1   2  144.50    5.25
 -14   0   2   -0.55    0.63
 -15   1   2   37.23    2.11
 -16   2   2    0.39    0.67
 -17   3   2    4.51    1.05
 -18   4   2    6.89    1.26
 -19   5   2   33.24    2.35
 -20   6   2   -0.26    0.81
 -21   7   2   33.74    2.53
 -22   8   2    9.38    1.58
 -23   9   2   31.41    2.68
 -24  10   2    1.17    1.79
 -25  11   2    8.13    1.80
 -26  12   2    2.55    1.16
 -26  12   2   -1.50    1.15
 -27  13   2    7.42    2.82
 -27  13   2    6.19    1.85
 -28  14   2    1.12    1.00
 -28  14   2   -1.36    1.10
 -13  29  -2    4.93    2.64
 -12  28  -2    2.12    1.32
 -11  27  -2    9.94    1.59
  11 -27   2    0.16    1.77
 -10  26  -2   -0.60    0.90
  10 -26   2    0.42    1.04
  -9  25  -2   27.18    3.37
   9 -25   2   24.00    2.67
  -8  24  -2    3.66    1.24
   8 -24   2    2.46    2.16
  -7  23  -2   14.06    1.69
   7 -23   2   12.98    1.96
  -6  22  -2    0.29    0.79
   6 -22   2   -1.06    0.94
  -5  21  -2    3.82    1.21
   5 -21   2    6.29    1.36
  -4  20  -2    8.59    1.32
   4 -20   2    5.29    1.50
  -3  19  -2    1.11    1.35
   3 -19   2    0.74    0.13
   3 -19   2    1.46    1.54
  -2  18  -2   13.12    1.45
   2 -18   2   11.82    1.61
   2 -18   2   11.11    0.36
  -1  17  -2   81.28    3.56
   1 -17   2   80.27    3.93
   1 -17   2   79.00    2.16
   0  16  -2   19.78    1.56
   0 -16   2   19.08    1.76
   0 -16   2   21.18    1.05
   1  15  -2   37.15    1.96
  -1 -15   2   35.01    1.46
  -1 -15   2   39.46    2.22
   2  14  -2    2.38    0.78
  -2 -14   2    4.28    1.22
  -2 -14   2    3.04    0.86
   3  13  -2   25.28    1.46
  -3 -13   2   27.62    1.65
  -3 -13   2   26.48    2.28
   4  12  -2   25.26    1.33
  -4 -12   2   24.70    1.44
  -4 -12   2   22.46    2.06
   5  11  -2   89.68    3.62
  -5 -11   2   89.16    3.27
  -5 -11   2   91.27    3.86
   6  10  -2   -0.04    0.35
  -6 -10   2   -0.07    0.79
  -6 -10   2    0.31    0.59
   7   9  -2   71.51    2.20
  -7  -9   2   72.24    3.65
  -7  -9   2   67.25    2.31
   8   8  -2   11.02    0.93
  -8  -8   2    9.92    1.11
  -8  -8   2   10.73    0.71
   9   7  -2   43.97    1.35
  -9  -7   2   46.10    2.05
  -9  -7   2   46.12    1.84
  10   6  -2   55.11    1.48
 -10  -6   2   58.65    2.54
 -10  -6   2   51.56    2.15
 -10  -6   2   59.19    1.64
 -11  -5   2    0.94    0.70
 -11  -5   2    0.40    0.57
 -11  -5   2    1.04    0.23
 -12  -4   2    6.36    1.01
 -12  -4   2    2.99    1.24
 -13  -3   2   20.35    1.66
 -13  -3   2   17.87    1.35
 -14  -2   2    5.44    0.96
 -15  -1   2   25.57    2.51
 -16   0   2   21.52    1.64
 -17   1   2   71.72    3.37
 -18   2   2    1.14    1.29
 -19   3   2  103.11    4.76
 -20   4   2   -0.02    0.69
 -21   5   2   43.02    3.87
 -22   6   2    5.21    1.34
 -23   7   2   35.37    2.78
 -24   8   2   -0.44    0.88
 -24   8   2    0.96    1.29
 -25   9   2   18.27    2.43
 -25   9   2   19.65    2.32
 -26  10   2    0.09    1.13
 -26  10   2   -1.25    1.14
 -27  11   2    1.16    1.51
 -27  11   2    4.92    1.52
 -28  12   2   -0.02    1.66
 -28  12   2   -0.07    1.05
 -29  13   2    3.17    2.22
 -29  13   2    0.63    1.43
 -11  29  -2   12.00    2.67
  11 -29   2   -0.10    1.82
 -10  28  -2    0.50    1.06
  10 -28   2    0.05    1.16
  -9  27  -2    8.49    1.54
   9 -27   2    0.05    1.74
  -8  26  -2   -1.36    1.06
   8 -26   2   -0.07    1.90
  -7  25  -2   16.68    1.93
   7 -25   2   19.54    2.24
  -6  24  -2   -0.44    0.75
   6 -24   2    0.63    0.87
  -5  23  -2   36.42    3.59
   5 -23   2   32.76    2.85
  -4  22  -2    8.52    1.43
   4 -22   2    6.73    2.50
  -3  21  -2    3.55    1.06
   3 -21   2    2.66    1.22
   3 -21   2    3.16    0.17
  -2  20  -2   46.95    2.80
   2 -20   2   51.39    1.27
   2 -20   2   47.98    3.18
  -1  19  -2    0.03    0.86
   1 -19   2    1.18    0.23
   1 -19   2    1.26    1.02
   0  18  -2   11.83    1.38
   0 -18   2   12.99    1.60
   0 -18   2   12.03    0.84
   1  17  -2   64.25    3.07
  -1 -17   2   74.79    4.63
  -1 -17   2   68.24    2.20
   2  16  -2    0.13    0.59
  -2 -16   2    0.59    1.07
  -2 -16   2   -0.11    0.74
   3  15  -2    8.76    1.02
  -3 -15   2    7.03    1.13
  -3 -15   2    8.09    1.16
   4  14  -2    1.89    0.62
  -4 -14   2    0.39    0.79
  -4 -14   2    0.21    0.71
   5  13  -2   38.49    1.75
  -5 -13   2   34.72    1.90
  -5 -13   2   39.42    3.02
   6  12  -2    6.74    1.11
  -6 -12   2    3.56    0.82
  -6 -12   2    5.43    1.56
   7  11  -2  170.31    5.33
  -7 -11   2  172.43    7.21
  -7 -11   2  177.18    5.80
   8  10  -2   10.88    0.78
  -8 -10   2   10.05    1.79
  -8 -10   2    9.52    0.83
   9   9  -2    1.55    0.41
  -9  -9   2    1.76    0.47
  -9  -9   2    0.55    0.80
  10   8  -2   -0.58    0.27
 -10  -8   2    0.42    0.57
 -10  -8   2    1.15    0.48
 -11  -7   2    8.85    0.56
 -11  -7   2   10.44    1.89
 -12  -6   2    2.43    0.47
 -12  -6   2    2.41    0.87
 -12  -6   2    0.59    0.63
 -13  -5   2   45.75    2.24
 -13  -5   2   48.47    1.40
 -13  -5   2   49.43    2.68
 -14  -4   2   49.86    3.75
 -14  -4   2   45.85    2.29
 -15  -3   2   46.83    3.15
 -15  -3   2   45.49    2.79
 -16  -2   2    0.63    1.04
 -16  -2   2    1.97    0.83
 -17  -1   2   79.40    3.82
 -17  -1   2   86.65    4.34
 -18   0   2   15.61    1.86
 -18   0   2   11.75    1.50
 -19   1   2   59.22    3.66
 -19   1   2   51.99    3.05
 -20   2   2   32.50    2.35
 -20   2   2   34.96    2.89
 -21   3   2    2.95    1.07
 -21   3   2    1.63    1.29
 -22   4   2    0.32    0.94
 -22   4   2    1.52    1.09
 -23   5   2   18.66    2.94
 -23   5   2   21.43    2.23
 -24   6   2    4.05    1.40
 -24   6   2    3.08    1.31
 -25   7   2   33.95    2.86
 -25   7   2   27.75    2.75
 -26   8   2    0.09    1.73
 -26   8   2    0.66    1.68
 -27   9   2    8.69    2.98
 -27   9   2    8.49    1.91
 -28  10   2    1.89    1.43
 -28  10   2    1.75    1.42
 -29  11   2    4.06    1.51
 -29  11   2    0.08    1.51
 -10  30  -2   -0.56    1.25
  10 -30   2    0.01    1.30
  -9  29  -2    8.99    1.74
   9 -29   2   -0.06    1.86
  -8  28  -2   -0.07    0.97
   8 -28   2   -0.12    1.66
  -7  27  -2    3.32    1.83
   7 -27   2    0.31    1.37
  -6  26  -2    0.54    0.93
   6 -26   2   -0.09    1.09
  -5  25  -2   42.74    2.93
   5 -25   2   41.14    3.41
  -4  24  -2    0.30    0.77
   4 -24   2   -1.05    1.38
  -3  23  -2   17.68    1.77
   3 -23   2   22.00    2.21
   3 -23   2   16.34    0.57
  -2  22  -2    1.95    0.94
   2 -22   2    1.97    1.07
   2 -22   2    1.20    0.33
  -1  21  -2   -0.55    0.77
   1 -21   2    0.39    0.22
   1 -21   2    0.16    0.88
   0  20  -2    6.01    1.19
   0 -20   2    6.66    2.08
   0 -20   2    5.19    0.66
   1  19  -2   48.47    2.71
  -1 -19   2   50.17    3.13
  -1 -19   2   54.86    2.27
   2  18  -2    0.88    0.75
  -2 -18   2    0.88    0.88
  -2 -18   2    0.02    0.73
   3  17  -2    3.32    0.94
  -3 -17   2    4.76    1.32
  -3 -17   2    4.60    1.13
   4  16  -2   -0.22    0.55
  -4 -16   2    0.64    0.67
  -4 -16   2   -0.09    0.63
   5  15  -2   12.40    1.15
  -5 -15   2   14.56    1.33
  -5 -15   2    3.96    2.46
   6  14  -2   28.71    1.58
  -6 -14   2   30.25    1.81
  -6 -14   2   30.35    2.19
   7  13  -2   95.72    4.12
  -7 -13   2   98.81    4.25
  -7 -13   2   90.40    4.39
   8  12  -2    3.91    0.66
  -8 -12   2    4.02    1.11
  -8 -12   2    2.57    1.18
   9  11  -2  164.40    5.15
  -9 -11   2  153.94    5.98
  -9 -11   2  158.95    6.05
 -10 -10   2   -0.36    1.43
 -10 -10   2   -1.08    0.75
 -11  -9   2   22.52    1.08
 -11  -9   2   25.77    1.92
 -12  -8   2   24.05    2.80
 -12  -8   2   22.71    0.99
 -13  -7   2   20.38    1.94
 -13  -7   2   22.27    1.15
 -14  -6   2    6.29    0.40
 -14  -6   2    8.75    1.38
 -15  -5   2   76.57    1.88
 -15  -5   2   71.13    3.63
 -15  -5   2   64.52    3.10
 -16  -4   2    3.01    1.14
 -16  -4   2    1.54    0.88
 -17  -3   2   19.19    2.36
 -17  -3   2   18.75    2.07
 -18  -2   2   10.32    1.81
 -18  -2   2   11.54    1.47
 -19  -1   2    1.74    0.97
 -19  -1   2    0.96    1.26
 -20   0   2    9.13    2.57
 -20   0   2    5.70    1.28
 -21   1   2    3.76    1.11
 -21   1   2    4.50    2.29
 -22   2   2    1.74    1.60
 -22   2   2    0.00    0.82
 -23   3   2   10.50    2.78
 -23   3   2    9.47    1.58
 -24   4   2    5.83    1.43
 -24   4   2    4.50    1.66
 -25   5   2   42.06    3.44
 -25   5   2   43.62    4.32
 -26   6   2    1.94    1.17
 -26   6   2    0.36    1.27
 -27   7   2   30.66    2.99
 -27   7   2   30.14    3.06
 -28   8   2    0.25    1.82
 -28   8   2   -0.89    1.22
 -29   9   2    7.64    1.94
 -29   9   2    5.08    1.93
 -30  10   2    2.57    1.51
 -30  10   2   -0.62    2.49
  -8  30  -2    1.00    1.44
  -7  29  -2    5.17    1.55
   7 -29   2   -0.06    1.64
  -6  28  -2    0.62    1.08
   6 -28   2   -0.06    1.16
  -5  27  -2   16.95    2.25
   5 -27   2   22.73    2.59
  -4  26  -2   -0.49    0.88
   4 -26   2    2.11    1.58
  -3  25  -2   54.40    4.54
   3 -25   2   48.83    3.54
   3 -25   2   44.74    1.19
  -2  24  -2    0.16    1.29
   2 -24   2    0.21    0.29
   2 -24   2   -0.20    0.95
  -1  23  -2    0.28    0.78
   1 -23   2    0.24    0.24
   1 -23   2    0.25    0.92
   0  22  -2   11.31    1.30
   0 -22   2    8.68    2.45
   0 -22   2    7.80    0.56
   1  21  -2    4.41    1.07
  -1 -21   2    3.44    1.28
  -1 -21   2    4.28    0.52
   2  20  -2   33.57    2.16
  -2 -20   2   33.67    1.46
  -2 -20   2   30.24    2.52
   3  19  -2   95.41    4.15
  -3 -19   2   97.11    3.66
  -3 -19   2   99.62    4.76
   4  18  -2    4.31    1.65
  -4 -18   2    4.97    1.27
  -4 -18   2    7.10    1.62
   5  17  -2   85.23    4.48
  -5 -17   2   81.98    5.07
  -5 -17   2   81.45    3.93
   6  16  -2    0.08    0.58
  -6 -16   2    0.52    0.92
  -6 -16   2    0.06    1.06
   7  15  -2   60.83    2.60
  -7 -15   2   68.01    3.73
  -7 -15   2   59.26    2.76
   8  14  -2    2.07    0.70
  -8 -14   2    4.97    1.98
  -8 -14   2    2.70    0.81
  -9 -13   2   15.78    1.96
  -9 -13   2   15.91    1.25
 -10 -12   2   -0.09    0.95
 -10 -12   2    0.68    0.54
 -11 -11   2   14.72    1.02
 -11 -11   2   14.60    1.84
 -12 -10   2   25.65    1.25
 -12 -10   2   26.39    2.36
 -13  -9   2  148.04    5.08
 -13  -9   2  141.12    6.21
 -14  -8   2   -0.22    1.05
 -14  -8   2    1.23    0.59
 -15  -7   2   63.11    1.79
 -15  -7   2   58.59    3.48
 -16  -6   2   30.77    0.88
 -16  -6   2   32.29    2.58
 -17  -5   2   12.47    1.83
 -17  -5   2    9.74    1.34
 -17  -5   2   10.71    0.31
 -18  -4   2    1.25    0.87
 -18  -4   2    0.27    1.94
 -19  -3   2    0.15    1.98
 -19  -3   2    2.46    1.51
 -20  -2   2   54.15    3.53
 -20  -2   2   51.49    3.06
 -21  -1   2    0.97    0.77
 -21  -1   2   -1.08    0.96
 -22   0   2    8.86    1.41
 -22   0   2    7.12    1.71
 -23   1   2   11.35    1.86
 -23   1   2    8.45    1.51
 -24   2   2    0.65    0.95
 -24   2   2    0.50    1.11
 -25   3   2   46.21    3.21
 -25   3   2   45.22    3.55
 -26   4   2   -0.63    0.93
 -26   4   2    0.43    1.03
 -27   5   2   10.19    2.69
 -27   5   2    9.29    1.97
 -28   6   2    0.11    2.07
 -28   6   2    1.28    1.25
 -29   7   2   10.65    2.16
 -29   7   2   12.70    3.63
 -30   8   2   -0.86    2.02
 -30   8   2   -0.56    1.45
   7 -31   2   -0.06    1.22
  -6  30  -2   -0.44    1.16
   6 -30   2    0.25    1.18
  -5  29  -2    3.75    1.47
   5 -29   2   -0.02    1.51
  -4  28  -2   -0.40    1.11
   4 -28   2   -0.43    1.80
  -3  27  -2   19.54    2.25
   3 -27   2   15.45    2.49
  -2  26  -2    4.51    1.22
   2 -26   2    2.47    0.29
   2 -26   2    1.77    1.38
  -1  25  -2   13.31    1.81
   1 -25   2   12.33    2.12
   1 -25   2   14.11    0.69
   0  24  -2    4.68    1.16
   0 -24   2    3.18    0.46
   0 -24   2    1.98    2.12
   1  23  -2    6.27    1.39
   1  23  -2    7.71    0.64
  -1 -23   2   12.09    1.64
  -1 -23   2    9.27    0.70
   2  22  -2    0.00    0.35
   2  22  -2    1.32    0.73
  -2 -22   2   -0.68    0.88
  -2 -22   2    0.27    0.38
   3  21  -2    3.09    0.95
  -3 -21   2    1.00    1.14
  -3 -21   2    2.76    0.92
   4  20  -2   -0.18    0.79
  -4 -20   2   -1.26    0.63
  -4 -20   2   -0.10    0.92
   5  19  -2   31.16    2.02
  -5 -19   2   29.96    2.97
  -5 -19   2   30.23    3.42
   6  18  -2   32.56    2.03
  -6 -18   2   32.58    3.59
  -6 -18   2   34.82    2.36
  -7 -17   2   79.83    4.44
  -7 -17   2   78.93    3.70
  -8 -16   2    3.88    1.57
  -8 -16   2    4.64    1.01
  -9 -15   2    6.57    1.03
  -9 -15   2    6.38    1.66
 -10 -14   2    2.76    0.78
 -10 -14   2    1.85    1.30
 -11 -13   2   16.32    3.39
 -11 -13   2   16.90    1.28
 -12 -12   2   -0.20    0.50
 -12 -12   2   -0.90    1.03
 -13 -11   2   58.24    3.49
 -13 -11   2   54.77    2.19
 -14 -10   2   24.90    2.54
 -14 -10   2   24.08    1.21
 -15  -9   2  128.33    8.17
 -15  -9   2  135.35    4.14
 -16  -8   2    4.74    1.62
 -16  -8   2    5.05    0.75
 -17  -7   2   67.68    4.28
 -17  -7   2   66.95    1.84
 -18  -6   2   16.58    0.67
 -18  -6   2   18.13    3.44
 -19  -5   2   32.66    2.31
 -19  -5   2   33.91    2.88
 -20  -4   2    6.47    1.22
 -20  -4   2    4.57    1.66
 -21  -3   2    3.48    1.48
 -21  -3   2    2.18    1.06
 -22  -2   2    2.20    1.04
 -22  -2   2    3.23    1.47
 -23  -1   2   -0.53    1.23
 -23  -1   2    1.32    0.90
 -24   0   2    1.30    1.16
 -24   0   2    4.18    1.52
 -25   1   2    4.71    1.75
 -25   1   2    3.91    1.35
 -26   2   2    3.15    1.94
 -26   2   2    2.12    1.59
 -27   3   2   15.53    2.46
 -27   3   2   14.10    2.08
 -28   4   2    1.39    1.28
 -28   4   2    2.18    1.52
 -29   5   2   13.05    2.55
 -29   5   2   15.29    3.37
 -30   6   2   -2.69    1.45
 -30   6   2   -0.04    1.58
 -31   7   2    0.53    1.28
 -31   7   2    0.63    1.48
   5 -31   2   13.45    2.59
   3 -29   2    4.37    1.79
   2 -28   2    0.89    1.26
  -1  27  -2   -0.30    1.58
   1 -27   2    5.95    0.47
   1 -27   2    6.41    1.73
   0  26  -2    0.55    0.90
   0 -26   2   -0.96    1.52
   0 -26   2   -0.15    0.29
   1  25  -2    0.00    0.46
   1  25  -2    0.70    1.09
  -1 -25   2    2.77    1.26
  -1 -25   2    3.40    0.49
   2  24  -2    0.29    0.80
   2  24  -2   -0.02    0.36
  -2 -24   2   -0.32    0.87
  -2 -24   2    0.48    0.60
   3  23  -2   10.13    0.84
  -3 -23   2   12.37    1.77
  -3 -23   2   10.69    0.96
   4  22  -2    0.03    0.38
   4  22  -2   -0.36    0.62
  -4 -22   2   -0.45    0.76
  -4 -22   2    0.61    0.68
  -5 -21   2   37.97    2.16
  -5 -21   2   39.23    3.78
  -6 -20   2    0.66    0.75
  -6 -20   2   -0.41    0.65
  -7 -19   2   20.39    3.02
  -7 -19   2   20.76    1.90
  -8 -18   2    1.69    0.89
  -8 -18   2   -0.90    1.89
  -9 -17   2   11.36    1.37
  -9 -17   2    8.51    3.44
 -10 -16   2    9.00    1.26
 -10 -16   2    4.57    3.26
 -11 -15   2    7.80    1.78
 -11 -15   2    4.10    1.52
 -12 -14   2    0.01    1.01
 -12 -14   2   -0.08    0.83
 -13 -13   2   57.94    5.92
 -13 -13   2   55.67    3.17
 -14 -12   2    0.83    0.82
 -14 -12   2   -0.02    1.22
 -15 -11   2  145.83    9.56
 -15 -11   2  149.79    5.79
 -16 -10   2   70.93    4.86
 -16 -10   2   76.96    3.19
 -17  -9   2   54.23    1.83
 -17  -9   2   53.53    4.03
 -18  -8   2    3.13    0.61
 -18  -8   2    2.70    1.58
 -19  -7   2    2.12    1.26
 -19  -7   2    0.63    0.36
 -20  -6   2   16.69    1.74
 -20  -6   2   17.31    0.44
 -20  -6   2   20.42    2.38
 -21  -5   2    5.91    1.76
 -21  -5   2    4.94    1.19
 -22  -4   2    8.20    1.45
 -22  -4   2    8.13    3.15
 -23  -3   2   18.70    1.94
 -23  -3   2   18.14    3.79
 -24  -2   2   -0.59    0.80
 -24  -2   2    1.05    1.01
 -25  -1   2   13.82    2.28
 -25  -1   2   13.07    2.75
 -26   0   2   -2.68    1.49
 -26   0   2   -1.43    1.19
 -27   1   2   11.93    1.88
 -27   1   2    9.73    2.25
 -28   2   2   -1.18    1.33
 -28   2   2    0.09    1.75
 -29   3   2    2.73    1.40
 -29   3   2    1.19    2.60
 -30   4   2    1.32    2.36
 -30   4   2    0.58    1.24
 -31   5   2    4.68    3.53
 -31   5   2    5.74    1.91
   2 -30   2    1.16    1.42
   1 -29   2   -0.78    1.34
   0 -28   2   -1.33    1.31
  -1 -27   2   11.12    3.17
  -1 -27   2   12.18    0.87
   2  26  -2    0.02    0.41
  -2 -26   2   -0.82    0.99
  -2 -26   2    1.10    0.65
   3  25  -2   40.36    1.86
  -3 -25   2   43.69    3.36
  -3 -25   2   48.51    2.19
   4  24  -2    5.49    0.75
  -4 -24   2    4.64    1.50
  -4 -24   2    6.17    1.32
   5  23  -2   16.02    1.19
  -5 -23   2   19.43    1.42
  -5 -23   2   20.45    3.07
  -6 -22   2    3.71    1.27
  -6 -22   2    3.69    0.97
  -7 -21   2   27.81    2.27
  -7 -21   2   29.13    2.19
  -8 -20   2    1.00    0.99
  -8 -20   2    2.55    1.08
  -9 -19   2    5.40    1.55
  -9 -19   2    5.94    1.21
 -10 -18   2    3.08    1.50
 -10 -18   2    3.26    1.55
 -11 -17   2    4.00    1.55
 -11 -17   2    3.80    1.65
 -12 -16   2    8.20    1.92
 -12 -16   2    6.50    1.71
 -13 -15   2    0.86    1.15
 -13 -15   2   -0.30    0.55
 -14 -14   2    1.58    1.67
 -14 -14   2    2.77    0.77
 -15 -13   2    0.95    0.61
 -15 -13   2    4.16    2.43
 -16 -12   2   20.62    1.23
 -16 -12   2   17.69    2.85
 -17 -11   2   80.01    5.17
 -17 -11   2   75.15    3.29
 -18 -10   2    2.28    1.50
 -18 -10   2    1.84    0.74
 -19  -9   2   45.01    3.60
 -19  -9   2   44.19    1.52
 -20  -8   2   12.52    2.14
 -20  -8   2   10.07    0.74
 -21  -7   2    4.03    1.84
 -21  -7   2   -0.42    0.78
 -22  -6   2    1.51    1.35
 -22  -6   2    0.73    0.90
 -23  -5   2   35.81    3.39
 -23  -5   2   35.28    2.67
 -24  -4   2   -0.24    1.17
 -24  -4   2   -0.03    1.32
 -25  -3   2   49.33    3.36
 -25  -3   2   51.59    4.22
 -26  -2   2    4.75    1.42
 -26  -2   2    3.47    1.91
 -27  -1   2    6.38    2.54
 -27  -1   2    9.28    2.18
 -28   0   2   -2.29    1.22
 -28   0   2    1.42    0.92
 -29   1   2   11.62    2.50
 -29   1   2    9.87    1.92
 -30   2   2    3.24    1.95
 -30   2   2    3.35    1.53
 -31   3   2    1.88    1.70
 -31   3   2    0.58    1.36
   1 -31   2    5.76    2.05
   0 -30   2   -1.20    1.44
  -1 -29   2    8.18    3.10
  -2 -28   2    0.13    1.18
  -2 -28   2    0.60    0.70
   3  27  -2    9.19    0.95
  -3 -27   2   13.82    1.07
  -3 -27   2   11.43    2.06
   4  26  -2   -0.79    0.46
  -4 -26   2    0.45    0.53
  -4 -26   2    0.96    0.98
   5  25  -2   37.86    1.98
  -5 -25   2   47.28    3.19
  -5 -25   2   37.61    3.17
   6  24  -2    3.20    0.75
  -6 -24   2    0.29    2.01
  -6 -24   2    2.84    0.93
  -7 -23   2   27.39    2.59
  -7 -23   2   32.74    2.24
  -8 -22   2    3.56    1.41
  -8 -22   2    7.27    1.32
  -9 -21   2    1.19    0.98
  -9 -21   2    1.51    1.12
 -10 -20   2    0.65    0.82
 -10 -20   2    0.65    1.12
 -11 -19   2    1.90    1.51
 -11 -19   2    3.65    1.48
 -12 -18   2    7.83    3.35
 -12 -18   2   13.92    1.40
 -13 -17   2    3.38    1.70
 -13 -17   2    3.97    0.99
 -14 -16   2    2.65    1.39
 -14 -16   2    1.25    0.74
 -15 -15   2    3.74    2.73
 -15 -15   2    4.17    0.84
 -16 -14   2   13.22    2.25
 -16 -14   2    9.51    1.01
 -17 -13   2   40.81    1.90
 -17 -13   2   45.09    3.76
 -18 -12   2    0.27    0.46
 -18 -12   2    1.53    1.22
 -19 -11   2   86.14    5.55
 -19 -11   2   89.98    3.55
 -20 -10   2    1.32    2.44
 -20 -10   2    1.85    0.67
 -21  -9   2    2.25    0.37
 -21  -9   2    4.22    1.55
 -22  -8   2    3.11    0.29
 -22  -8   2    2.02    1.70
 -23  -7   2   17.83    2.72
 -23  -7   2   14.24    1.80
 -24  -6   2   -2.63    1.46
 -24  -6   2    0.01    1.02
 -25  -5   2   46.83    5.97
 -25  -5   2   42.90    3.19
 -26  -4   2    0.07    2.24
 -26  -4   2    0.72    1.01
 -27  -3   2   19.44    2.22
 -27  -3   2   18.91    4.47
 -28  -2   2    2.13    1.51
 -28  -2   2   -0.31    1.80
 -29  -1   2    1.90    1.62
 -29  -1   2    1.29    1.29
 -30   0   2   -0.34    1.05
 -30   0   2    1.02    1.38
 -31   1   2    4.04    3.12
 -31   1   2    1.30    2.32
  -1 -31   2    2.65    1.72
  -2 -30   2    2.48    2.55
  -3 -29   2    2.05    0.65
  -3 -29   2    2.70    1.49
  -4 -28   2    1.07    0.69
  -4 -28   2    2.14    1.35
   5  27  -2    7.78    0.95
  -5 -27   2   11.23    1.82
  -5 -27   2    5.90    1.74
   6  26  -2    0.00    0.54
  -6 -26   2    0.97    1.06
  -6 -26   2   -0.16    1.53
   7  25  -2   22.06    1.63
  -7 -25   2   22.93    2.52
  -7 -25   2   29.26    2.13
  -8 -24   2   -0.43    0.93
  -8 -24   2   -0.04    0.82
  -9 -23   2   25.23    2.41
  -9 -23   2   27.35    2.42
 -10 -22   2    1.37    1.12
 -10 -22   2   -1.89    0.93
 -11 -21   2   -0.70    1.36
 -11 -21   2   -0.46    1.84
 -12 -20   2    0.18    2.16
 -12 -20   2    1.25    1.35
 -13 -19   2   20.64    2.89
 -13 -19   2   25.92    1.95
 -14 -18   2    1.05    0.81
 -14 -18   2    1.28    1.37
 -15 -17   2   40.56    2.30
 -15 -17   2   37.41    5.39
 -16 -16   2    2.87    1.49
 -16 -16   2    1.30    0.76
 -17 -15   2    3.99    0.85
 -17 -15   2    6.50    2.84
 -18 -14   2    0.09    0.44
 -18 -14   2   -0.61    1.05
 -19 -13   2   17.29    2.61
 -19 -13   2   14.30    1.06
 -20 -12   2   14.06    3.85
 -20 -12   2   13.76    0.95
 -21 -11   2    6.23    0.91
 -21 -11   2    3.74    2.00
 -22 -10   2    9.90    0.64
 -22 -10   2    9.95    2.38
 -23  -9   2    0.46    0.40
 -23  -9   2   -0.36    2.26
 -24  -8   2    2.16    0.20
 -24  -8   2    0.68    1.11
 -24  -8   2    3.84    2.71
 -25  -7   2   14.46    2.69
 -25  -7   2   16.21    2.02
 -26  -6   2    0.60    1.09
 -26  -6   2    2.42    1.61
 -27  -5   2   19.80    3.07
 -27  -5   2   20.08    3.27
 -28  -4   2   -0.21    1.50
 -28  -4   2   -0.35    1.01
 -29  -3   2    5.41    2.06
 -29  -3   2    2.89    1.53
 -30  -2   2    1.15    1.41
 -30  -2   2   -1.21    1.60
 -31  -1   2    4.37    2.41
 -31  -1   2    5.06    1.70
 -32   0   2    2.91    1.59
  -4 -30   2    0.86    1.36
  -5 -29   2   12.14    2.33
  -5 -29   2   14.87    2.01
  -6 -28   2   -0.27    1.19
  -6 -28   2    1.44    1.22
  -7 -27   2   39.95    3.64
  -7 -27   2   30.41    4.48
  -8 -26   2   -0.27    1.08
  -8 -26   2    0.85    0.91
  -9 -25   2   17.32    2.25
  -9 -25   2   21.74    2.13
 -10 -24   2    0.83    1.07
 -10 -24   2    1.07    1.78
 -11 -23   2    9.85    1.61
 -11 -23   2    4.62    2.92
 -12 -22   2   14.96    2.70
 -12 -22   2   15.52    2.37
 -13 -21   2   35.92    3.50
 -13 -21   2   30.45    3.36
 -14 -20   2    1.32    0.88
 -14 -20   2    0.31    1.55
 -15 -19   2   44.49    2.68
 -15 -19   2   46.39    6.20
 -16 -18   2    4.87    1.71
 -16 -18   2    1.48    0.91
 -17 -17   2    1.74    0.80
 -17 -17   2    3.64    2.74
 -18 -16   2    2.42    1.36
 -18 -16   2    0.07    0.60
 -19 -15   2   -1.63    1.36
 -19 -15   2   -0.05    0.55
 -20 -14   2   -0.19    1.53
 -20 -14   2    1.15    0.57
 -21 -13   2    1.09    0.51
 -21 -13   2   -0.50    1.58
 -22 -12   2   -0.56    2.15
 -22 -12   2    0.21    0.58
 -23 -11   2   11.39    0.76
 -23 -11   2   13.39    2.57
 -24 -10   2    0.37    0.41
 -24 -10   2   -1.05    1.35
 -25  -9   2    0.54    1.37
 -25  -9   2   24.16    2.41
 -26  -8   2    0.55    1.55
 -26  -8   2    0.46    1.00
 -27  -7   2    4.22    1.98
 -27  -7   2    1.41    1.23
 -28  -6   2    0.80    2.93
 -28  -6   2    1.36    1.86
 -29  -5   2    2.43    3.15
 -29  -5   2    2.54    1.41
 -30  -4   2    0.22    1.21
 -30  -4   2    1.88    1.74
 -31  -3   2    4.96    2.46
  -5 -31   2    3.21    1.82
  -6 -30   2   -1.69    1.43
  -6 -30   2   -0.61    1.29
  -7 -29   2    8.87    2.12
  -7 -29   2   13.26    2.34
  -8 -28   2   -1.73    1.84
  -8 -28   2    0.12    1.53
  -9 -27   2    5.56    2.60
  -9 -27   2   10.61    1.85
 -10 -26   2   -1.29    1.60
 -10 -26   2    0.07    1.01
 -11 -25   2    6.30    2.70
 -11 -25   2    7.56    1.62
 -12 -24   2    1.90    1.10
 -12 -24   2    1.18    1.42
 -13 -23   2   11.13    2.39
 -13 -23   2   14.04    2.59
 -14 -22   2    7.16    2.16
 -14 -22   2    5.27    2.05
 -15 -21   2   23.18    4.67
 -15 -21   2   18.02    1.86
 -16 -20   2    1.08    0.85
 -16 -20   2   -0.48    1.60
 -17 -19   2   17.62    1.72
 -17 -19   2   23.11    4.72
 -18 -18   2    1.13    1.81
 -18 -18   2    1.83    0.84
 -19 -17   2   -0.29    4.38
 -19 -17   2   16.09    1.39
 -20 -16   2    0.89    0.64
 -20 -16   2    0.18    1.57
 -21 -15   2    0.50    2.27
 -21 -15   2    5.82    0.83
 -22 -14   2    1.35    0.56
 -22 -14   2    0.89    2.69
 -23 -13   2    2.17    0.87
 -23 -13   2    3.33    1.91
 -24 -12   2    2.78    1.68
 -24 -12   2    0.59    0.42
 -25 -11   2    3.82    3.38
 -26 -10   2    1.13    2.67
 -27  -9   2   12.28    2.81
 -27  -9   2   10.35    1.82
 -28  -8   2   -0.77    1.10
 -28  -8   2    3.43    1.67
 -29  -7   2    6.97    2.72
 -29  -7   2    6.97    1.78
 -30  -6   2    4.02    2.42
 -30  -6   2    3.31    1.58
 -31  -5   2   11.00    3.36
 -31  -5   2   12.75    2.22
  -7 -31   2   -0.92    1.21
  -7 -31   2    0.56    1.11
  -8 -30   2    0.30    1.75
  -8 -30   2    3.36    1.55
  -9 -29   2    4.30    2.90
  -9 -29   2    9.39    2.50
 -10 -28   2   -0.13    0.93
 -10 -28   2    0.27    1.37
 -11 -27   2    0.09    1.18
 -11 -27   2    1.73    1.82
 -12 -26   2    0.03    0.92
 -12 -26   2   -0.37    1.09
 -13 -25   2    8.02    1.62
 -13 -25   2    6.16    2.18
 -14 -24   2   -1.10    1.64
 -14 -24   2    3.10    1.57
 -15 -23   2   21.96    3.11
 -15 -23   2   25.32    5.00
 -16 -22   2    2.58    1.09
 -16 -22   2    0.80    1.91
 -17 -21   2   18.14    4.88
 -17 -21   2   15.63    1.78
 -18 -20   2    1.09    2.02
 -18 -20   2    2.63    1.00
 -19 -19   2   22.56    5.26
 -19 -19   2   18.48    1.70
 -20 -18   2   -1.12    0.73
 -20 -18   2   -0.12    1.86
 -21 -17   2    0.26    4.15
 -21 -17   2    6.83    1.01
 -22 -16   2    4.77    0.83
 -22 -16   2   -0.10    2.31
 -23 -15   2    0.02    0.41
 -23 -15   2   -0.19    1.29
 -24 -14   2    2.13    0.90
 -24 -14   2   -0.17    3.31
 -25 -13   2   12.24    2.95
 -26 -12   2    0.97    1.93
 -27 -11   2   11.14    3.06
 -28 -10   2   -0.48    0.93
 -28 -10   2    1.66    1.59
 -29  -9   2   11.34    2.01
 -29  -9   2    7.61    4.99
 -30  -8   2    0.05    2.98
 -30  -8   2    0.62    1.20
 -31  -7   2    6.84    2.63
 -31  -7   2    2.59    1.63
 -10 -30   2    0.69    1.68
 -10 -30   2   -0.20    1.91
 -11 -29   2    2.89    1.99
 -11 -29   2   -0.08    1.31
 -12 -28   2    0.10    1.29
 -12 -28   2    2.12    1.37
 -13 -27   2   -0.09    1.51
 -13 -27   2    8.84    1.87
 -14 -26   2   -0.14    0.89
 -14 -26   2    0.48    1.29
 -15 -25   2   -0.15    1.42
 -15 -25   2    0.05    2.11
 -16 -24   2    0.35    1.54
 -16 -24   2    0.30    1.41
 -17 -23   2    0.59    2.29
 -17 -23   2    4.14    1.24
 -18 -22   2    1.73    1.82
 -18 -22   2    0.47    0.91
 -19 -21   2    9.15    1.43
 -19 -21   2   10.66    3.10
 -20 -20   2    0.13    0.71
 -20 -20   2    0.53    1.73
 -21 -19   2   11.82    1.37
 -21 -19   2   13.43    3.28
 -22 -18   2   -0.52    0.67
 -22 -18   2   -0.20    1.91
 -23 -17   2    0.24    2.92
 -23 -17   2    7.19    1.02
 -24 -16   2    0.66    0.90
 -24 -16   2    0.45    1.86
 -25 -15   2    0.75    2.08
 -25 -15   2    1.13    0.86
 -26 -14   2    0.50    1.95
 -27 -13   2   -0.19    2.97
 -28 -12   2   -0.11    1.73
 -29 -11   2    9.73    1.95
 -29 -11   2   13.40    3.48
 -30 -10   2   -0.21    1.08
 -30 -10   2    1.34    1.92
 -13 -29   2    2.31    1.54
 -13 -29   2    0.09    1.37
 -14 -28   2    0.11    1.31
 -14 -28   2    3.42    1.75
 -15 -27   2   -0.04    0.93
 -15 -27   2    0.38    2.06
 -16 -26   2    0.11    0.98
 -16 -26   2    0.56    1.54
 -17 -25   2    4.90    2.16
 -17 -25   2   -0.01    1.90
 -18 -24   2    1.68    1.52
 -18 -24   2   -0.90    1.85
 -19 -23   2    3.59    2.45
 -19 -23   2    2.57    1.17
 -20 -22   2    2.85    2.24
 -20 -22   2    1.06    1.00
 -21 -21   2   16.76    3.80
 -21 -21   2   12.67    1.62
 -22 -20   2    2.60    1.00
 -22 -20   2    6.13    2.77
 -23 -19   2    3.07    0.94
 -23 -19   2   -0.27    4.17
 -24 -18   2    2.36    0.79
 -24 -18   2   -0.05    2.62
 -25 -17   2    1.58    1.04
 -25 -17   2    0.00    2.51
 -26 -16   2    0.35    3.19
 -27 -15   2    0.41    2.12
 -28 -14   2   -0.42    2.23
 -29 -13   2   -0.51    2.28
 -17 -27   2    0.11    1.54
 -17 -27   2   -0.07    0.94
 -18 -26   2    0.09    2.53
 -18 -26   2   -0.07    1.39
 -19 -25   2    0.01    1.83
 -19 -25   2    4.44    2.37
 -20 -24   2    4.02    3.95
 -20 -24   2    1.14    1.74
 -21 -23   2    7.67    3.52
 -21 -23   2    7.63    2.21
 -22 -22   2   -1.51    3.64
 -22 -22   2   -0.27    1.30
 -23 -21   2    4.88    1.92
 -23 -21   2   10.73    3.58
 -24 -20   2    0.08    2.51
 -24 -20   2    0.74    1.18
 -25 -19   2    0.11    4.96
 -25 -19   2    3.57    1.40
 -26 -18   2   -0.52    2.51
 -27 -17   2    0.23    2.33
 -26 -15  -3   -1.77    2.95
  26  15   3   -0.25    1.93
 -25 -16  -3    0.10    3.72
  25  16   3   -0.22    2.71
 -24 -17  -3   25.47    4.57
  24  17   3    0.83    3.37
 -23 -18  -3   -0.56    2.54
  23  18   3   -0.29    1.96
 -22 -19  -3    0.47    3.61
  22  19   3   -0.01    1.97
 -21 -20  -3   -0.37    2.83
  21  20   3   -1.53    2.43
 -20 -21  -3   -0.65    2.37
  20  21   3    0.30    3.32
 -19 -22  -3    0.79    2.28
  19  22   3   -0.37    2.20
 -18 -23  -3    0.32    2.03
  18  23   3    0.00    2.14
 -17 -24  -3    5.95    2.82
  17  24   3   -0.68    3.03
 -16 -25  -3   -0.81    3.47
  16  25   3   -1.81    4.34
 -15 -26  -3    3.43    2.19
  15  26   3   -0.16    3.02
 -28 -11  -3    0.55    2.27
  28  11   3   -0.35    1.43
 -27 -12  -3    0.87    2.37
  27  12   3   -0.31    2.60
 -26 -13  -3    0.36    2.50
  26  13   3    0.75    1.83
 -25 -14  -3   -0.62    2.47
  25  14   3   -0.58    2.86
 -24 -15  -3   -0.55    3.27
  24  15   3    0.28    1.64
 -23 -16  -3   -0.26    1.97
  23  16   3   -0.04    1.61
 -22 -17  -3    0.03    2.36
  22  17   3   -0.88    1.99
 -21 -18  -3    0.69    2.35
  21  18   3    0.39    2.05
 -20 -19  -3    2.00    2.58
  20  19   3    1.45    3.69
 -19 -20  -3    0.28    2.26
  19  20   3    0.84    2.24
 -18 -21  -3    2.20    2.26
  18  21   3   -1.26    2.27
 -17 -22  -3    8.68    3.15
  17  22   3    0.35    5.24
 -16 -23  -3    5.96    2.60
  16  23   3   -1.41    3.06
 -15 -24  -3   17.46    4.65
  15  24   3    1.98    3.86
 -14 -25  -3    3.91    2.16
  14  25   3    0.93    3.02
 -13 -26  -3   15.23    2.89
  13  26   3    1.03    7.23
 -12 -27  -3    0.75    1.45
  12  27   3    0.83    2.70
 -11 -28  -3    1.55    1.64
 -11 -28  -3    4.89    1.90
  11  28   3    2.32    3.32
 -29  -8  -3    0.48    2.19
  29   8   3    0.07    1.31
 -28  -9  -3    0.12    1.98
  28   9   3   -0.01    1.28
 -27 -10  -3   -0.01    3.45
  27  10   3   -0.68    1.60
 -26 -11  -3   -0.01    1.90
  26  11   3    0.17    1.39
 -25 -12  -3    1.20    2.04
  25  12   3   -0.13    1.63
 -24 -13  -3   -0.41    1.99
  24  13   3   -0.46    1.71
 -23 -14  -3   -0.12    3.21
  23  14   3    0.84    1.80
 -22 -15  -3   -0.92    1.91
  22  15   3    0.19    1.77
 -21 -16  -3    0.16    1.99
  21  16   3    0.80    1.81
 -20 -17  -3   -0.01    1.84
  20  17   3    0.61    2.75
 -19 -18  -3   -0.58    1.62
  19  18   3    0.60    1.74
 -18 -19  -3   32.55    3.97
  18  19   3    1.20    4.11
 -17 -20  -3   18.60    3.69
  17  20   3    1.80    6.24
 -16 -21  -3   10.04    2.76
  16  21   3    0.32    3.20
 -15 -22  -3   17.16    3.06
  15  22   3    1.36    3.71
 -14 -23  -3   25.32    5.13
  14  23   3    3.26    7.26
 -13 -24  -3    1.99    1.62
  13  24   3   -1.48    2.61
 -12 -25  -3    4.70    1.90
  12  25   3    2.08    3.27
 -11 -26  -3    0.66    1.20
  11  26   3   -1.02    2.29
 -10 -27  -3    0.93    1.32
  10  27   3    1.29    4.13
  -9 -28  -3    3.40    1.69
  -9 -28  -3    0.67    1.27
   9  28   3   -1.30    4.79
  -8 -29  -3    5.70    2.45
  -8 -29  -3   11.56    1.90
   8  29   3   -1.17    4.23
 -29  -6  -3   -0.01    1.69
  29   6   3    0.00    1.07
 -28  -7  -3    0.60    1.87
  28   7   3   -0.04    1.18
 -27  -8  -3    0.05    1.69
  27   8   3   -0.04    1.17
 -26  -9  -3    0.44    3.07
  26   9   3    0.57    2.22
 -25 -10  -3    1.28    1.81
  25  10   3   -0.18    1.48
 -24 -11  -3    0.96    1.92
  24  11   3   -0.18    2.56
 -23 -12  -3   -0.28    1.68
  23  12   3    0.78    1.53
 -22 -13  -3    0.76    2.03
  22  13   3    1.12    2.86
 -21 -14  -3    0.44    1.52
  21  14   3   -0.42    1.45
 -20 -15  -3   -0.55    1.79
  20  15   3   -0.15    2.80
 -19 -16  -3    0.20    1.81
  19  16   3    0.42    1.88
 -18 -17  -3   16.80    2.85
  18  17   3    1.31    3.28
 -17 -18  -3   -0.15    1.76
  17  18   3    1.63    2.10
 -16 -19  -3   22.10    3.68
  16  19   3   22.19    4.33
 -15 -20  -3    6.33    2.24
  15  20   3    1.89    2.97
 -14 -21  -3   11.13    2.47
  14  21   3    0.29    3.42
 -13 -22  -3    0.21    2.49
  13  22   3    1.92    2.46
 -12 -23  -3   12.46    2.28
  12  23   3    0.01    3.71
 -11 -24  -3   -0.96    2.04
  11  24   3   -0.19    4.06
 -10 -25  -3    5.71    1.64
  10  25   3   -0.84    3.46
  -9 -26  -3   12.05    1.99
   9  26   3    0.70    4.00
  -8 -27  -3   12.90    2.32
  -8 -27  -3    7.57    1.75
   8  27   3    1.56    4.00
  -7 -28  -3   11.11    1.87
  -7 -28  -3    9.72    2.41
   7  28   3    0.56    4.18
  -6 -29  -3    1.97    1.62
   6  29   3    0.18    4.44
  30   3   3   -0.01    1.00
 -29  -4  -3   -0.01    1.56
  29   4   3    0.05    1.02
 -28  -5  -3    0.24    1.49
  28   5   3   -0.09    1.01
 -27  -6  -3    0.04    1.61
  27   6   3   -0.14    1.73
 -26  -7  -3   -0.34    1.72
  26   7   3   -0.18    1.25
 -25  -8  -3    0.00    3.05
  25   8   3   13.29    2.29
 -24  -9  -3    0.97    2.15
  24   9   3   -0.30    1.16
 -23 -10  -3    0.95    1.56
  23  10   3   -0.30    1.44
 -22 -11  -3   18.53    3.33
  22  11   3   16.27    3.05
 -21 -12  -3    0.36    1.51
  21  12   3   -0.10    1.51
 -20 -13  -3   -0.02    1.37
  20  13   3    0.22    1.44
 -19 -14  -3    0.01    1.63
  19  14   3    0.98    1.90
 -18 -15  -3    0.99    1.65
  18  15   3    0.43    1.96
 -17 -16  -3    0.57    1.43
  17  16   3   -0.24    1.88
 -16 -17  -3   20.07    3.15
  16  17   3   18.37    4.10
 -15 -18  -3    0.32    2.96
  15  18   3    6.54    3.96
 -14 -19  -3    6.08    2.06
  14  19   3    1.85    3.03
 -13 -20  -3   12.31    2.36
  13  20   3    2.22    3.58
 -12 -21  -3   21.64    3.99
  12  21   3    1.74    6.43
 -11 -22  -3   -0.04    1.20
  11  22   3   -1.04    2.17
 -10 -23  -3    1.70    2.08
  10  23   3    1.35    2.65
  -9 -24  -3   10.91    1.87
   9  24   3   -0.37    3.66
  -8 -25  -3    7.60    2.33
   8  25   3   -2.80    5.27
  -7 -26  -3    0.38    1.30
   7  26   3    0.82    2.35
  -6 -27  -3   11.66    2.25
  -6 -27  -3    9.62    2.35
   6  27   3   -0.78    3.79
  -5 -28  -3   13.46    2.65
  -5 -28  -3   28.11    3.45
   5  28   3    2.54    4.45
  -4 -29  -3    2.84    3.99
  -4 -29  -3    5.62    1.91
   4  29   3    1.23    3.32
  -3 -30  -3    1.58    2.14
   3  30   3    1.41    2.73
 -30  -1  -3    0.18    2.62
 -29  -2  -3    0.23    2.23
  29   2   3   -0.02    0.93
 -28  -3  -3   17.30    2.81
  28   3   3   -0.13    2.97
 -27  -4  -3    0.13    1.35
  27   4   3   -0.10    0.96
 -26  -5  -3   -0.07    2.90
  26   5   3   15.75    2.19
 -25  -6  -3   19.31    3.21
  25   6   3   12.79    2.50
 -24  -7  -3    0.07    1.82
  24   7   3    1.91    1.44
 -23  -8  -3   -0.18    2.85
  23   8   3    2.99    2.51
 -22  -9  -3   -0.47    1.58
  22   9   3    2.09    1.55
 -21 -10  -3   -0.31    1.95
  21  10   3    5.55    2.05
 -20 -11  -3   -0.03    1.71
  20  11   3    2.42    1.85
 -19 -12  -3   39.58    3.92
  19  12   3   32.26    4.39
 -18 -13  -3   27.41    3.38
  18  13   3   20.10    3.99
 -17 -14  -3    0.37    1.34
  17  14   3   -1.24    1.73
 -16 -15  -3   -0.50    1.55
  16  15   3    4.93    2.20
 -15 -16  -3    0.84    1.65
  15  16   3    6.47    3.87
 -14 -17  -3   -0.34    2.27
  14  17   3    2.24    2.24
 -13 -18  -3   37.96    3.77
  13  18   3   39.19    5.34
 -12 -19  -3    2.29    1.56
  12  19   3    0.88    2.63
 -11 -20  -3    2.84    1.47
  11  20   3    0.26    2.74
 -10 -21  -3    0.00    0.96
  10  21   3    0.03    1.80
  -9 -22  -3    4.82    1.52
   9  22   3   -0.13    4.86
  -8 -23  -3    6.83    1.60
   8  23   3    0.96    3.29
  -7 -24  -3   13.20    2.63
   7  24   3    0.63    3.62
  -6 -25  -3   15.33    1.98
   6  25   3    0.56    4.04
  -5 -26  -3    4.89    1.71
  -5 -26  -3    4.49    2.22
   5  26   3   -0.10    4.63
  -4 -27  -3    2.16    1.71
  -4 -27  -3    4.16    1.42
   4  27   3   -1.37    4.35
  -3 -28  -3    3.74    1.87
  -3 -28  -3    9.03    2.30
   3  28   3   -0.21    2.99
  -2 -29  -3    8.57    2.03
  -2 -29  -3    7.37    2.86
   2  29   3   -3.46    3.20
  -1 -30  -3    0.36    1.65
  -1 -30  -3   -1.77    1.22
   1  30   3    3.45    1.94
 -30   1  -3    0.01    1.39
 -29   0  -3    0.19    2.39
 -28  -1  -3   -0.26    2.08
  28   1   3    0.03    0.88
 -27  -2  -3    0.12    2.85
  27   2   3    2.71    1.93
 -26  -3  -3    0.21    2.11
  26   3   3    7.00    1.56
 -25  -4  -3   24.25    3.22
  25   4   3   17.01    2.51
 -24  -5  -3   23.04    3.28
  24   5   3   20.25    3.88
 -23  -6  -3    0.02    2.41
  23   6   3   12.70    2.05
 -22  -7  -3    0.38    3.09
  22   7   3    4.38    1.80
 -21  -8  -3    0.10    1.38
  21   8   3    0.92    1.33
 -20  -9  -3   47.62    4.26
  20   9   3   43.92    4.34
 -19 -10  -3   19.00    2.91
  19  10   3   16.08    5.08
 -18 -11  -3    2.28    1.56
  18  11   3    1.40    1.95
 -17 -12  -3   18.63    2.77
  17  12   3   13.67    5.31
 -16 -13  -3   29.84    3.20
  16  13   3   20.05    4.04
 -15 -14  -3    0.84    1.31
  15  14   3    0.08    3.24
 -14 -15  -3    2.85    1.57
  14  15   3    2.47    2.47
 -13 -16  -3   12.34    3.38
  13  16   3    7.44    5.21
 -12 -17  -3   -0.78    1.32
  12  17   3   -1.63    2.31
 -11 -18  -3    3.78    2.49
  11  18   3    3.95    2.93
 -10 -19  -3    1.48    1.21
  10  19   3   -1.27    3.69
  -9 -20  -3    8.57    1.78
   9  20   3    6.11    3.32
  -8 -21  -3    0.71    1.07
   8  21   3    0.42    2.19
  -7 -22  -3   23.17    2.39
   7  22   3   23.37    4.58
  -6 -23  -3   15.53    2.07
   6  23   3   20.88    3.79
  -5 -24  -3   14.71    1.97
   5  24   3   18.83    3.82
  -4 -25  -3   25.03    2.45
   4  25   3   29.10    4.47
  -3 -26  -3    9.56    1.74
  -3 -26  -3   12.12    2.02
   3  26   3    0.05    3.11
  -2 -27  -3    5.71    2.70
  -2 -27  -3    5.61    1.52
   2  27   3    0.54    2.79
  -1 -28  -3    0.03    1.74
  -1 -28  -3    2.39    1.43
   1  28   3    0.92    2.30
   0 -29  -3    3.02    1.19
   0 -29  -3    1.11    1.59
   0  29   3   -5.08    3.77
   1 -30  -3    0.13    1.33
   1 -30  -3    0.31    2.10
  -1  30   3    2.37    3.21
 -29   2  -3    8.01    2.45
 -28   1  -3    0.33    1.47
 -27   0  -3   -0.01    2.62
  27   0   3    1.76    1.11
 -26  -1  -3    0.04    3.73
  26   1   3   14.71    2.61
 -25  -2  -3    0.16    1.94
  25   2   3    6.18    1.40
 -24  -3  -3   28.54    3.31
  24   3   3   25.81    2.70
 -23  -4  -3    7.76    2.23
  23   4   3    9.24    2.92
 -22  -5  -3   18.39    2.83
  22   5   3   15.06    2.39
 -21  -6  -3    1.50    2.61
  21   6   3    2.92    1.60
 -20  -7  -3    1.25    1.41
  20   7   3    1.83    2.43
 -19  -8  -3    1.58    1.42
  19   8   3    1.10    1.61
 -18  -9  -3   18.78    2.57
  18   9   3   17.04    3.03
 -17 -10  -3   33.81    3.24
  17  10   3   32.66    5.82
 -16 -11  -3   61.37    4.29
  16  11   3   49.64    5.38
 -15 -12  -3   24.28    4.18
  15  12   3   27.78    6.15
 -14 -13  -3   15.04    2.23
  14  13   3    7.87    3.28
 -13 -14  -3   17.29    2.40
  13  14   3   17.24    5.47
 -12 -15  -3    1.19    1.29
  12  15   3    1.82    2.21
 -11 -16  -3    7.83    1.72
  11  16   3    6.26    3.14
 -10 -17  -3    1.61    1.74
  10  17   3    0.04    2.13
  -9 -18  -3    3.36    1.33
   9  18   3    1.26    2.56
  -8 -19  -3   14.94    2.92
   8  19   3   15.94    5.68
  -7 -20  -3   19.43    2.23
   7  20   3   18.74    3.92
  -6 -21  -3   10.09    2.44
   6  21   3    8.07    3.09
  -5 -22  -3    9.09    1.73
   5  22   3   18.86    3.40
  -4 -23  -3   13.56    2.64
   4  23   3    7.40    5.12
  -3 -24  -3    0.95    1.02
   3  24   3    0.14    3.02
  -2 -25  -3    6.15    1.71
  -2 -25  -3    7.57    1.44
   2  25   3    0.15    2.56
  -1 -26  -3    6.62    2.75
  -1 -26  -3    7.83    1.48
   1  26   3   -0.14    2.67
   0 -27  -3    2.67    1.17
   0 -27  -3    1.84    1.45
   0  27   3   -0.07    2.24
   1 -28  -3    3.97    1.34
  -1  28   3   -0.06    2.45
   2 -29  -3   -0.25    1.21
   2 -29  -3    3.93    1.45
  -2  29   3    0.82    2.15
   3 -30  -3   -0.07    0.90
  -3  30   3    1.03    1.80
 -29   4  -3    5.06    2.11
 -28   3  -3    6.84    2.20
 -27   2  -3    3.78    1.85
 -26   1  -3    7.05    3.14
  26  -1   3    6.13    1.43
 -25   0  -3    4.03    2.80
  25   0   3    3.40    1.95
 -24  -1  -3    6.30    1.94
  24   1   3    6.57    1.46
 -23  -2  -3    0.56    1.26
  23   2   3   -1.04    1.02
 -22  -3  -3   -0.01    1.14
  22   3   3   -0.20    0.97
 -21  -4  -3    2.09    1.42
  21   4   3   -0.75    2.04
 -20  -5  -3    1.39    2.48
  20   5   3    4.67    1.59
 -19  -6  -3    0.81    1.19
  19   6   3    0.17    1.33
 -18  -7  -3   35.58    3.24
  18   7   3   32.10    5.32
 -17  -8  -3  103.82    7.50
  17   8   3   93.00    6.40
 -16  -9  -3    6.36    1.79
  16   9   3    5.75    2.38
 -15 -10  -3  120.03    6.39
  15  10   3  104.72   10.26
 -14 -11  -3   92.31    6.97
  14  11   3   84.24    6.82
 -13 -12  -3    8.38    1.76
  13  12   3    4.37    4.81
 -12 -13  -3   -0.75    1.71
  12  13   3   -0.57    1.98
 -11 -14  -3    0.03    0.90
  11  14   3    0.55    2.64
 -10 -15  -3    5.20    1.54
  10  15   3    6.92    2.84
  -9 -16  -3    0.05    0.92
   9  16   3    1.18    1.84
  -8 -17  -3   24.38    2.39
   8  17   3   21.37    3.70
  -7 -18  -3    3.99    1.34
   7  18   3    4.07    2.40
  -6 -19  -3   28.12    2.49
   6  19   3   33.87    4.40
  -5 -20  -3    6.36    1.41
   5  20   3    4.85    4.00
  -4 -21  -3    0.04    0.85
   4  21   3   -1.55    1.62
  -3 -22  -3    8.53    1.50
   3  22   3    8.22    2.74
  -2 -23  -3    9.08    1.49
   2  23   3    3.01    2.72
  -1 -24  -3   -0.09    1.10
  -1 -24  -3    1.32    0.92
   1  24   3    0.14    1.84
   0 -25  -3    3.56    1.90
   0 -25  -3    4.98    2.34
   0  25   3    0.18    3.54
   1 -26  -3   12.80    2.08
   1 -26  -3   12.91    1.70
  -1  26   3    0.06    4.38
   2 -27  -3    4.81    2.26
   2 -27  -3    2.91    1.80
  -2  27   3    0.13    2.04
   3 -28  -3   14.62    2.12
   3 -28  -3   12.88    1.73
  -3  28   3   -1.41    2.88
   4 -29  -3    2.99    1.40
   4 -29  -3   -0.03    1.64
  -4  29   3    0.09    1.98
 -29   6  -3    0.45    1.33
 -28   5  -3   13.46    2.47
 -27   4  -3    1.93    1.50
 -26   3  -3    4.44    1.82
 -25   2  -3    7.55    3.01
  25  -2   3    7.21    1.35
 -24   1  -3   -0.11    1.60
  24  -1   3    0.16    1.14
 -23   0  -3    4.33    1.44
  23   0   3    1.22    1.10
 -22  -1  -3   12.19    2.14
  22   1   3   12.53    1.79
 -21  -2  -3   37.50    3.28
  21   2   3   32.28    2.81
 -20  -3  -3    1.49    1.21
  20   3   3   -0.35    1.12
 -19  -4  -3   58.84    5.39
  19   4   3   49.00    5.34
 -18  -5  -3   14.09    2.22
  18   5   3   17.95    2.49
 -17  -6  -3    7.58    1.84
  17   6   3    9.06    2.25
 -16  -7  -3   36.96    4.34
  16   7   3   34.05    5.81
 -15  -8  -3   11.38    2.00
  15   8   3   14.27    2.82
 -14  -9  -3    4.45    1.57
  14   9   3    4.21    2.46
 -13 -10  -3   10.12    1.76
  13  10   3    6.18    4.72
 -12 -11  -3   44.42    3.19
  12  11   3   41.71    5.22
 -11 -12  -3    2.38    1.21
  11  12   3    1.28    3.79
 -10 -13  -3   28.60    2.47
  10  13   3   27.55    4.41
  -9 -14  -3    4.29    2.03
   9  14   3    4.56    4.09
  -8 -15  -3   28.12    2.40
   8  15   3   20.99    3.97
  -7 -16  -3    1.61    1.73
   7  16   3    3.32    2.25
  -6 -17  -3   49.51    3.17
   6  17   3   43.60    4.74
  -5 -18  -3    1.18    1.49
   5  18   3    1.57    1.82
  -4 -19  -3   25.21    2.19
   4  19   3   26.12    3.61
  -3 -20  -3   15.33    2.58
   3  20   3   17.94    4.61
  -2 -21  -3    1.40    0.92
   2  21   3   -0.79    1.58
  -1 -22  -3   10.46    1.49
   1  22   3    8.90    2.58
   0 -23  -3    1.46    1.02
   0 -23  -3    1.44    1.20
   0  23   3    2.54    1.78
   1 -24  -3    6.32    1.61
   1 -24  -3    7.59    1.34
  -1  24   3    4.49    2.31
   2 -25  -3    5.65    1.56
   2 -25  -3    6.81    1.30
  -2  25   3    0.10    2.24
   3 -26  -3    8.36    2.65
   3 -26  -3    9.58    1.44
  -3  26   3   -0.06    2.53
   4 -27  -3    4.33    1.34
   4 -27  -3    0.69    1.08
  -4  27   3    0.85    1.96
   5 -28  -3    0.10    0.79
   5 -28  -3    0.00    1.04
  -5  28   3    0.59    1.54
   6 -29  -3    0.32    1.13
   6 -29  -3    6.71    1.53
  -6  29   3    0.24    2.20
 -29   8  -3    8.39    1.31
 -29   8  -3   11.49    1.99
 -28   7  -3    9.31    2.03
 -27   6  -3    8.95    1.98
 -26   5  -3    7.88    1.84
 -26   5  -3    5.81    1.63
 -25   4  -3   31.34    3.04
 -24   3  -3    2.62    2.24
 -23   2  -3    6.10    2.56
  23  -2   3    6.02    1.89
 -22   1  -3   14.14    1.99
  22  -1   3    9.63    1.49
 -21   0  -3    4.48    1.52
  21   0   3    4.15    1.23
 -20  -1  -3    5.04    1.46
  20   1   3    2.90    1.32
 -19  -2  -3   16.45    3.12
  19   2   3   13.13    2.06
 -18  -3  -3    2.75    1.35
  18   3   3    3.43    1.47
 -17  -4  -3    4.96    1.41
  17   4   3    0.74    2.60
 -16  -5  -3    3.11    1.36
  16   5   3    1.82    1.72
 -15  -6  -3    0.59    1.05
  15   6   3    1.08    1.62
 -14  -7  -3   32.34    2.76
  14   7   3   30.23    4.07
 -13  -8  -3   11.36    2.65
  13   8   3   10.68    2.92
 -12  -9  -3   79.25    4.36
  12   9   3   84.55    6.69
 -11 -10  -3   16.77    2.78
  11  10   3   10.13    5.47
 -10 -11  -3   16.94    1.92
  10  11   3   17.51    3.50
  -9 -12  -3   26.39    2.36
   9  12   3   34.65    4.02
  -8 -13  -3    7.75    1.51
   8  13   3   10.63    2.77
  -7 -14  -3   49.66    3.08
   7  14   3   50.95    7.44
  -6 -15  -3    4.65    1.25
   6  15   3    8.05    2.42
  -5 -16  -3   17.00    1.78
   5  16   3   17.98    3.20
  -4 -17  -3   43.84    2.70
   4  17   3   38.25    3.89
  -3 -18  -3   27.35    2.95
   3  18   3   23.55    3.18
  -2 -19  -3    0.55    0.86
   2  19   3    1.51    1.47
  -1 -20  -3    1.99    1.38
   1  20   3    0.20    1.56
   0 -21  -3    2.98    1.09
   0  21   3    5.84    2.72
   1 -22  -3   12.94    2.17
   1 -22  -3    9.74    1.71
  -1  22   3    8.30    2.29
   2 -23  -3    2.19    0.84
   2 -23  -3   -1.26    0.98
  -2  23   3    0.41    1.37
   3 -24  -3   22.74    2.05
   3 -24  -3   25.64    2.42
  -3  24   3   21.71    3.25
   4 -25  -3   16.07    3.21
   4 -25  -3   16.85    1.79
  -4  25   3   19.43    2.89
   5 -26  -3   17.20    1.71
   5 -26  -3   14.03    2.15
  -5  26   3   16.24    2.83
   6 -27  -3    8.40    1.41
   6 -27  -3   12.26    1.79
  -6  27   3    0.60    2.38
   7 -28  -3   -0.26    0.73
   7 -28  -3    0.81    1.54
  -7  28   3    0.56    1.28
   8 -29  -3    3.99    1.33
   8 -29  -3    0.19    1.02
  -8  29   3   -0.02    1.84
 -28   9  -3    0.86    0.72
 -28   9  -3    0.31    1.71
 -27   8  -3   -0.04    0.74
 -27   8  -3    7.70    1.83
 -26   7  -3   17.45    2.29
 -26   7  -3   20.77    2.13
 -25   6  -3   22.80    2.32
 -25   6  -3   16.96    3.44
 -24   5  -3   15.32    3.16
 -23   4  -3    5.89    2.38
 -22   3  -3    9.24    1.63
  22  -3   3    5.88    1.82
 -21   2  -3    1.50    1.11
  21  -2   3    0.89    0.84
 -20   1  -3    1.81    1.08
  20  -1   3    0.57    0.90
 -19   0  -3    0.98    1.09
  19   0   3    0.77    0.98
 -18  -1  -3   11.57    2.61
  18   1   3   11.65    1.80
 -17  -2  -3    0.83    1.00
  17   2   3    0.35    1.18
 -16  -3  -3   27.03    2.45
  16   3   3   23.20    2.93
 -15  -4  -3   21.00    3.15
  15   4   3   17.99    4.46
 -14  -5  -3   65.11    3.63
  14   5   3   53.53    4.58
 -13  -6  -3   89.28    5.79
  13   6   3   79.27    5.97
 -12  -7  -3    4.62    1.22
  12   7   3    3.23    2.31
 -11  -8  -3   25.80    2.18
  11   8   3   32.50    5.76
 -10  -9  -3    0.44    0.89
  10   9   3    2.91    1.82
  -9 -10  -3   12.56    1.65
   9  10   3   16.42    2.88
  -8 -11  -3   26.17    2.09
   8  11   3   23.09    3.54
  -7 -12  -3   61.09    3.37
   7  12   3   65.13    5.06
  -6 -13  -3   21.20    1.82
   6  13   3   19.71    3.25
  -5 -14  -3   17.76    1.73
   5  14   3   13.77    2.64
  -4 -15  -3    2.24    0.96
   4  15   3    2.06    1.67
  -3 -16  -3   12.11    1.48
   3  16   3   10.32    2.39
  -2 -17  -3    7.62    1.27
   2  17   3    6.71    3.07
  -1 -18  -3   31.63    2.19
   1  18   3   28.75    3.13
   0 -19  -3    0.37    0.73
   0  19   3    0.09    1.16
   1 -20  -3    2.44    1.48
  -1  20   3    1.99    1.57
   2 -21  -3   29.14    2.39
   2 -21  -3   31.51    2.20
  -2  21   3   31.00    3.24
   3 -22  -3    2.04    1.43
   3 -22  -3    1.25    1.08
  -3  22   3    0.21    2.27
   4 -23  -3    7.32    1.34
   4 -23  -3    9.41    1.55
  -4  23   3    5.54    3.20
   5 -24  -3   13.75    2.29
   5 -24  -3   19.39    2.86
  -5  24   3    0.19    3.87
   6 -25  -3   16.08    1.95
   6 -25  -3   12.66    1.56
  -6  25   3    0.06    3.91
   7 -26  -3    0.06    1.65
   7 -26  -3    5.63    1.39
  -7  26   3   -0.18    2.82
   8 -27  -3    0.19    0.89
   8 -27  -3    2.34    1.68
  -8  27   3   -0.53    2.32
   9 -28  -3    1.37    1.27
   9 -28  -3    2.69    1.52
  -9  28   3    0.45    2.89
 -27  10  -3    0.91    0.63
 -27  10  -3   -1.31    1.37
 -26   9  -3    9.88    1.14
 -26   9  -3    8.53    2.45
 -25   8  -3    8.43    2.51
 -25   8  -3   10.70    1.73
 -24   7  -3   12.09    2.68
 -24   7  -3   12.71    2.84
 -23   6  -3   21.22    2.19
 -23   6  -3   17.50    3.02
 -22   5  -3    9.85    2.47
 -21   4  -3   -0.49    0.89
  21  -4   3   -0.47    0.67
 -20   3  -3   18.47    1.99
  20  -3   3   20.20    1.60
 -19   2  -3    0.68    1.01
  19  -2   3    0.89    0.79
 -18   1  -3   35.75    3.63
  18  -1   3   31.80    2.33
 -17   0  -3   10.28    1.67
  17   0   3   16.67    1.85
 -16  -1  -3   69.11    3.86
  16   1   3   66.50    4.23
 -15  -2  -3   61.50    4.60
  15   2   3   53.76    4.01
 -14  -3  -3    2.68    1.04
  14   3   3    0.35    1.56
 -13  -4  -3   27.65    2.14
  13   4   3   18.02    3.12
 -12  -5  -3    4.89    1.18
  12   5   3    9.45    3.48
 -11  -6  -3    3.61    1.12
  11   6   3    4.24    2.05
 -10  -7  -3    0.83    1.19
  10   7   3   -2.52    1.49
  -9  -8  -3    9.21    1.27
   9   8   3    6.65    2.33
  -8  -9  -3   27.11    2.75
   8   9   3   23.64    5.00
  -7 -10  -3   56.96    3.05
   7  10   3   53.94    4.36
  -6 -11  -3   18.25    1.62
   6  11   3   21.19    4.20
  -5 -12  -3   47.85    2.64
   5  12   3   42.93    3.72
  -4 -13  -3   20.56    1.71
   4  13   3   18.02    2.64
  -3 -14  -3    2.68    0.91
   3  14   3    0.04    1.26
  -2 -15  -3   10.68    1.33
   2  15   3    7.46    1.90
  -1 -16  -3   33.82    2.25
   1  16   3   36.06    3.20
   0 -17  -3    9.13    1.27
   0  17   3    9.66    2.97
   1 -18  -3    9.69    1.31
  -1  18   3    8.92    1.91
   2 -19  -3   15.30    1.52
  -2  19   3   13.20    2.29
   3 -20  -3    0.70    1.16
   3 -20  -3    0.23    0.84
  -3  20   3    0.42    1.19
   4 -21  -3    1.14    0.79
   4 -21  -3    0.64    0.93
  -4  21   3    0.73    1.32
   5 -22  -3   15.65    2.33
   5 -22  -3   15.60    1.82
  -5  22   3   13.69    2.47
   6 -23  -3   16.47    1.78
   6 -23  -3   12.20    1.54
  -6  23   3   14.70    2.51
   7 -24  -3    0.35    0.80
   7 -24  -3   -0.81    1.06
  -7  24   3   -0.14    1.17
   8 -25  -3   13.42    1.81
   8 -25  -3   12.36    1.58
  -8  25   3   14.28    2.58
   9 -26  -3    0.08    1.11
   9 -26  -3    0.14    0.86
  -9  26   3   -0.04    1.25
  10 -27  -3    9.60    1.56
  10 -27  -3    5.17    1.30
 -10  27   3    0.38    2.27
  11 -28  -3    0.43    1.33
  11 -28  -3    6.75    1.69
 -11  28   3    0.28    1.98
 -25  10  -3    5.25    1.40
 -25  10  -3   12.21    1.68
 -25  10  -3    6.55    1.99
 -24   9  -3   10.33    2.27
 -24   9  -3   14.51    2.78
 -23   8  -3    7.98    2.00
 -23   8  -3    6.47    1.52
 -22   7  -3   27.05    2.37
 -22   7  -3   20.43    1.96
 -21   6  -3    7.73    1.30
 -20   5  -3    7.45    1.29
  20  -5   3    8.05    1.01
 -19   4  -3   25.40    2.06
  19  -4   3   25.12    1.64
 -18   3  -3   26.94    3.04
  18  -3   3   27.26    1.90
 -17   2  -3   10.40    1.36
  17  -2   3    7.64    1.35
 -16   1  -3   41.93    2.64
  16  -1   3   43.10    2.85
 -15   0  -3    3.14    1.68
  15   0   3    3.39    1.35
 -14  -1  -3    9.90    1.31
  14   1   3    7.62    1.81
 -13  -2  -3   48.58    2.66
  13   2   3   41.01    3.44
 -12  -3  -3   17.95    1.54
  12   3   3   16.03    2.50
 -11  -4  -3    2.01    0.86
  11   4   3    2.06    1.59
 -10  -5  -3    5.94    1.59
  10   5   3    5.37    1.99
  -9  -6  -3    1.26    0.82
   9   6   3    2.95    1.52
  -8  -7  -3   12.03    1.86
   8   7   3   11.42    3.53
  -7  -8  -3   24.00    1.71
   7   8   3   23.62    2.85
  -6  -9  -3   19.99    2.20
   6   9   3   19.30    2.33
  -5 -10  -3   39.59    2.20
   5  10   3   37.58    3.19
  -4 -11  -3   43.67    2.35
   4  11   3   43.68    3.09
  -3 -12  -3   10.68    1.28
   3  12   3   11.32    1.87
  -2 -13  -3   36.55    2.16
   2  13   3   35.10    4.26
  -1 -14  -3   37.47    2.21
   1  14   3   36.41    2.91
   0 -15  -3    4.05    0.95
   0  15   3    1.51    1.42
   1 -16  -3   64.20    3.11
  -1  16   3   62.43    4.04
   2 -17  -3    0.10    0.60
  -2  17   3   -0.33    1.34
   3 -18  -3    1.27    0.81
  -3  18   3    0.37    1.12
   4 -19  -3   40.42    2.63
   4 -19  -3   47.14    2.61
  -4  19   3   47.51    3.53
   5 -20  -3    2.64    1.02
   5 -20  -3    2.71    0.96
  -5  20   3    2.59    1.42
   6 -21  -3    0.68    0.83
   6 -21  -3    1.69    0.96
  -6  21   3    2.04    1.31
   7 -22  -3    5.04    1.71
   7 -22  -3    5.43    1.29
  -7  22   3    5.14    1.75
   8 -23  -3    4.22    1.82
   8 -23  -3    4.26    1.04
  -8  23   3    2.34    1.64
   9 -24  -3    5.33    1.71
   9 -24  -3    4.61    1.22
  -9  24   3   -0.02    1.70
  10 -25  -3    2.19    1.09
  10 -25  -3    2.33    0.97
 -10  25   3   -0.71    1.56
  11 -26  -3    2.33    1.02
  11 -26  -3    2.86    1.78
 -11  26   3    0.12    1.70
  12 -27  -3    3.43    1.00
  12 -27  -3    0.24    1.16
 -12  27   3    0.10    1.75
 -24  11  -3    0.32    0.83
 -24  11  -3   -0.32    0.56
 -24  11  -3    0.12    0.40
 -23  10  -3    2.85    0.93
 -23  10  -3    2.93    0.66
 -23  10  -3    3.79    1.29
 -22   9  -3    1.74    0.87
 -22   9  -3    2.09    1.18
 -21   8  -3    1.87    1.56
 -21   8  -3    0.25    0.74
 -20   7  -3   22.17    1.78
 -20   7  -3   24.35    2.17
 -19   6  -3   34.46    2.95
 -18   5  -3    4.08    1.30
  18  -5   3    1.39    0.71
 -17   4  -3   50.35    2.57
  17  -4   3   44.55    2.34
 -16   3  -3    9.33    1.35
  16  -3   3   12.03    1.39
 -15   2  -3   11.38    1.92
  15  -2   3    6.55    2.23
 -14   1  -3   40.31    2.26
  14  -1   3   43.75    4.19
 -13   0  -3   27.05    1.88
  13   0   3   31.68    2.64
 -12  -1  -3   17.10    1.38
  12   1   3   12.88    2.25
 -11  -2  -3    0.23    0.63
  11   2   3    1.53    1.20
 -10  -3  -3   36.51    2.66
  10   3   3   30.79    3.14
  -9  -4  -3    1.08    0.68
   9   4   3    1.60    2.08
  -8  -5  -3    2.75    1.17
   8   5   3    2.72    2.29
  -7  -6  -3    8.49    1.07
   7   6   3   14.31    1.90
  -6  -7  -3   40.80    2.12
   6   7   3   45.78    2.98
  -5  -8  -3   62.95    2.82
   5   8   3   57.88    4.88
  -4  -9  -3    7.29    1.04
   4   9   3   11.43    1.55
  -3 -10  -3   55.49    2.59
   3  10   3   50.81    4.43
  -2 -11  -3  109.56    4.37
   2  11   3  105.90    5.24
  -1 -12  -3   10.24    1.16
   1  12   3    9.49    1.71
   0 -13  -3   27.36    1.73
   0  13   3   26.24    2.35
   1 -14  -3    9.33    1.20
  -1  14   3   10.57    1.64
   2 -15  -3   51.76    2.63
  -2  15   3   46.99    3.38
   3 -16  -3   24.50    2.53
  -3  16   3   23.36    2.47
   4 -17  -3    2.60    0.91
  -4  17   3    2.91    1.96
   5 -18  -3   18.98    2.30
   5 -18  -3   16.80    1.60
   6 -19  -3    2.11    0.82
   6 -19  -3    1.62    1.42
  -6  19   3    0.35    1.99
   7 -20  -3    2.76    0.90
   7 -20  -3    0.62    0.81
  -7  20   3   -0.51    1.95
   8 -21  -3   -1.22    0.87
   8 -21  -3   -1.45    0.89
  -8  21   3   -0.48    2.03
   9 -22  -3    1.78    0.94
   9 -22  -3    1.70    0.98
  -9  22   3    2.41    2.22
  10 -23  -3    0.43    1.26
  10 -23  -3    0.43    0.77
 -10  23   3    0.03    1.88
  11 -24  -3    7.90    1.30
  11 -24  -3    7.04    1.36
 -11  24   3   -0.28    3.08
  12 -25  -3    4.84    1.14
  12 -25  -3    3.78    1.24
 -12  25   3    0.19    2.84
  13 -26  -3    4.04    1.86
  13 -26  -3    3.87    1.14
 -13  26   3    0.17    1.98
 -23  12  -3    9.22    0.86
 -23  12  -3   14.69    1.77
 -23  12  -3    8.61    1.54
 -22  11  -3   -1.31    0.88
 -22  11  -3    0.04    0.83
 -22  11  -3    0.08    0.37
 -21  10  -3    1.40    1.55
 -21  10  -3    0.23    0.97
 -21  10  -3    0.65    0.45
 -20   9  -3    4.93    1.44
 -20   9  -3    6.51    1.43
 -19   8  -3   15.38    1.83
 -19   8  -3   19.33    2.84
 -18   7  -3    4.24    0.81
 -18   7  -3    3.53    1.29
 -17   6  -3   48.98    2.31
  17  -6   3   45.87    2.65
 -16   5  -3   14.30    1.88
  16  -5   3   17.98    1.29
 -15   4  -3    1.67    1.02
  15  -4   3    0.28    0.74
 -14   3  -3    3.64    0.81
  14  -3   3    2.64    1.59
 -13   2  -3   41.42    2.70
  13  -2   3   37.81    2.58
 -12   1  -3   10.83    1.08
  12  -1   3   11.89    1.69
 -11   0  -3  105.14    3.97
  11   0   3   99.10    5.12
 -10  -1  -3   39.48    1.92
  10   1   3   36.77    2.99
  -9  -2  -3    2.81    0.72
   9   2   3    3.44    1.40
  -8  -3  -3   25.29    1.48
   8   3   3   25.15    2.44
  -7  -4  -3   15.44    1.19
   7   4   3   16.82    1.95
  -6  -5  -3   64.28    2.58
   6   5   3   62.75    3.40
  -5  -6  -3    0.17    0.63
   5   6   3    3.67    0.89
  -4  -7  -3   40.81    1.92
   4   7   3   37.39    2.45
  -3  -8  -3    7.70    1.00
   3   8   3    8.42    1.30
  -2  -9  -3   10.46    1.05
   2   9   3    7.99    1.47
  -1 -10  -3   58.92    2.63
   1  10   3   55.22    3.03
   0 -11  -3   94.64    3.80
   0  11   3   94.01    4.61
   1 -12  -3   16.10    1.94
  -1  12   3   16.86    2.67
   2 -13  -3   40.94    2.22
  -2  13   3   42.16    2.82
   3 -14  -3    2.62    1.24
  -3  14   3    1.00    1.08
   4 -15  -3   15.72    1.51
  -4  15   3   16.76    2.03
   5 -16  -3    3.47    1.52
  -5  16   3    4.56    1.39
   6 -17  -3    9.75    1.24
   6 -17  -3    8.03    1.20
  -6  17   3    7.67    1.72
   7 -18  -3   25.37    2.69
   7 -18  -3   27.50    2.74
  -7  18   3   33.40    2.85
   8 -19  -3    0.97    0.67
   8 -19  -3   -0.12    0.67
  -8  19   3   -1.05    1.02
   9 -20  -3   33.18    2.31
   9 -20  -3   36.76    2.30
  -9  20   3   37.32    3.24
  10 -21  -3    6.35    1.06
  10 -21  -3    0.10    1.03
 -10  21   3    5.78    1.60
  11 -22  -3   16.35    2.41
  11 -22  -3   14.61    1.60
 -11  22   3   17.58    2.48
  12 -23  -3    1.88    1.24
  12 -23  -3    0.17    0.81
 -12  23   3    0.10    1.31
  13 -24  -3    0.47    0.82
  13 -24  -3    0.73    0.82
 -13  24   3   -0.18    1.29
  14 -25  -3    2.07    1.12
  14 -25  -3    5.35    1.16
 -14  25   3    0.16    1.84
  15 -26  -3    1.29    1.47
  15 -26  -3    1.18    0.97
 -15  26   3   -0.01    1.58
 -23  14  -3   22.39    3.51
 -22  13  -3    0.28    0.99
 -21  12  -3   17.38    1.13
 -21  12  -3   15.68    3.14
 -21  12  -3   17.46    0.93
 -20  11  -3    3.79    1.12
 -20  11  -3    1.71    0.57
 -20  11  -3    1.14    0.43
 -19  10  -3   -0.20    0.44
 -19  10  -3    0.23    0.31
 -19  10  -3    1.22    1.31
 -18   9  -3    2.37    0.63
 -18   9  -3    1.91    1.12
 -17   8  -3   22.70    1.86
 -17   8  -3   25.99    2.19
 -16   7  -3    1.71    0.94
 -16   7  -3    3.16    1.13
  16  -7   3    1.51    0.53
 -15   6  -3    5.45    0.82
  15  -6   3    5.23    1.21
 -14   5  -3   18.87    1.69
  14  -5   3   18.72    1.37
 -13   4  -3   21.08    1.20
  13  -4   3   19.84    2.39
 -12   3  -3   10.89    0.96
  12  -3   3   12.44    1.45
 -11   2  -3  118.40    4.70
  11  -2   3  106.56    6.12
 -10   1  -3   60.61    2.37
  10  -1   3   61.20    3.53
  -9   0  -3   89.53    3.73
   9   0   3   86.40    4.44
  -8  -1  -3   77.69    2.83
   8   1   3   74.04    3.93
  -7  -2  -3   16.15    1.48
   7   2   3   14.29    1.75
  -6  -3  -3    0.93    0.50
   6   3   3   -0.21    0.79
  -5  -4  -3    8.00    1.29
   5   4   3    9.15    1.17
  -4  -5  -3    1.60    0.56
   4   5   3    1.47    1.20
  -3  -6  -3    0.62    0.86
   3   6   3    1.91    0.79
  -2  -7  -3   49.99    2.19
   2   7   3   52.14    2.59
  -1  -8  -3   24.45    1.38
   1   8   3   22.26    1.81
   0  -9  -3   83.41    3.24
   0   9   3   79.54    3.78
   1 -10  -3   33.93    1.83
  -1  10   3   35.67    2.39
   2 -11  -3   -0.06    0.61
  -2  11   3    1.88    0.84
   3 -12  -3   14.19    1.29
  -3  12   3   15.96    2.41
   4 -13  -3   23.45    1.63
  -4  13   3   20.66    2.06
   5 -14  -3   47.05    2.49
  -5  14   3   50.64    3.21
   6 -15  -3   -0.30    0.68
  -6  15   3    1.65    0.95
   7 -16  -3   33.50    1.96
   7 -16  -3   28.95    2.77
  -7  16   3   32.56    2.72
   8 -17  -3   87.90    4.03
   8 -17  -3   93.11    4.04
  -8  17   3   91.38    5.19
   9 -18  -3   14.81    2.07
   9 -18  -3   14.79    2.20
  -9  18   3   15.51    2.14
  10 -19  -3   17.78    1.64
  10 -19  -3   21.68    2.28
 -10  19   3   18.60    2.40
  11 -20  -3    4.51    0.96
  11 -20  -3   -0.05    1.04
 -11  20   3    6.48    1.51
  12 -21  -3    0.59    0.85
  12 -21  -3    1.34    0.77
 -12  21   3    1.10    1.29
  13 -22  -3    0.38    0.68
  13 -22  -3    0.17    0.73
 -13  22   3   -0.03    1.15
  14 -23  -3    0.08    0.70
  14 -23  -3    0.41    1.02
 -14  23   3   -0.20    1.15
  15 -24  -3    1.30    0.89
  15 -24  -3    1.34    0.96
 -15  24   3    0.24    2.42
  16 -25  -3    1.18    0.90
  16 -25  -3    2.24    1.57
 -16  25   3   -0.05    1.64
 -22  15  -3   14.00    1.97
 -21  14  -3    8.68    2.56
 -20  13  -3    9.21    1.56
 -20  13  -3    7.91    0.51
 -20  13  -3    6.81    0.59
 -19  12  -3    2.06    1.47
 -19  12  -3    0.23    0.40
 -19  12  -3    0.34    0.34
 -18  11  -3    1.37    1.22
 -18  11  -3    3.36    0.50
 -18  11  -3    3.15    0.40
 -17  10  -3    0.10    0.33
 -17  10  -3    0.09    0.77
 -16   9  -3    0.68    0.63
 -16   9  -3    0.95    0.94
 -15   8  -3   22.88    1.53
 -15   8  -3   31.44    2.34
 -14   7  -3   49.43    1.84
 -14   7  -3   55.95    3.22
  14  -7   3   48.92    1.81
 -13   6  -3   21.27    1.48
  13  -6   3   23.46    1.29
 -12   5  -3   48.86    2.26
  12  -5   3   48.49    2.84
 -11   4  -3   43.82    1.70
  11  -4   3   42.44    2.26
 -10   3  -3   59.96    2.56
  10  -3   3   58.34    3.01
  -9   2  -3    9.66    0.75
   9  -2   3    9.51    1.46
  -8   1  -3   26.35    1.65
   8  -1   3   28.10    2.99
  -7   0  -3    2.08    0.50
   7   0   3    2.41    0.93
  -6  -1  -3    1.43    0.67
   6   1   3    0.28    0.72
  -5  -2  -3   52.43    1.94
   5   2   3   45.96    2.34
  -4  -3  -3    1.31    0.77
   4   3   3    0.90    0.65
  -3  -4  -3   21.01    1.15
   3   4   3   21.54    2.08
  -2  -5  -3   17.92    1.57
   2   5   3   17.45    1.37
  -1  -6  -3   68.94    2.63
   1   6   3   66.56    3.04
   0  -7  -3    3.42    1.04
   0   7   3    4.17    0.92
   1  -8  -3   71.36    2.81
  -1   8   3   74.43    4.25
   2  -9  -3    3.14    1.13
  -2   9   3    2.60    0.93
   3 -10  -3   31.53    1.75
  -3  10   3   32.71    2.16
   4 -11  -3    2.40    0.74
  -4  11   3    1.46    1.01
   5 -12  -3    8.13    1.01
  -5  12   3    7.87    2.08
   6 -13  -3   74.80    3.31
  -6  13   3   77.42    3.99
  -7  14   3   31.21    2.50
   8 -15  -3   12.34    1.16
   8 -15  -3   10.01    1.35
  -8  15   3   12.19    1.72
   9 -16  -3    6.95    0.96
  -9  16   3    4.30    1.55
  10 -17  -3   30.92    2.05
  10 -17  -3   31.46    1.81
  11 -18  -3    1.37    1.28
  11 -18  -3   -1.72    0.70
  12 -19  -3   30.84    2.67
  13 -20  -3    1.15    0.96
  13 -20  -3   -0.30    0.72
  14 -21  -3    7.94    1.12
 -14  21   3   -0.18    2.91
  15 -22  -3    0.87    0.73
  15 -22  -3    0.79    0.87
 -15  22   3    0.06    1.36
  16 -23  -3    0.62    1.17
  16 -23  -3    1.01    1.37
 -16  23   3   -0.03    1.38
  17 -24  -3   11.09    1.68
  17 -24  -3   11.25    2.08
 -17  24   3   15.03    2.63
 -21  16  -3    5.44    1.55
 -20  15  -3    2.66    1.30
 -19  14  -3    4.27    0.26
 -19  14  -3    6.59    1.42
 -18  13  -3   36.15    2.67
 -18  13  -3   37.68    1.04
 -18  13  -3   33.57    1.23
 -17  12  -3   -0.04    0.92
 -17  12  -3    0.47    0.19
 -17  12  -3    0.09    0.35
 -16  11  -3    8.12    1.34
 -16  11  -3    6.15    0.37
 -16  11  -3    6.26    0.61
 -15  10  -3    7.38    0.49
 -15  10  -3    6.39    1.40
 -14   9  -3    4.74    0.43
 -14   9  -3    4.79    1.31
 -13   8  -3    7.42    0.78
 -13   8  -3   11.54    1.57
  13  -8   3    8.09    0.57
 -12   7  -3   61.23    2.21
 -12   7  -3   73.10    3.54
  12  -7   3   61.26    2.55
 -11   6  -3   17.58    0.79
  11  -6   3   19.16    1.66
 -10   5  -3   41.49    1.70
  10  -5   3   36.78    2.64
  -9   4  -3    7.89    0.56
   9  -4   3    7.40    1.08
  -8   3  -3   11.51    0.69
   8  -3   3   12.42    1.33
  -7   2  -3   50.73    1.69
   7  -2   3   51.58    3.49
  -6   1  -3   67.49    2.21
   6  -1   3   70.75    2.89
  -5   0  -3   51.57    2.19
   5   0   3   53.04    2.29
  -4  -1  -3   15.58    0.91
   4   1   3   14.79    1.13
  -3  -2  -3  193.78    6.15
   3   2   3  194.93    6.85
  -2  -3  -3   31.77    1.37
   2   3   3   30.48    2.33
  -1  -4  -3   71.11    3.12
   1   4   3   80.65    3.25
   0  -5  -3   53.75    2.10
   0   5   3   56.53    2.52
   1  -6  -3    1.37    0.82
  -1   6   3    0.60    0.69
   2  -7  -3   16.03    1.10
  -2   7   3   14.28    1.94
   3  -8  -3   25.76    1.45
  -3   8   3   23.88    1.72
   4  -9  -3    0.60    0.56
  -4   9   3    1.04    0.77
   5 -10  -3    4.66    0.84
  -5  10   3    5.07    1.12
  -6  11   3    3.21    1.08
   7 -12  -3    5.01    0.96
  -7  12   3    4.92    1.94
   9 -14  -3    4.11    0.80
  10 -15  -3  109.90    4.19
  11 -16  -3   55.59    2.51
  12 -17  -3   14.25    1.47
  12 -17  -3   14.40    1.24
  13 -18  -3   17.63    1.34
  14 -19  -3    9.09    1.08
  15 -20  -3    0.70    0.66
 -15  20   3   -0.01    1.20
  16 -21  -3    0.07    0.90
 -16  21   3    0.12    1.08
  17 -22  -3    4.27    1.00
  17 -22  -3    5.60    1.30
  18 -23  -3    0.38    0.60
  18 -23  -3   -1.08    1.28
 -18  23   3   -0.19    1.91
 -21  18  -3    5.25    1.58
 -20  17  -3    8.76    1.78
 -19  16  -3   20.61    2.22
 -18  15  -3   13.03    1.87
 -17  14  -3    3.10    1.29
 -16  13  -3   11.35    1.64
 -15  12  -3    1.51    0.98
 -15  12  -3    0.54    0.17
 -15  12  -3    1.08    0.11
 -14  11  -3    0.53    0.86
 -14  11  -3    0.10    0.19
 -14  11  -3    0.41    0.20
 -13  10  -3   22.74    0.78
 -13  10  -3   24.98    2.25
 -12   9  -3   25.83    0.95
 -12   9  -3   30.92    2.31
 -11   8  -3   30.62    2.27
 -11   8  -3   26.19    0.96
  11  -8   3   23.01    0.95
 -10   7  -3   58.03    3.15
 -10   7  -3   53.62    1.48
  10  -7   3   54.93    1.82
  -9   6  -3   19.96    0.73
   9  -6   3   19.50    1.63
  -8   5  -3   62.32    2.05
   8  -5   3   61.05    3.44
  -7   4  -3   41.26    1.31
   7  -4   3   42.27    2.81
  -6   3  -3    0.70    0.32
   6  -3   3    1.38    0.61
  -5   2  -3   17.22    0.80
   5  -2   3   17.14    1.10
  -4   1  -3   75.31    2.33
   4  -1   3   72.39    2.65
  -3   0  -3   19.64    1.33
   3   0   3   19.06    1.16
  -2  -1  -3   64.68    2.22
   2   1   3   66.99    2.60
  -1  -2  -3  156.46    4.96
   1   2   3  152.95    5.39
   0  -3  -3   17.27    1.06
   0   3   3   25.49    1.42
   1  -4  -3   15.37    0.98
  -1   4   3   15.79    1.19
   2  -5  -3   47.97    2.51
  -2   5   3   48.56    2.30
   3  -6  -3   -0.25    0.39
  -3   6   3    0.83    0.74
   4  -7  -3   15.67    1.11
  -4   7   3   15.31    1.35
  -5   8   3    1.77    0.83
   6  -9  -3   -0.63    0.50
  -6   9   3    0.88    0.62
  -7  10   3    0.56    0.80
  -8  11   3   27.89    2.11
   9 -12  -3   79.11    3.46
  10 -13  -3    7.57    1.30
  11 -14  -3   85.09    3.22
  12 -15  -3   20.69    1.31
 -12  15   3   24.16    2.44
  13 -16  -3   21.02    1.35
 -13  16   3   27.88    2.50
  14 -17  -3   -0.80    0.78
 -14  17   3    0.63    1.05
  15 -18  -3    0.53    0.87
  16 -19  -3    2.93    1.16
  17 -20  -3    1.12    0.65
  18 -21  -3    1.18    0.69
  19 -22  -3    2.03    1.07
 -19  22   3   -0.11    1.63
 -20  19  -3    3.84    2.22
 -19  18  -3   17.25    2.11
 -18  17  -3    2.99    1.25
 -17  16  -3   15.57    1.94
 -16  15  -3    5.35    1.39
 -15  14  -3    1.81    1.13
 -14  13  -3   20.14    2.01
 -13  12  -3    3.06    1.85
 -12  11  -3    1.68    1.09
 -11  10  -3   14.31    0.31
 -11  10  -3   20.45    2.80
 -10   9  -3   16.87    1.73
 -10   9  -3   15.25    0.40
  -9   8  -3   26.08    2.96
  -9   8  -3   23.13    0.62
  -8   7  -3   23.32    1.85
  -8   7  -3   21.90    0.65
   8  -7   3   23.95    1.46
  -7   6  -3   46.60    1.26
   7  -6   3   45.01    1.86
  -6   5  -3    0.18    0.21
   6  -5   3    0.49    0.69
  -5   4  -3    2.13    0.31
   5  -4   3    2.54    0.80
  -4   3  -3   22.71    1.12
   4  -3   3   20.85    1.05
  -3   2  -3   30.76    1.41
   3  -2   3   31.55    1.36
  -2   1  -3  153.82    4.57
   2  -1   3  154.66    5.13
  -1   0  -3  243.50    7.61
   1   0   3  248.21    8.40
   0  -1  -3  241.36    8.26
   0   1   3  238.34    8.28
   1  -2  -3   60.57    2.30
  -1   2   3   80.04    3.57
   2  -3  -3  194.65    6.32
  -2   3   3  206.44    7.24
   3  -4  -3    1.15    0.85
  -3   4   3    2.83    0.72
   4  -5  -3    8.76    0.82
   5  -6  -3   61.95    2.51
  -5   6   3   63.07    2.90
  -6   7   3   10.45    1.25
   7  -8  -3   13.18    1.16
  -7   8   3   14.70    1.45
   8  -9  -3    7.45    0.98
  -8   9   3    7.01    1.18
  -9  10   3    3.02    1.01
  10 -11  -3   11.84    0.90
 -10  11   3   12.27    1.66
  11 -12  -3   38.45    2.30
  11 -12  -3   43.33    1.75
 -11  12   3   41.33    2.89
  12 -13  -3    7.44    1.09
 -12  13   3    6.15    1.51
  13 -14  -3    9.99    1.27
 -13  14   3   11.82    1.77
  14 -15  -3   -0.66    0.73
  15 -16  -3    2.24    0.91
  16 -17  -3    0.07    0.82
  16 -17  -3    0.72    0.76
  17 -18  -3    9.91    0.95
  18 -19  -3    4.49    0.79
  19 -20  -3    1.18    0.59
 -20  21   3   15.37    2.72
 -19  20  -3    1.04    1.14
 -18  19  -3    4.97    2.24
 -17  18  -3    9.99    1.75
 -16  17  -3    0.82    1.06
 -15  16  -3    5.03    1.35
 -14  15  -3    0.15    0.85
 -13  14  -3   10.33    2.48
 -12  13  -3    7.77    1.49
 -11  12  -3   50.02    4.38
 -10  11  -3   14.99    1.76
  -9  10  -3    2.79    1.11
  -8   9  -3    6.38    0.24
  -8   9  -3    7.77    1.22
   8  -9   3    5.39    0.33
  -7   8  -3   14.06    0.53
  -7   8  -3   15.55    1.55
  -6   7  -3    9.21    0.50
  -6   7  -3   11.73    1.30
   6  -7   3    8.78    0.73
  -5   6  -3   65.56    1.85
   5  -6   3   60.35    2.44
  -4   5  -3    8.86    0.62
   4  -5   3    6.95    0.59
  -3   4  -3    1.29    0.45
   3  -4   3    1.20    0.59
  -2   3  -3  206.16    6.27
   2  -3   3  190.45    6.60
  -1   2  -3   67.99    2.48
   1  -2   3   67.47    2.36
   0   1  -3  244.91    7.51
   0  -1   3  247.82    8.97
   1   0  -3  240.82    7.58
  -1   0   3  246.92    8.41
   2  -1  -3  154.83    4.90
  -2   1   3  155.06    5.35
   3  -2  -3   33.85    1.48
  -3   2   3   35.06    1.73
   4  -3  -3   22.28    1.59
  -4   3   3   21.26    1.39
   5  -4  -3    2.21    0.58
  -5   4   3    2.40    0.74
   6  -5  -3    1.56    0.55
  -6   5   3   -0.28    0.66
   7  -6  -3   46.83    2.14
  -7   6   3   47.80    2.48
  -8   7   3   24.93    1.79
   9  -8  -3   24.59    1.53
  -9   8   3   26.04    1.88
  10  -9  -3   15.17    1.29
 -10   9   3   16.59    1.65
  11 -10  -3   15.25    1.23
 -11  10   3   15.57    1.75
  12 -11  -3    1.71    0.82
  12 -11  -3    1.62    0.46
 -12  11   3    1.13    1.05
  13 -12  -3   -1.04    0.42
  14 -13  -3   16.81    1.32
  15 -14  -3    1.64    0.75
  16 -15  -3    3.42    0.89
  17 -16  -3   12.65    1.35
 -17  16   3   19.85    2.24
  18 -17  -3    0.70    0.46
 -18  17   3   -0.10    1.18
  19 -18  -3   12.14    0.99
  20 -19  -3    2.00    0.55
 -21  20   3   -0.04    1.24
 -19  22  -3    2.37    1.37
 -18  21  -3    1.72    1.23
 -17  20  -3    1.15    1.10
 -16  19  -3    5.82    2.23
 -15  18  -3   -0.51    0.99
 -14  17  -3    0.43    0.94
 -13  16  -3   27.33    3.45
 -12  15  -3   22.13    2.17
 -11  14  -3   87.88    4.54
 -10  13  -3    6.91    1.47
  -9  12  -3   83.90    4.21
  -8  11  -3   33.24    2.30
  -7  10  -3   -0.30    0.77
  -6   9  -3   -0.02    0.08
  -6   9  -3    0.30    0.99
   6  -9   3   -0.10    0.22
  -5   8  -3    1.79    0.29
  -5   8  -3    3.46    0.86
  -4   7  -3   16.38    0.69
  -4   7  -3   16.45    2.05
   4  -7   3   15.06    0.66
  -3   6  -3   -0.47    0.65
  -3   6  -3    1.24    0.33
   3  -6   3    0.01    0.44
  -2   5  -3   53.10    1.74
   2  -5   3   51.12    1.68
  -1   4  -3   16.14    0.70
   1  -4   3   16.66    0.82
   0   3  -3   21.15    0.88
   0  -3   3   19.58    1.02
   1   2  -3  162.38    4.80
  -1  -2   3  158.49    5.17
   2   1  -3   68.06    2.26
  -2  -1   3   69.97    3.24
   3   0  -3   25.99    1.65
  -3   0   3   20.35    1.23
   4  -1  -3   79.92    3.26
  -4   1   3   71.95    2.89
   5  -2  -3   19.84    1.12
   6  -3  -3   -0.30    0.44
  -6   3   3   -0.15    0.53
   7  -4  -3   43.29    1.90
  -7   4   3   43.56    2.19
   8  -5  -3   62.80    2.59
  -8   5   3   63.44    2.99
  -9   6   3   22.49    1.73
  10  -7  -3   50.92    2.49
 -10   7   3   54.79    2.93
  11  -8  -3   24.68    0.99
  11  -8  -3   24.64    1.74
 -11   8   3   28.67    2.07
  12  -9  -3   26.58    1.36
  13 -10  -3   21.93    0.94
  14 -11  -3    0.46    0.49
  14 -11  -3    0.76    0.74
  15 -12  -3    0.43    0.51
  16 -13  -3    8.85    0.90
  17 -14  -3   -0.88    0.99
  17 -14  -3    1.24    0.62
 -17  14   3    4.71    1.26
  18 -15  -3   11.25    1.07
  19 -16  -3   15.17    1.24
 -19  16   3   18.88    3.59
  20 -17  -3    9.18    0.99
 -21  18   3    0.05    1.18
 -22  19   3   -0.01    1.19
 -18  23  -3    2.93    1.48
 -17  22  -3    2.81    1.40
 -16  21  -3    0.75    1.66
 -15  20  -3    1.95    1.19
 -14  19  -3    8.09    1.60
 -13  18  -3   20.30    2.16
 -12  17  -3   14.51    1.89
 -11  16  -3   62.78    4.92
 -10  15  -3  119.40    5.48
  -9  14  -3    4.61    1.37
  -8  13  -3   12.66    2.64
  -7  12  -3    6.21    1.30
  -6  11  -3    4.22    1.10
  -5  10  -3    4.33    1.08
  -4   9  -3    0.17    0.59
   4  -9   3    0.03    0.14
  -3   8  -3   29.85    2.49
  -3   8  -3   26.80    0.74
   3  -8   3   23.19    0.78
  -2   7  -3   16.92    1.31
  -2   7  -3   16.15    0.60
   2  -7   3   15.08    0.67
  -1   6  -3    0.55    0.92
  -1   6  -3    0.46    0.41
   1  -6   3    0.76    0.44
   0   5  -3   57.90    1.67
   0   5  -3   61.61    2.37
   0  -5   3   51.98    1.75
   1   4  -3   76.28    2.24
  -1  -4   3   73.40    2.79
   2   3  -3   31.74    1.24
  -2  -3   3   31.12    1.35
   3   2  -3  209.70    6.35
  -3  -2   3  204.57    6.79
   4   1  -3   15.52    0.91
  -4  -1   3   14.39    1.03
   5   0  -3   55.92    2.07
  -5   0   3   56.81    2.38
   6  -1  -3   70.82    2.63
  -6   1   3   74.67    3.68
   7  -2  -3   51.64    2.10
  -7   2   3   53.47    2.99
   8  -3  -3   12.65    1.06
  -8   3   3   11.84    1.19
   9  -4  -3    9.36    0.99
  -9   4   3    8.05    1.18
 -10   5   3   38.74    2.36
  11  -6  -3   18.74    1.53
 -11   6   3   19.61    2.55
  12  -7  -3   62.80    1.97
  12  -7  -3   63.45    2.99
 -12   7   3   60.72    4.41
  13  -8  -3    8.06    1.33
  13  -8  -3    9.54    0.68
  14  -9  -3    4.40    0.53
  15 -10  -3    6.25    0.43
  15 -10  -3    5.55    1.85
 -15  10   3    8.56    1.44
  16 -11  -3    4.01    0.38
  16 -11  -3    6.05    1.18
 -16  11   3    5.51    1.39
  17 -12  -3    0.38    0.36
  17 -12  -3    0.22    0.77
 -17  12   3   -0.91    0.95
  18 -13  -3   34.60    2.38
  18 -13  -3   28.50    1.36
 -18  13   3   37.78    4.18
  19 -14  -3    2.09    0.55
  20 -15  -3    3.44    0.40
 -20  15   3    7.05    1.66
 -21  16   3    7.04    2.03
 -22  17   3    5.98    2.00
 -23  18   3    0.06    1.23
 -17  24  -3   16.68    3.48
 -16  23  -3    1.30    1.20
 -15  22  -3    2.51    1.29
 -14  21  -3   14.89    2.85
 -13  20  -3    1.58    1.13
 -12  19  -3   29.81    2.49
 -11  18  -3    0.83    1.61
 -10  17  -3   37.06    2.72
  -9  16  -3    5.21    1.41
  -8  15  -3   15.46    2.76
  -7  14  -3   32.97    2.42
  -6  13  -3   78.66    3.90
  -5  12  -3    9.59    2.14
  -4  11  -3    3.59    1.02
  -3  10  -3   34.40    2.10
   3 -10   3   34.54    0.97
  -2   9  -3    2.45    0.83
   2  -9   3    2.14    0.25
  -1   8  -3   80.97    3.12
   1  -8   3   72.57    2.04
   0   7  -3    3.41    1.26
   0  -7   3    4.32    0.62
   1   6  -3   81.95    2.90
   1   6  -3   79.00    2.28
  -1  -6   3   68.54    2.57
   2   5  -3   19.41    1.20
   2   5  -3   19.77    1.17
  -2  -5   3   19.03    0.94
   3   4  -3   25.59    1.73
   3   4  -3   23.07    1.08
  -3  -4   3   23.45    1.48
   4   3  -3    1.13    0.47
   4   3  -3    1.68    0.48
  -4  -3   3    1.37    0.47
   5   2  -3   53.98    2.00
  -5  -2   3   52.96    2.19
   6   1  -3    0.76    0.50
  -6  -1   3    0.55    0.51
   7   0  -3    2.47    0.66
  -7   0   3    3.35    1.10
   8  -1  -3   25.67    1.45
  -8   1   3   23.34    2.16
   9  -2  -3   11.28    1.09
  -9   2   3   11.55    1.68
  10  -3  -3   57.14    2.62
 -10   3   3   59.40    3.77
  11  -4  -3   44.48    2.36
 -11   4   3   50.31    3.52
  12  -5  -3   51.13    3.51
 -12   5   3   48.12    2.77
  13  -6  -3   22.26    1.86
 -13   6   3   23.54    1.97
  14  -7  -3   49.30    2.78
 -14   7   3   49.31    3.10
  15  -8  -3   21.29    0.57
  15  -8  -3   22.05    1.83
 -15   8   3   27.46    2.10
  16  -9  -3    0.21    0.21
  16  -9  -3   -0.07    0.72
 -16   9   3   -0.05    0.87
  17 -10  -3    0.06    0.13
  17 -10  -3    0.67    0.70
 -17  10   3    0.50    1.33
  18 -11  -3    1.93    0.21
 -18  11   3    2.76    1.25
 -19  12   3    0.69    1.17
 -20  13   3    8.68    1.90
 -21  14   3   11.11    2.14
 -22  15   3   13.10    3.67
 -23  16   3    4.49    1.93
 -24  17   3    0.30    1.36
 -16  25  -3    1.42    1.32
 -15  24  -3    0.48    1.74
 -14  23  -3    0.48    1.05
 -13  22  -3    0.25    0.94
 -12  21  -3   -0.56    0.99
 -11  20  -3    7.10    1.46
 -10  19  -3   17.46    1.91
  -9  18  -3   14.83    1.78
  -8  17  -3   97.32    6.21
  -7  16  -3   30.56    2.36
  -6  15  -3    1.48    1.04
  -5  14  -3   57.51    4.27
  -4  13  -3   25.99    2.03
  -3  12  -3   15.85    1.58
  -2  11  -3    0.98    1.00
   2 -11   3   -0.02    0.14
   2 -11   3    0.49    0.28
  -1  10  -3   40.71    2.15
   1 -10   3   39.63    1.42
   1 -10   3   36.47    1.22
   0   9  -3   91.37    3.52
   0  -9   3   87.34    2.44
   1   8  -3   28.39    1.57
  -1  -8   3   26.15    0.97
   2   7  -3   58.36    2.96
  -2  -7   3   54.34    1.76
   3   6  -3    0.11    0.44
  -3  -6   3    0.38    0.52
   4   5  -3    1.56    0.53
  -4  -5   3    1.35    0.45
   5   4  -3    9.23    1.07
  -5  -4   3    8.62    0.78
   6   3  -3    1.45    0.37
   6   3  -3    0.39    0.49
  -6  -3   3   -0.11    0.50
   7   2  -3   14.82    0.72
   7   2  -3   16.16    1.08
  -7  -2   3   15.29    1.13
   8   1  -3   76.83    2.11
   8   1  -3   82.44    3.05
  -8  -1   3   77.82    3.14
   9   0  -3   89.95    2.62
   9   0  -3   87.73    3.38
  -9   0   3   84.13    3.49
  10  -1  -3   60.20    2.70
  10  -1  -3   60.59    1.75
 -10   1   3   59.11    2.82
  11  -2  -3  122.31    4.69
  11  -2  -3  111.62    2.61
 -11   2   3  115.31    4.91
  12  -3  -3   12.92    1.33
  12  -3  -3   11.16    0.32
 -12   3   3   10.43    1.35
  13  -4  -3   18.73    0.37
  13  -4  -3   23.69    1.69
  13  -4  -3   19.02    0.43
 -13   4   3   17.90    1.72
  14  -5  -3   -0.13    1.19
 -14   5   3   19.83    1.49
 -15   6   3    6.36    1.39
 -16   7   3    1.39    1.57
 -17   8   3   24.48    2.25
 -18   9   3    3.03    1.33
 -19  10   3   -0.16    0.97
 -20  11   3    0.58    1.15
 -21  12   3   21.80    3.84
 -22  13   3   -0.49    1.22
 -23  14   3   21.84    2.88
 -24  15   3   10.97    2.36
 -25  16   3    0.28    1.41
 -15  26  -3    3.18    1.60
 -14  25  -3    3.74    1.52
 -13  24  -3    0.83    1.11
 -12  23  -3   -0.17    1.44
 -11  22  -3   13.97    1.90
 -10  21  -3    6.27    1.42
  -9  20  -3   38.25    3.83
  -8  19  -3    1.52    1.07
  -7  18  -3   31.00    2.27
  -6  17  -3    6.20    1.32
  -5  16  -3    3.89    1.86
  -4  15  -3   16.32    1.75
  -3  14  -3    1.03    0.89
  -2  13  -3   45.84    2.52
  -1  12  -3   19.33    2.17
   1 -12   3   15.14    0.64
   0  11  -3  112.25    4.21
   0 -11   3  101.27    3.25
   0 -11   3   98.88    2.64
   1  10  -3   58.80    2.67
  -1 -10   3   59.21    1.75
  -1 -10   3   63.63    2.34
   2   9  -3   12.20    1.11
  -2  -9   3   10.87    0.61
   3   8  -3   12.29    1.56
  -3  -8   3   10.91    0.69
   4   7  -3   48.96    2.51
  -4  -7   3   42.80    1.61
   5   6  -3    0.74    0.45
  -5  -6   3    0.25    0.41
   6   5  -3   74.42    2.39
  -6  -5   3   67.97    2.55
   7   4  -3   15.73    0.82
  -7  -4   3   16.83    1.08
   8   3  -3   26.38    0.99
  -8  -3   3   23.63    1.45
   9   2  -3    2.13    0.36
  -9  -2   3    3.09    0.72
  10   1  -3   39.55    1.31
 -10  -1   3   38.86    2.09
  11   0  -3  102.80    2.58
 -11   0   3  104.14    4.39
  12  -1  -3   10.16    0.27
 -12   1   3   10.59    1.29
 -13   2   3   38.37    2.36
 -14   3   3    3.43    1.10
 -15   4   3    0.28    1.28
 -16   5   3   17.87    1.91
 -17   6   3   46.61    3.20
 -18   7   3    5.09    1.42
 -19   8   3   14.14    2.05
 -20   9   3    7.59    2.64
 -21  10   3    1.90    1.33
 -22  11   3    2.15    1.46
 -23  12   3   14.34    2.37
 -24  13   3   -1.42    1.52
 -25  14   3    2.19    1.72
 -26  15   3    0.72    1.56
 -13  26  -3    6.97    2.83
 -12  25  -3    7.47    1.72
 -11  24  -3    4.13    1.49
 -10  23  -3   -0.27    0.96
  -9  22  -3    1.24    1.09
  -8  21  -3    1.59    1.09
  -7  20  -3    3.94    1.20
  -6  19  -3    0.93    0.96
  -5  18  -3   12.92    1.63
  -4  17  -3    0.49    0.80
  -3  16  -3   22.50    1.92
  -2  15  -3   52.57    2.81
  -1  14  -3   11.61    1.85
   1 -14   3    8.41    0.63
   1 -14   3    7.81    0.33
   0  13  -3   31.10    1.92
   0 -13   3   25.88    1.40
   1  12  -3   10.58    1.23
  -1 -12   3   11.47    0.77
  -1 -12   3   10.69    0.51
   2  11  -3  114.19    4.28
  -2 -11   3  113.52    3.58
  -2 -11   3  117.63    3.59
   3  10  -3   61.11    2.52
  -3 -10   3   55.25    1.82
  -3 -10   3   59.98    2.09
   4   9  -3    8.09    0.96
  -4  -9   3    8.18    0.94
  -4  -9   3   11.10    0.85
   5   8  -3   64.30    2.40
  -5  -8   3   62.06    2.18
   6   7  -3   48.92    1.86
  -6  -7   3   49.08    1.87
   7   6  -3   11.02    0.76
  -7  -6   3    9.04    0.85
   8   5  -3    1.50    0.41
  -8  -5   3    1.45    0.58
   9   4  -3    0.71    0.30
  -9  -4   3    0.19    0.54
  10   3  -3   36.51    1.39
 -10  -3   3   36.76    1.93
  11   2  -3   -0.16    0.28
 -11  -2   3   -0.49    0.58
  12   1  -3   15.36    0.53
 -12  -1   3   18.55    1.43
 -13   0   3   29.81    2.78
 -14   1   3   44.87    3.58
 -15   2   3   10.97    1.48
 -16   3   3   12.41    1.68
 -17   4   3   46.75    3.13
 -18   5   3    2.42    1.21
 -19   6   3   32.55    3.86
 -20   7   3   23.56    2.48
 -21   8   3    0.47    1.08
 -22   9   3    3.63    1.49
 -23  10   3    4.04    1.72
 -24  11   3    0.68    1.32
 -25  12   3    1.93    1.64
 -26  13   3    9.10    3.47
 -12  27  -3    2.72    1.53
 -11  26  -3    4.60    2.43
 -10  25  -3    3.83    1.48
  -9  24  -3    5.78    1.50
  -8  23  -3    3.70    1.34
  -7  22  -3    5.60    1.35
  -6  21  -3    1.61    1.72
  -5  20  -3    1.49    1.02
  -4  19  -3   49.77    2.82
  -3  18  -3    2.82    1.03
  -2  17  -3   -0.61    0.81
  -1  16  -3   64.04    4.27
   0  15  -3    2.61    0.91
   0 -15   3    1.87    0.45
   1  14  -3   40.00    2.18
  -1 -14   3   38.05    1.30
  -1 -14   3   36.00    1.48
   2  13  -3   37.65    2.08
  -2 -13   3   36.63    1.59
  -2 -13   3   39.95    1.49
   3  12  -3   11.45    1.14
  -3 -12   3   10.36    0.90
  -3 -12   3   10.48    0.63
   4  11  -3   45.48    2.08
  -4 -11   3   45.72    1.93
  -4 -11   3   44.02    1.91
   5  10  -3   40.65    1.87
  -5 -10   3   43.02    1.95
  -5 -10   3   40.60    1.85
   6   9  -3   18.85    1.19
  -6  -9   3   22.46    1.41
  -6  -9   3   20.25    1.07
   7   8  -3   23.26    1.17
  -7  -8   3   23.40    1.22
  -7  -8   3   25.75    1.56
   8   7  -3   13.24    0.86
  -8  -7   3   16.19    1.03
   9   6  -3    0.49    0.53
  -9  -6   3    0.21    0.48
  10   5  -3    4.53    0.45
 -10  -5   3    4.99    0.81
  11   4  -3    2.45    0.31
 -11  -4   3    1.90    1.14
  12   3  -3   14.88    0.49
 -12  -3   3   15.31    2.04
 -13  -2   3   46.66    2.51
 -14  -1   3    9.21    1.30
 -15   0   3    2.68    1.05
 -16   1   3   41.82    2.62
 -17   2   3    7.87    2.18
 -18   3   3   30.98    2.49
 -19   4   3   28.00    2.42
 -20   5   3    5.93    1.58
 -21   6   3    8.77    1.76
 -22   7   3   27.94    2.77
 -23   8   3    5.44    1.70
 -24   9   3   15.38    2.37
 -25  10   3   10.82    3.35
 -26  11   3    1.19    1.57
 -27  12   3    0.36    1.37
 -11  28  -3    6.09    1.92
 -10  27  -3   10.18    2.02
  -9  26  -3    3.78    1.41
  -8  25  -3   12.40    2.90
  -7  24  -3   -1.22    1.71
  -6  23  -3   12.58    1.79
  -5  22  -3   16.47    1.88
  -4  21  -3    2.88    1.15
  -3  20  -3    0.41    0.83
  -2  19  -3   14.94    2.41
  -1  18  -3    8.11    1.32
   1 -18   3    8.86    1.54
   0  17  -3   11.32    1.37
   0 -17   3   13.72    1.63
   0 -17   3    9.70    0.60
   1  16  -3   36.81    2.25
  -1 -16   3   36.25    2.47
  -1 -16   3   36.37    1.56
   2  15  -3    7.86    1.20
  -2 -15   3    7.76    1.41
  -2 -15   3    9.01    0.49
  -2 -15   3    8.75    1.39
   3  14  -3    2.08    0.83
  -3 -14   3    2.40    0.55
  -3 -14   3    2.31    0.68
   4  13  -3   21.75    1.46
  -4 -13   3   19.11    0.85
  -4 -13   3   19.02    1.30
   5  12  -3   46.00    2.17
  -5 -12   3   49.49    2.19
  -5 -12   3   47.91    2.12
   6  11  -3   17.97    1.25
  -6 -11   3   17.99    1.38
  -6 -11   3   17.78    1.36
   7  10  -3   54.75    2.21
  -7 -10   3   55.07    2.67
  -7 -10   3   61.54    2.57
   8   9  -3   25.20    1.76
  -8  -9   3   24.71    1.78
  -8  -9   3   27.31    1.68
   9   8  -3    5.36    0.65
  -9  -8   3    8.33    1.22
  -9  -8   3    9.08    1.08
  10   7  -3    1.02    0.38
 -10  -7   3    1.56    0.83
 -10  -7   3    1.35    0.93
  11   6  -3    5.21    0.46
 -11  -6   3    4.26    0.84
  12   5  -3    7.76    0.44
 -12  -5   3    5.66    1.01
 -13  -4   3   23.09    1.68
 -14  -3   3    1.92    0.90
 -15  -2   3   56.78    3.05
 -16  -1   3   73.54    4.85
 -17   0   3   11.71    1.57
 -18   1   3   34.92    2.59
 -19   2   3   -0.38    0.90
 -20   3   3   17.74    2.96
 -21   4   3    0.24    0.99
 -22   5   3   13.56    2.10
 -23   6   3   19.73    2.53
 -24   7   3   13.91    3.30
 -25   8   3    8.69    2.06
 -26   9   3   13.15    2.42
 -27  10   3   -0.53    2.06
 -28  11   3    1.40    1.67
 -28  11   3    1.54    1.66
  -9  28  -3    1.98    2.28
  -8  27  -3    4.26    1.56
  -7  26  -3    5.59    1.59
  -6  25  -3   14.32    1.90
  -5  24  -3   15.92    1.97
  -4  23  -3    9.27    2.40
  -3  22  -3    2.43    1.45
   3 -22   3   -0.51    1.09
  -2  21  -3   31.53    2.35
   2 -21   3   31.69    2.72
  -1  20  -3    4.33    1.13
   1 -20   3    3.96    1.31
   0  19  -3   -0.30    0.73
   0 -19   3    0.51    0.20
   0 -19   3    0.22    0.11
   0 -19   3    0.89    0.87
   1  18  -3   30.12    2.05
  -1 -18   3   31.13    2.34
  -1 -18   3   30.95    1.10
   2  17  -3    8.22    1.19
  -2 -17   3    8.19    0.88
  -2 -17   3    8.47    1.41
  -2 -17   3    7.20    0.44
   3  16  -3   10.74    1.31
  -3 -16   3   10.96    1.14
  -3 -16   3   12.45    1.50
  -3 -16   3   10.75    0.82
   4  15  -3    1.71    0.80
  -4 -15   3    1.48    0.38
  -4 -15   3    2.28    0.92
   5  14  -3   20.71    1.41
  -5 -14   3   17.08    1.42
  -5 -14   3   17.01    0.91
  -5 -14   3   18.45    1.61
   6  13  -3   20.71    1.41
  -6 -13   3   19.95    1.04
  -6 -13   3   20.49    1.58
  -6 -13   3   19.38    1.55
   7  12  -3   61.00    2.51
  -7 -12   3   62.28    2.84
  -7 -12   3   57.96    2.21
   8  11  -3   27.59    1.42
  -8 -11   3   26.61    1.78
  -8 -11   3   25.63    1.34
   9  10  -3   16.55    1.42
  -9 -10   3   12.87    1.06
  -9 -10   3   17.49    2.26
  10   9  -3    1.57    0.47
 -10  -9   3    1.02    0.59
 -10  -9   3    1.32    0.82
  11   8  -3   26.66    1.51
 -11  -8   3   25.41    1.56
 -11  -8   3   28.88    2.00
  12   7  -3    3.16    0.65
 -12  -7   3    3.77    0.81
 -12  -7   3    3.25    1.13
 -13  -6   3   90.44    4.23
 -13  -6   3   76.87    3.56
 -14  -5   3   65.84    3.50
 -14  -5   3   54.16    3.72
 -15  -4   3   15.60    1.62
 -16  -3   3   26.61    2.06
 -17  -2   3   -0.02    0.68
 -18  -1   3    7.71    1.36
 -19   0   3    0.40    1.33
 -20   1   3    0.28    0.85
 -21   2   3    1.46    1.11
 -22   3   3    8.18    1.72
 -23   4   3    8.49    2.75
 -24   5   3   16.40    2.38
 -25   6   3   16.96    2.51
 -26   7   3   21.00    3.86
 -26   7   3   15.13    2.51
 -27   8   3    9.22    2.29
 -27   8   3   11.00    2.33
 -28   9   3    1.22    1.55
 -28   9   3    1.01    1.53
  -8  29  -3    4.10    1.77
  -7  28  -3    0.40    1.16
  -6  27  -3    9.09    2.80
  -5  26  -3   16.48    3.15
  -4  25  -3   20.32    2.06
   4 -25   3   15.11    2.51
  -3  24  -3   24.71    2.22
   3 -24   3   23.14    2.67
  -2  23  -3   -0.10    0.87
   2 -23   3   -0.58    1.05
  -1  22  -3    9.67    1.58
   1 -22   3   17.51    1.98
   0  21  -3    4.99    1.12
   0 -21   3    3.84    0.24
   0 -21   3    3.61    1.39
   1  20  -3   -0.17    0.63
  -1 -20   3   -0.09    0.17
  -1 -20   3    0.87    0.79
  -1 -20   3    0.34    0.31
   2  19  -3   -0.22    0.73
  -2 -19   3    0.68    0.36
  -2 -19   3    0.61    0.59
  -2 -19   3    1.63    0.93
   3  18  -3   25.87    1.83
  -3 -18   3   25.45    0.93
  -3 -18   3   26.25    2.09
  -3 -18   3   30.76    3.10
   4  17  -3   44.17    2.37
  -4 -17   3   47.23    3.38
  -4 -17   3   42.19    1.82
  -4 -17   3   48.43    3.73
   5  16  -3   15.30    1.39
  -5 -16   3   16.00    1.20
  -5 -16   3   17.57    2.44
  -5 -16   3   14.74    1.50
   6  15  -3    6.62    1.02
  -6 -15   3    5.85    1.14
  -6 -15   3    6.16    1.13
  -6 -15   3    5.97    0.62
   7  14  -3   46.85    2.27
  -7 -14   3   53.62    2.58
  -7 -14   3   52.82    2.70
  -7 -14   3   46.60    1.92
   8  13  -3   10.64    0.97
  -8 -13   3    7.68    0.85
  -8 -13   3    9.14    1.09
  -8 -13   3    7.81    1.30
   9  12  -3   28.71    2.01
  -9 -12   3   27.96    2.00
  -9 -12   3   23.47    1.40
  -9 -12   3   26.18    1.58
  10  11  -3   13.83    0.98
 -10 -11   3   15.14    2.39
 -10 -11   3   12.30    1.11
  11  10  -3   12.06    0.82
 -11 -10   3   10.17    1.50
 -11 -10   3    8.73    1.07
  12   9  -3   79.75    2.54
 -12  -9   3   80.79    5.10
 -12  -9   3   75.50    4.21
 -13  -8   3    8.79    1.19
 -13  -8   3   11.93    1.53
 -14  -7   3   29.52    2.01
 -14  -7   3   33.18    2.49
 -15  -6   3    0.84    0.80
 -15  -6   3    1.19    1.63
 -16  -5   3    2.96    1.05
 -16  -5   3    3.22    1.26
 -17  -4   3    2.98    1.33
 -17  -4   3   -0.03    1.14
 -18  -3   3    3.46    1.09
 -18  -3   3    2.66    1.27
 -19  -2   3   16.30    1.79
 -19  -2   3   14.25    2.01
 -20  -1   3    3.31    1.20
 -20  -1   3    3.93    1.47
 -21   0   3    3.21    1.55
 -21   0   3    6.00    2.02
 -22   1   3   16.11    2.23
 -22   1   3   13.03    1.95
 -23   2   3   10.16    1.80
 -23   2   3    6.60    1.97
 -24   3   3    1.89    1.21
 -24   3   3    0.11    1.27
 -25   4   3   27.10    2.97
 -26   5   3    8.84    1.99
 -26   5   3    6.80    1.98
 -27   6   3   12.31    2.41
 -27   6   3   12.61    2.40
 -28   7   3   11.61    3.90
 -28   7   3   13.01    3.75
 -29   8   3    7.32    2.32
 -29   8   3    9.01    3.63
  -6  29  -3    9.28    2.12
  -5  28  -3   -1.38    1.33
  -4  27  -3    3.57    1.36
   4 -27   3    1.48    1.55
  -3  26  -3   10.93    1.79
   3 -26   3   10.06    2.07
  -2  25  -3    8.27    1.55
   2 -25   3    7.69    1.85
  -1  24  -3    6.27    2.11
   1 -24   3    6.12    1.69
   0  23  -3    3.55    1.65
   0 -23   3    0.64    1.24
   1  22  -3    9.81    2.19
  -1 -22   3    8.32    0.46
  -1 -22   3    8.99    2.62
  -1 -22   3   11.37    0.64
   2  21  -3    0.45    0.75
  -2 -21   3    0.57    0.48
  -2 -21   3    0.27    0.31
  -2 -21   3   -0.27    1.41
   3  20  -3   18.79    1.60
  -3 -20   3   15.73    0.94
  -3 -20   3   16.65    1.53
  -3 -20   3   18.03    1.86
   4  19  -3   20.85    1.67
  -4 -19   3   20.35    0.92
  -4 -19   3   25.11    1.97
  -4 -19   3   21.08    2.05
   5  18  -3    3.07    1.32
  -5 -18   3    2.04    0.89
  -5 -18   3    1.91    0.42
  -5 -18   3    1.74    0.98
   6  17  -3   50.51    3.23
  -6 -17   3   49.22    3.80
  -6 -17   3   43.19    1.70
  -6 -17   3   44.95    2.59
   7  16  -3    5.27    1.28
  -7 -16   3    2.17    0.88
  -7 -16   3    3.08    0.96
   8  15  -3   23.11    1.50
  -8 -15   3   26.88    2.99
  -8 -15   3   18.99    1.66
  -8 -15   3   23.83    2.36
   9  14  -3    3.35    0.80
  -9 -14   3    5.36    1.94
  -9 -14   3    4.79    1.43
  -9 -14   3    5.46    1.08
  10  13  -3   22.74    1.94
 -10 -13   3   24.96    2.06
 -10 -13   3   21.88    1.37
 -10 -13   3   23.22    1.50
  11  12  -3    2.02    0.59
 -11 -12   3    1.57    1.04
 -11 -12   3    0.93    0.67
 -11 -12   3    2.28    0.67
  12  11  -3   40.12    1.64
 -12 -11   3   38.72    2.11
 -12 -11   3   42.18    2.83
 -13 -10   3    8.27    1.12
 -13 -10   3    6.23    1.52
 -14  -9   3    5.12    1.40
 -14  -9   3    5.24    1.05
 -15  -8   3   11.97    2.01
 -15  -8   3   10.12    2.74
 -16  -7   3   30.21    2.49
 -16  -7   3   28.93    2.04
 -17  -6   3    5.97    1.22
 -17  -6   3    6.17    1.48
 -18  -5   3   17.20    1.99
 -18  -5   3   14.32    1.72
 -19  -4   3   53.54    3.43
 -19  -4   3   46.42    2.94
 -20  -3   3   -0.12    1.35
 -20  -3   3    0.78    1.07
 -21  -2   3   36.47    4.24
 -21  -2   3   31.10    2.56
 -22  -1   3   10.98    3.12
 -22  -1   3   12.79    1.88
 -23   0   3    1.26    1.16
 -23   0   3    1.13    2.08
 -24   1   3    0.97    1.77
 -24   1   3   -0.73    1.03
 -25   2   3    7.98    1.78
 -25   2   3    4.11    2.97
 -26   3   3   10.11    2.06
 -26   3   3    7.71    1.95
 -27   4   3    2.68    1.72
 -28   5   3   13.25    2.70
 -28   5   3   19.72    2.84
 -29   6   3    0.94    1.75
 -29   6   3    3.49    1.83
   4 -29   3    3.45    1.78
  -3  28  -3   16.85    3.16
   3 -28   3   10.74    2.47
  -2  27  -3    2.86    1.34
   2 -27   3    1.86    1.57
  -1  26  -3   11.42    1.94
   1 -26   3   15.27    2.20
   0  25  -3    2.27    1.15
   0 -25   3    1.70    2.08
   1  24  -3   -1.34    0.84
  -1 -24   3    0.57    0.26
  -1 -24   3   -0.38    1.00
  -1 -24   3    0.16    0.20
   2  23  -3    7.90    1.37
  -2 -23   3    9.36    1.66
  -2 -23   3    7.31    0.80
   3  22  -3    7.31    1.29
  -3 -22   3    8.89    1.56
  -3 -22   3    7.51    0.70
  -3 -22   3    8.58    1.04
   4  21  -3    0.64    0.66
  -4 -21   3   -0.55    0.76
  -4 -21   3    0.18    0.28
  -4 -21   3   -0.07    0.84
   5  20  -3    4.24    1.09
  -5 -20   3    8.35    0.99
  -5 -20   3    3.48    0.81
  -5 -20   3    6.46    1.29
   6  19  -3   30.31    1.89
  -6 -19   3   29.76    2.23
  -6 -19   3   26.55    1.64
  -6 -19   3   30.38    2.96
   7  18  -3    3.57    0.87
  -7 -18   3    3.23    1.12
  -7 -18   3    2.85    0.55
  -7 -18   3    3.47    1.02
   8  17  -3   23.48    2.14
  -8 -17   3   23.78    2.02
  -8 -17   3   18.82    1.14
  -8 -17   3   22.80    1.72
   9  16  -3   -0.15    0.86
  -9 -16   3    0.28    0.84
  -9 -16   3   -0.12    0.45
  -9 -16   3    1.03    0.64
  10  15  -3    6.89    0.90
 -10 -15   3    7.81    1.40
 -10 -15   3    9.04    0.89
 -10 -15   3    6.27    1.05
  11  14  -3    0.32    0.50
 -11 -14   3    0.83    1.47
 -11 -14   3    0.26    0.53
 -11 -14   3    0.66    0.56
 -12 -13   3    2.12    1.02
 -12 -13   3    0.66    1.02
 -12 -13   3    0.46    0.93
 -13 -12   3    5.34    2.27
 -13 -12   3    7.46    1.54
 -13 -12   3    6.49    0.80
 -14 -11   3   83.49    4.39
 -14 -11   3   76.79    3.56
 -15 -10   3  114.84    7.06
 -15 -10   3  104.15    4.61
 -16  -9   3    6.83    1.35
 -16  -9   3    2.52    1.05
 -17  -8   3   89.74    4.27
 -17  -8   3   96.15    4.91
 -18  -7   3   28.35    2.64
 -18  -7   3   27.02    2.97
 -19  -6   3   -1.95    1.68
 -19  -6   3   -0.15    0.83
 -20  -5   3    2.67    1.28
 -20  -5   3    2.25    1.11
 -21  -4   3    0.26    0.74
 -21  -4   3   -0.35    0.88
 -22  -3   3    1.59    1.71
 -22  -3   3    1.26    1.28
 -23  -2   3    0.22    1.05
 -23  -2   3    1.67    1.22
 -24  -1   3    8.43    1.77
 -24  -1   3   11.61    2.03
 -25   0   3    4.13    1.79
 -25   0   3    6.35    1.57
 -26   1   3    9.20    1.87
 -26   1   3    8.14    2.03
 -27   2   3    2.81    1.80
 -27   2   3    3.77    1.67
 -28   3   3    7.29    1.96
 -28   3   3    6.37    2.13
 -29   4   3    3.77    1.93
  -3  30  -3    2.72    1.76
  -2  29  -3   -1.06    1.09
   2 -29   3    1.38    1.16
  -1  28  -3    5.92    1.67
   1 -28   3    2.18    1.76
   0  27  -3    2.01    1.21
   0 -27   3   -0.40    2.10
   1  26  -3    6.08    1.59
  -1 -26   3    7.54    1.79
   2  25  -3    6.92    1.44
  -2 -25   3    5.45    1.67
   3  24  -3    1.93    0.91
  -3 -24   3    0.97    1.03
  -3 -24   3    0.42    0.41
  -3 -24   3    0.48    0.28
   4  23  -3    7.69    1.44
  -4 -23   3    7.74    0.86
  -4 -23   3   10.90    0.90
  -4 -23   3    7.01    1.70
   5  22  -3   10.96    1.39
  -5 -22   3   10.16    1.58
  -5 -22   3    9.67    0.71
  -5 -22   3   12.78    1.66
   6  21  -3    7.03    1.12
  -6 -21   3    8.79    1.14
  -6 -21   3    4.90    0.62
  -6 -21   3    8.46    1.43
   7  20  -3   17.72    1.58
  -7 -20   3   20.61    1.84
  -7 -20   3   18.45    1.06
  -7 -20   3   21.16    1.93
   8  19  -3   14.42    1.29
  -8 -19   3   14.91    2.64
  -8 -19   3   13.64    1.53
  -8 -19   3   12.15    0.93
   9  18  -3    2.89    0.79
  -9 -18   3    3.21    1.91
  -9 -18   3    2.33    0.61
  -9 -18   3    2.12    0.93
  10  17  -3   -0.73    0.46
 -10 -17   3    1.33    0.78
 -10 -17   3    0.22    0.41
 -10 -17   3   -0.02    0.55
 -11 -16   3    6.44    1.51
 -11 -16   3    5.81    0.85
 -11 -16   3    5.67    0.97
 -12 -15   3    2.06    1.14
 -12 -15   3    1.08    0.69
 -12 -15   3    1.86    0.70
 -13 -14   3   20.11    2.14
 -13 -14   3   17.75    1.38
 -13 -14   3   17.98    1.29
 -14 -13   3   10.98    1.73
 -14 -13   3    9.87    1.21
 -14 -13   3   11.26    1.42
 -15 -12   3   18.05    2.32
 -15 -12   3   18.94    2.27
 -15 -12   3   19.23    1.15
 -16 -11   3   56.49    3.44
 -16 -11   3   44.24    2.62
 -17 -10   3   31.84    2.69
 -17 -10   3   25.22    1.99
 -18  -9   3   11.44    2.09
 -18  -9   3   12.85    1.54
 -19  -8   3   -0.30    0.72
 -19  -8   3    0.25    0.95
 -20  -7   3    1.32    1.39
 -20  -7   3    0.22    1.15
 -21  -6   3    0.73    1.22
 -21  -6   3    0.44    0.91
 -22  -5   3   15.77    2.37
 -22  -5   3   11.50    1.83
 -23  -4   3    8.60    1.61
 -23  -4   3    5.97    1.99
 -24  -3   3   25.71    3.76
 -24  -3   3   28.54    3.04
 -25  -2   3    3.76    1.94
 -25  -2   3    5.43    1.56
 -26  -1   3   17.97    2.60
 -26  -1   3   16.21    2.29
 -27   0   3    2.65    2.01
 -27   0   3    0.49    1.66
 -28   1   3    0.40    1.17
 -28   1   3   -0.81    1.35
 -29   2   3    4.30    1.89
 -29   2   3    4.30    2.18
 -30   3   3    2.95    1.74
  -1  30  -3    0.68    1.43
   1 -30   3    0.45    1.39
   0  29  -3    1.45    1.41
   0 -29   3   -0.64    2.20
   1  28  -3    1.18    1.11
  -1 -28   3   -1.62    1.14
   2  27  -3    4.03    1.54
  -2 -27   3    3.94    1.66
   3  26  -3    6.17    1.51
  -3 -26   3    3.10    1.62
   4  25  -3   24.76    2.33
  -4 -25   3   19.88    1.29
  -4 -25   3   27.32    1.41
  -4 -25   3   22.33    2.55
   5  24  -3   16.47    1.72
  -5 -24   3   14.53    1.22
  -5 -24   3   11.79    0.81
  -5 -24   3   14.22    1.92
   6  23  -3   17.77    1.68
  -6 -23   3   15.89    2.00
  -6 -23   3   12.94    0.90
  -6 -23   3   17.55    1.96
   7  22  -3   19.73    1.79
  -7 -22   3   23.33    1.79
  -7 -22   3   17.57    1.10
  -7 -22   3   20.25    2.96
   8  21  -3   -0.76    0.58
  -8 -21   3   -0.32    0.73
  -8 -21   3    0.33    0.36
  -8 -21   3    0.50    1.09
  -9 -20   3    6.43    2.00
  -9 -20   3    6.45    1.50
 -10 -19   3   -0.46    1.22
 -10 -19   3   -0.41    0.99
 -10 -19   3   -0.63    0.51
 -11 -18   3    3.55    1.22
 -11 -18   3    0.88    0.61
 -11 -18   3    3.55    1.34
 -12 -17   3    0.62    0.57
 -12 -17   3    0.21    1.03
 -13 -16   3    8.90    1.85
 -13 -16   3    9.60    1.08
 -13 -16   3    8.71    1.10
 -14 -15   3    1.47    1.27
 -14 -15   3    2.37    0.81
 -14 -15   3    2.32    0.72
 -15 -14   3    1.85    1.23
 -15 -14   3    0.49    0.74
 -15 -14   3    1.13    0.57
 -16 -13   3   24.46    1.85
 -16 -13   3   21.83    1.78
 -16 -13   3   25.40    2.53
 -17 -12   3   16.23    1.01
 -17 -12   3   16.01    2.30
 -17 -12   3   15.90    2.24
 -18 -11   3    2.41    2.22
 -18 -11   3    1.92    1.48
 -19 -10   3   16.61    2.34
 -19 -10   3   16.36    1.72
 -20  -9   3   38.80    3.31
 -20  -9   3   35.66    2.55
 -21  -8   3    0.74    1.33
 -21  -8   3    1.11    0.98
 -22  -7   3    6.39    1.97
 -22  -7   3    4.93    2.11
 -23  -6   3   11.53    1.77
 -23  -6   3   10.63    3.43
 -24  -5   3   18.81    2.65
 -24  -5   3   19.31    2.23
 -25  -4   3   13.90    2.17
 -25  -4   3   18.20    2.59
 -26  -3   3   11.50    3.01
 -26  -3   3   11.13    2.33
 -27  -2   3    1.00    1.62
 -27  -2   3    1.46    1.32
 -28  -1   3    3.16    1.96
 -28  -1   3    3.15    1.63
 -29   0   3    0.79    1.55
 -29   0   3   -0.02    1.98
 -30   1   3   -0.92    1.24
 -30   1   3    0.96    1.47
  -1 -30   3   -0.34    1.34
  -2 -29   3    7.09    2.05
  -3 -28   3    7.34    1.90
  -4 -27   3    5.25    1.65
  -5 -26   3    2.71    1.45
  -5 -26   3    5.25    1.10
  -5 -26   3    2.21    0.48
  -6 -25   3   17.89    1.39
  -6 -25   3   11.63    0.89
  -6 -25   3   18.83    2.09
  -7 -24   3   14.12    1.47
  -7 -24   3   14.80    2.97
  -8 -23   3    5.22    2.24
  -8 -23   3    6.96    1.95
  -9 -22   3    1.69    1.45
  -9 -22   3    0.63    1.47
  -9 -22   3    0.42    0.50
 -10 -21   3   -0.25    0.76
 -10 -21   3    1.32    1.43
 -11 -20   3    1.16    0.89
 -11 -20   3    0.49    1.89
 -12 -19   3    0.02    0.72
 -12 -19   3   -0.55    1.05
 -12 -19   3    0.64    0.54
 -13 -18   3   29.57    2.93
 -13 -18   3   30.48    2.90
 -14 -17   3    3.08    2.09
 -14 -17   3    1.07    0.75
 -14 -17   3    2.63    1.23
 -15 -16   3    3.30    1.65
 -15 -16   3    4.72    0.95
 -15 -16   3    4.42    0.89
 -16 -15   3    4.76    1.65
 -16 -15   3    4.53    0.99
 -16 -15   3    3.44    0.78
 -17 -14   3    0.87    1.21
 -17 -14   3   -0.19    0.75
 -17 -14   3    0.67    0.48
 -18 -13   3   15.71    3.67
 -18 -13   3   17.78    1.09
 -18 -13   3   16.85    1.68
 -19 -12   3   32.78    3.11
 -19 -12   3   27.40    3.09
 -20 -11   3    4.63    1.27
 -20 -11   3    7.69    1.88
 -21 -10   3    4.42    3.04
 -21 -10   3    5.81    1.30
 -22  -9   3    1.54    1.15
 -22  -9   3    2.43    1.55
 -23  -8   3    3.52    1.85
 -23  -8   3    6.28    1.40
 -24  -7   3   -1.36    1.20
 -24  -7   3    2.01    1.37
 -25  -6   3   13.53    2.08
 -25  -6   3   15.67    2.64
 -26  -5   3   14.42    2.87
 -26  -5   3   16.23    2.21
 -27  -4   3    5.10    2.10
 -27  -4   3    3.87    2.45
 -28  -3   3   12.79    2.29
 -28  -3   3   16.33    3.01
 -29  -2   3    1.64    1.46
 -29  -2   3   -0.81    1.13
 -30  -1   3    1.47    1.91
 -30  -1   3    1.04    1.46
  -4 -29   3    2.89    1.62
  -5 -28   3   16.10    2.43
  -6 -27   3   11.46    2.05
  -7 -26   3    0.35    0.42
  -7 -26   3    0.02    1.76
  -8 -25   3   -0.16    1.84
  -8 -25   3    6.18    0.98
  -8 -25   3   -0.18    0.51
  -9 -24   3    9.27    1.75
  -9 -24   3   12.04    1.65
 -10 -23   3    2.22    1.05
 -10 -23   3   -0.10    1.10
 -11 -22   3    0.54    0.87
 -11 -22   3    0.49    1.07
 -12 -21   3   15.37    1.78
 -12 -21   3   19.10    2.40
 -13 -20   3    5.21    1.73
 -13 -20   3    5.81    1.21
 -14 -19   3    3.55    1.04
 -14 -19   3    3.44    2.60
 -15 -18   3   12.20    2.17
 -15 -18   3   14.16    1.99
 -16 -17   3   15.70    1.97
 -16 -17   3   13.17    3.43
 -17 -16   3    1.41    0.89
 -17 -16   3    2.39    1.50
 -17 -16   3    1.86    0.70
 -18 -15   3    0.70    0.85
 -18 -15   3    0.94    0.56
 -18 -15   3    1.94    2.14
 -19 -14   3   10.24    1.39
 -19 -14   3    9.04    2.15
 -19 -14   3    8.21    1.25
 -20 -13   3    1.89    1.43
 -20 -13   3    1.41    0.93
 -20 -13   3    0.70    0.45
 -21 -12   3    1.52    1.51
 -21 -12   3    0.10    2.32
 -22 -11   3   13.35    1.79
 -22 -11   3   16.56    2.57
 -23 -10   3    1.16    1.05
 -23 -10   3    0.74    1.57
 -24  -9   3    4.64    1.50
 -24  -9   3    5.89    2.12
 -25  -8   3   11.41    4.22
 -25  -8   3   16.15    2.98
 -26  -7   3    5.88    3.41
 -26  -7   3    6.97    1.69
 -27  -6   3    8.71    2.30
 -27  -6   3    4.84    1.72
 -28  -5   3    2.03    1.28
 -28  -5   3   -1.18    1.67
 -29  -4   3    6.21    2.39
 -29  -4   3    4.50    2.82
 -30  -3   3   -0.16    1.20
  -6 -29   3    2.02    1.53
  -7 -28   3    0.14    1.70
  -8 -27   3   -0.24    1.64
  -8 -27   3    0.11    0.41
  -9 -26   3   -0.07    1.67
  -9 -26   3   11.32    1.50
 -10 -25   3   10.65    1.77
 -10 -25   3   10.42    1.83
 -11 -24   3   -1.03    0.92
 -11 -24   3    0.58    1.04
 -12 -23   3   10.29    1.45
 -12 -23   3    1.14    1.85
 -13 -22   3   -0.70    0.88
 -13 -22   3    0.15    1.94
 -14 -21   3    7.67    2.17
 -14 -21   3    7.98    1.36
 -15 -20   3    3.40    1.06
 -15 -20   3    2.40    1.71
 -16 -19   3   17.52    1.59
 -16 -19   3   22.17    3.88
 -17 -18   3    2.27    1.18
 -17 -18   3    3.35    1.47
 -17 -18   3    0.20    0.86
 -18 -17   3    9.36    1.52
 -18 -17   3   13.96    3.20
 -18 -17   3    5.64    1.28
 -19 -16   3    4.77    1.18
 -19 -16   3    3.86    1.91
 -19 -16   3    5.34    0.82
 -20 -15   3    1.58    1.03
 -20 -15   3    6.27    2.61
 -20 -15   3    1.86    0.58
 -21 -14   3    9.36    0.81
 -21 -14   3    7.85    2.30
 -21 -14   3   10.48    1.51
 -22 -13   3   -0.59    0.86
 -22 -13   3    0.58    1.32
 -23 -12   3    2.58    1.73
 -23 -12   3    0.88    1.77
 -24 -11   3    4.07    3.24
 -24 -11   3    4.98    1.45
 -25 -10   3    3.12    1.35
 -25 -10   3    3.02    1.87
 -26  -9   3    0.37    1.52
 -26  -9   3    0.65    1.08
 -27  -8   3    7.45    2.38
 -27  -8   3    3.99    2.60
 -28  -7   3   -0.54    1.74
 -28  -7   3   -0.80    1.24
 -29  -6   3    7.68    2.88
 -29  -6   3    8.55    2.01
  -8 -29   3    0.17    1.86
  -9 -28   3    0.05    1.66
  -9 -28   3    0.14    1.23
 -10 -27   3   -0.02    1.09
 -10 -27   3    0.64    1.01
 -11 -26   3    0.09    1.11
 -11 -26   3    1.51    1.20
 -12 -25   3    0.02    0.88
 -12 -25   3    0.16    1.58
 -13 -24   3    0.85    1.67
 -13 -24   3   -0.12    0.83
 -14 -23   3   15.01    1.83
 -14 -23   3   19.59    2.68
 -15 -22   3   13.33    2.53
 -15 -22   3   11.41    1.60
 -16 -21   3    8.33    1.33
 -16 -21   3    6.88    3.37
 -17 -20   3   13.81    1.47
 -17 -20   3   10.85    2.63
 -18 -19   3   15.56    1.49
 -18 -19   3   21.15    4.07
 -19 -18   3    2.72    1.74
 -19 -18   3    0.11    0.96
 -19 -18   3    4.48    1.21
 -20 -17   3    1.63    0.65
 -20 -17   3    0.06    0.94
 -20 -17   3    0.73    2.41
 -21 -16   3   -0.06    0.90
 -21 -16   3    0.97    1.52
 -21 -16   3    0.98    0.54
 -22 -15   3   -0.45    1.45
 -22 -15   3    0.91    0.89
 -22 -15   3    0.15    0.63
 -23 -14   3    1.17    2.64
 -23 -14   3    1.64    1.10
 -24 -13   3   -0.66    1.75
 -24 -13   3   -1.80    1.75
 -25 -12   3    5.55    2.34
 -25 -12   3    6.00    1.57
 -26 -11   3    4.12    1.50
 -26 -11   3    4.26    2.31
 -27 -10   3   10.06    2.84
 -27 -10   3    8.73    1.98
 -28  -9   3    3.38    3.86
 -28  -9   3    3.73    2.44
 -29  -8   3    8.82    4.25
 -29  -8   3    6.64    1.92
 -11 -28   3    0.09    1.01
 -11 -28   3    0.00    1.49
 -12 -27   3   -0.03    1.12
 -12 -27   3    1.81    1.88
 -13 -26   3   10.71    1.91
 -13 -26   3   12.91    2.39
 -14 -25   3   -0.02    1.18
 -14 -25   3   -0.08    0.85
 -15 -24   3    9.15    1.68
 -15 -24   3   16.34    2.56
 -16 -23   3    3.64    1.20
 -16 -23   3    2.15    3.10
 -17 -22   3    3.24    1.11
 -17 -22   3    7.07    2.20
 -18 -21   3    5.75    1.99
 -18 -21   3    2.21    0.99
 -19 -20   3   -0.22    0.95
 -19 -20   3    3.27    1.90
 -19 -20   3    2.97    0.86
 -20 -19   3    0.02    0.82
 -20 -19   3    0.21    1.02
 -20 -19   3    3.47    2.35
 -21 -18   3    0.90    0.64
 -21 -18   3    0.84    1.66
 -21 -18   3    0.57    0.98
 -22 -17   3    0.14    1.10
 -22 -17   3    7.16    3.01
 -22 -17   3    1.72    0.64
 -23 -16   3    2.43    1.66
 -23 -16   3   -0.09    1.00
 -24 -15   3   -1.40    1.73
 -24 -15   3    1.52    1.08
 -25 -14   3    5.78    2.48
 -25 -14   3    5.96    2.38
 -26 -13   3    4.78    4.14
 -26 -13   3    5.33    1.63
 -27 -12   3    4.81    2.27
 -27 -12   3    1.91    1.45
 -28 -11   3    5.77    2.96
 -28 -11   3    8.77    1.92
 -15 -26   3   -0.16    1.00
 -15 -26   3   -0.33    1.47
 -16 -25   3   -0.10    0.81
 -16 -25   3    0.77    2.03
 -17 -24   3    1.38    1.11
 -17 -24   3    3.16    1.98
 -18 -23   3    0.96    0.94
 -18 -23   3    1.31    1.86
 -19 -22   3    5.47    1.22
 -19 -22   3    5.78    2.68
 -20 -21   3    1.49    0.87
 -20 -21   3    4.00    1.96
 -20 -21   3    0.00    0.95
 -21 -20   3   14.56    2.10
 -21 -20   3   12.61    3.35
 -22 -19   3    2.35    3.00
 -22 -19   3    0.24    1.05
 -22 -19   3    1.67    1.04
 -23 -18   3    3.14    2.04
 -23 -18   3    0.54    1.12
 -24 -17   3    1.31    1.45
 -24 -17   3   10.36    2.59
 -25 -16   3   -0.92    2.45
 -25 -16   3    0.17    0.92
 -26 -15   3   -0.59    1.59
 -26 -15   3    0.52    1.43
 -22 -16  -4    1.97    3.77
  22  16   4    0.45    2.25
 -21 -17  -4   -1.33    2.27
  21  17   4    0.02    2.36
 -20 -18  -4    1.32    2.25
  20  18   4    0.06    2.35
 -19 -19  -4    0.75    2.17
  19  19   4   -0.07    3.61
 -18 -20  -4   14.46    3.59
  18  20   4    7.90    4.22
 -17 -21  -4   -0.60    2.25
  17  21   4   -3.10    2.86
 -16 -22  -4    8.02    2.86
  16  22   4    5.43    6.05
 -25 -11  -4    0.20    1.75
  25  11   4   -0.06    1.49
 -24 -12  -4   -0.53    1.80
  24  12   4    0.49    1.54
 -23 -13  -4   -0.51    1.84
  23  13   4    0.07    1.76
 -22 -14  -4    0.76    2.01
  22  14   4    0.28    1.98
 -21 -15  -4    3.27    3.12
  21  15   4   -0.54    2.26
 -20 -16  -4    1.92    2.08
  20  16   4    0.35    2.34
 -19 -17  -4    0.26    1.73
 -18 -18  -4   10.26    4.38
  18  18   4    5.56    3.59
 -17 -19  -4   -0.14    1.84
  17  19   4    3.48    2.55
 -16 -20  -4    6.72    2.50
  16  20   4   11.65    6.16
 -15 -21  -4    0.38    1.74
  15  21   4    3.56    2.83
 -14 -22  -4    7.29    2.26
  14  22   4    3.56    3.90
 -13 -23  -4    3.73    1.91
  13  23   4    0.21    5.31
 -12 -24  -4    2.81    2.72
  12  24   4    0.72    3.33
 -11 -25  -4   -0.01    1.55
  11  25   4   -2.46    2.83
 -26  -8  -4   -0.06    1.72
  26   8   4    0.11    1.29
 -25  -9  -4   -0.46    2.74
  25   9   4   -0.07    2.46
 -24 -10  -4    0.30    1.60
  24  10   4   -0.09    1.55
 -23 -11  -4   -0.15    1.71
  23  11   4    0.75    1.74
 -22 -12  -4    0.03    1.65
  22  12   4    0.37    1.67
 -21 -13  -4   -0.69    2.64
  21  13   4    0.00    2.98
 -20 -14  -4    4.02    3.09
  20  14   4    1.02    2.43
 -19 -15  -4   -1.37    1.75
 -18 -16  -4    2.06    1.78
  18  16   4    0.14    2.44
 -17 -17  -4    4.59    2.68
  17  17   4   -1.03    2.50
 -16 -18  -4    6.28    2.26
  16  18   4   10.36    3.72
 -15 -19  -4   -0.12    1.15
  15  19   4    0.54    2.03
 -14 -20  -4   -0.10    2.14
  14  20   4   -0.77    2.34
 -13 -21  -4    0.27    1.29
  13  21   4    0.59    2.49
 -12 -22  -4    1.89    1.61
  12  22   4    0.88    3.00
 -11 -23  -4    7.65    3.01
  11  23   4   -0.21    3.63
 -10 -24  -4    0.51    1.52
  10  24   4    1.96    4.26
  -9 -25  -4   -0.96    1.56
   9  25   4   -0.27    4.50
  -8 -26  -4   15.24    2.57
   8  26   4   -0.59    4.76
 -26  -6  -4   17.65    3.58
  26   6   4   13.46    2.73
 -25  -7  -4   -0.47    2.38
  25   7   4    0.04    1.28
 -24  -8  -4    0.14    2.19
  24   8   4   -0.01    1.28
 -23  -9  -4   -0.01    1.31
  23   9   4   -0.03    2.08
 -22 -10  -4    0.07    1.30
  22  10   4   -0.10    1.41
 -21 -11  -4    0.43    1.37
  21  11   4   -0.94    2.30
 -20 -12  -4    0.08    2.37
  20  12   4    1.24    1.91
 -19 -13  -4    9.96    2.33
  19  13   4   -0.43    4.55
 -18 -14  -4    0.94    1.56
  18  14   4    2.34    2.24
 -17 -15  -4    0.55    1.18
  17  15   4   -1.63    1.77
 -16 -16  -4    5.07    2.82
  16  16   4    5.99    3.13
 -15 -17  -4    0.92    1.24
  15  17   4   -1.33    2.14
 -14 -18  -4   10.83    2.22
  14  18   4    6.45    5.81
 -13 -19  -4    5.26    2.57
  13  19   4    0.95    3.10
 -12 -20  -4    1.31    1.32
  12  20   4   -1.23    2.58
 -11 -21  -4   -0.19    1.25
  11  21   4   -1.87    3.66
 -10 -22  -4   -1.61    1.48
  10  22   4    0.61    2.73
  -9 -23  -4    0.96    1.39
   9  23   4   -0.75    2.58
  -8 -24  -4    8.11    2.90
   8  24   4   -1.47    3.54
  -7 -25  -4    0.22    1.37
   7  25   4    1.79    2.64
  -6 -26  -4   26.00    3.16
   6  26   4    0.63    8.38
 -27  -3  -4    0.55    1.60
  27   3   4    0.01    1.85
 -26  -4  -4    0.00    2.67
  26   4   4   12.49    2.07
 -25  -5  -4    0.04    1.34
  25   5   4    0.05    1.15
 -24  -6  -4   -0.20    2.18
  24   6   4   -0.03    1.95
 -23  -7  -4    0.00    1.97
  23   7   4   -0.11    1.28
 -22  -8  -4   -0.24    1.25
  22   8   4    0.04    1.39
 -21  -9  -4    0.14    1.25
  21   9   4    0.08    1.44
 -20 -10  -4   14.62    2.27
  20  10   4    0.24    2.83
  19  11   4   -0.06    1.49
 -18 -12  -4    8.47    1.99
  18  12   4    5.85    2.93
 -17 -13  -4   -0.37    1.17
  17  13   4   -0.40    1.78
 -16 -14  -4    4.24    1.72
  16  14   4    4.57    2.83
 -15 -15  -4   -1.66    1.23
  15  15   4    0.62    2.26
 -14 -16  -4    1.33    1.32
  14  16   4    1.08    3.92
 -13 -17  -4    3.97    1.69
  13  17   4    6.64    3.17
 -12 -18  -4    1.06    1.29
  12  18   4    1.74    2.59
 -11 -19  -4   -0.52    1.08
  11  19   4    0.74    2.13
 -10 -20  -4    1.40    2.20
  10  20   4    1.67    2.62
  -9 -21  -4   -1.26    1.22
   9  21   4    2.99    2.25
  -8 -22  -4    7.24    1.96
   8  22   4    0.08    5.51
  -7 -23  -4   -1.29    1.44
   7  23   4   -0.91    2.54
  -6 -24  -4   15.54    2.42
   6  24   4    1.38    3.99
  -5 -25  -4    3.54    2.60
   5  25   4    1.78    2.97
  -4 -26  -4    8.94    2.02
   4  26   4    0.88    3.78
  -3 -27  -4    2.99    1.63
  -3 -27  -4    0.40    2.44
   3  27   4    2.27    2.95
 -27  -1  -4    1.30    1.46
  27   1   4    0.04    1.05
 -26  -2  -4    0.04    1.26
  26   2   4   -0.01    1.52
 -25  -3  -4    0.32    1.25
  25   3   4   -0.11    1.02
 -24  -4  -4   14.21    2.71
  24   4   4   15.96    2.48
 -23  -5  -4    0.18    2.38
  23   5   4    2.31    1.57
 -22  -6  -4    0.15    1.09
  22   6   4    0.07    1.19
 -21  -7  -4   -0.14    1.34
  21   7   4    1.67    1.55
 -20  -8  -4   -0.26    1.43
  20   8   4    7.69    2.78
 -19  -9  -4   -0.07    1.24
  19   9   4    1.58    1.63
 -18 -10  -4   13.45    3.24
  18  10   4   10.17    3.04
 -17 -11  -4    1.49    1.21
  17  11   4   -0.86    1.83
 -16 -12  -4   19.74    2.49
  16  12   4   19.58    3.96
 -15 -13  -4    1.42    2.53
  15  13   4    8.88    2.78
 -14 -14  -4    0.41    0.91
  14  14   4   -1.35    1.77
 -13 -15  -4    0.25    1.02
  13  15   4   -0.15    1.86
 -12 -16  -4    2.10    2.05
  12  16   4    2.09    4.06
 -11 -17  -4    8.02    1.74
  11  17   4    7.71    3.57
 -10 -18  -4    0.27    1.12
  10  18   4    0.54    2.13
  -9 -19  -4    6.10    1.63
   9  19   4    2.12    4.98
  -8 -20  -4    6.74    1.64
   8  20   4   -0.25    3.05
  -7 -21  -4    2.50    2.18
   7  21   4    1.53    2.65
  -6 -22  -4   15.52    2.18
   6  22   4   -0.88    3.64
  -5 -23  -4   -0.33    1.17
   5  23   4    0.32    3.12
  -4 -24  -4   15.10    2.32
   4  24   4    0.11    5.80
  -3 -25  -4    5.89    1.76
   3  25   4   -0.15    2.98
  -2 -26  -4    0.38    1.31
  -2 -26  -4    1.13    1.29
   2  26   4    0.20    2.19
  -1 -27  -4   -0.40    1.32
  -1 -27  -4   -0.82    1.27
   1  27   4    0.06    2.26
 -27   1  -4   -0.50    1.36
  27  -1   4    1.18    1.00
 -26   0  -4    7.60    1.82
  26   0   4    2.64    1.40
 -25  -1  -4    0.02    1.34
  25   1   4    0.79    1.13
 -24  -2  -4    0.00    1.20
  24   2   4    0.65    1.56
 -23  -3  -4   -0.18    1.73
  23   3   4   -0.13    1.06
 -22  -4  -4   -0.01    1.86
  22   4   4   -0.82    1.28
 -21  -5  -4   -0.19    1.09
  21   5   4    2.14    2.08
 -20  -6  -4    0.07    1.05
  20   6   4    0.86    1.36
 -19  -7  -4    0.14    1.16
  19   7   4   -2.08    1.57
  18   8   4   11.11    4.37
 -17  -9  -4    1.44    1.16
  17   9   4    1.09    1.83
 -16 -10  -4   33.05    2.80
  16  10   4   34.63    4.40
 -15 -11  -4    1.73    1.27
  15  11   4    1.93    2.10
 -14 -12  -4   45.39    3.40
  14  12   4   48.89    5.68
 -13 -13  -4    1.86    1.14
  13  13   4   -1.00    2.24
 -12 -14  -4    0.38    1.02
  12  14   4    0.48    3.14
 -11 -15  -4    6.43    1.62
  11  15   4    6.56    2.99
 -10 -16  -4   -0.80    0.99
  10  16   4    1.83    1.93
  -9 -17  -4    2.90    2.14
   9  17   4    4.07    2.64
  -8 -18  -4    3.73    1.45
   8  18   4    5.13    2.71
  -7 -19  -4    0.54    1.26
   7  19   4    2.94    2.30
  -6 -20  -4    7.62    1.69
   6  20   4   -0.19    4.74
  -5 -21  -4    2.91    1.36
   5  21   4   -0.31    2.35
  -4 -22  -4    2.36    1.37
   4  22   4   -0.01    2.30
  -3 -23  -4    2.91    1.40
   3  23   4   -0.14    2.40
  -2 -24  -4   11.97    2.91
   2  24   4   -0.24    3.05
  -1 -25  -4    0.56    1.17
   1  25   4   -0.17    3.10
   0 -26  -4    2.45    1.71
   0 -26  -4    5.94    1.69
   0  26   4   -0.06    4.26
   1 -27  -4    1.34    1.32
   1 -27  -4    0.00    2.08
  -1  27   4    0.00    3.32
 -27   3  -4    4.49    1.71
 -26   2  -4    4.84    1.38
  26  -2   4   -0.60    1.04
 -25   1  -4    0.06    1.37
  25  -1   4    2.37    1.07
 -24   0  -4    3.22    2.56
  24   0   4    5.13    1.44
 -23  -1  -4    1.97    2.08
  23   1   4    1.86    1.97
 -22  -2  -4   -1.11    1.55
  22   2   4    1.61    1.58
 -21  -3  -4   15.88    2.06
  21   3   4   12.59    2.27
 -20  -4  -4    2.32    1.25
  20   4   4    1.01    1.56
 -19  -5  -4   -0.43    1.01
  19   5   4   -0.57    2.23
 -18  -6  -4   12.32    2.85
  18   6   4   14.60    2.64
 -17  -7  -4   -0.26    1.02
  17   7   4    4.59    1.71
 -16  -8  -4   25.88    2.40
  16   8   4   24.91    5.37
 -15  -9  -4    5.24    1.46
  15   9   4    3.76    2.39
 -14 -10  -4   56.79    4.86
  14  10   4   58.01    5.74
 -13 -11  -4    0.35    0.85
  13  11   4   -1.86    1.66
 -12 -12  -4    3.03    1.26
  12  12   4    4.02    2.47
 -11 -13  -4    5.17    1.38
  11  13   4    5.00    2.73
 -10 -14  -4    5.07    1.45
  10  14   4    5.34    4.24
  -9 -15  -4    7.37    1.56
   9  15   4    3.65    2.82
  -8 -16  -4    0.81    0.84
   8  16   4   -2.96    1.68
  -7 -17  -4   14.17    1.98
   7  17   4   14.93    5.26
  -6 -18  -4   25.06    3.47
   6  18   4   18.24    3.89
  -5 -19  -4    1.29    1.15
   5  19   4    0.21    2.01
  -4 -20  -4    9.24    2.41
   4  20   4   -0.19    2.68
  -3 -21  -4    5.90    1.53
   3  21   4   -0.24    3.92
  -2 -22  -4    0.58    1.07
   2  22   4   -0.11    1.62
  -1 -23  -4    3.35    1.42
   1  23   4   -0.19    2.09
   0 -24  -4    6.37    1.63
   0  24   4    0.06    2.49
   1 -25  -4    2.77    1.44
   1 -25  -4    3.23    1.47
  -1  25   4   -0.08    2.25
   2 -26  -4    8.19    2.96
   2 -26  -4   10.94    1.94
  -2  26   4    0.07    2.98
   3 -27  -4    0.31    1.42
   3 -27  -4    4.05    2.04
  -3  27   4    0.19    2.18
 -26   4  -4    6.49    2.47
 -25   3  -4    5.01    2.12
  25  -3   4    2.17    1.12
 -24   2  -4   16.22    2.69
  24  -2   4    6.23    1.44
 -23   1  -4    5.14    2.14
  23  -1   4    3.82    1.27
 -22   0  -4    1.60    1.11
  22   0   4    1.38    1.17
 -21  -1  -4    5.63    1.44
  21   1   4    5.86    2.47
 -20  -2  -4    2.68    1.25
  20   2   4    4.24    1.50
 -19  -3  -4    0.05    0.92
  19   3   4    0.76    1.18
 -18  -4  -4    8.77    2.46
  18   4   4   12.10    2.35
 -17  -5  -4    1.81    1.00
  17   5   4   -1.57    2.49
 -16  -6  -4   12.05    1.69
  16   6   4   14.95    2.58
 -15  -7  -4    4.31    1.26
  15   7   4    3.74    2.12
 -14  -8  -4    1.28    1.48
  14   8   4   -0.71    2.81
 -13  -9  -4    2.60    1.09
  13   9   4    1.59    2.14
 -12 -10  -4    8.63    1.50
  12  10   4    4.61    2.71
 -11 -11  -4   14.38    2.64
  11  11   4   16.48    3.34
 -10 -12  -4    8.79    1.53
  10  12   4    5.12    2.74
  -9 -13  -4    1.04    1.03
   9  13   4    2.23    1.99
  -8 -14  -4   22.89    2.26
   8  14   4   25.95    5.69
  -7 -15  -4    0.74    0.91
   7  15   4   -0.99    1.59
  -6 -16  -4    4.03    2.35
   6  16   4    9.42    2.60
  -5 -17  -4    2.89    1.24
   5  17   4   -0.10    3.21
  -4 -18  -4   16.60    2.03
   4  18   4   12.14    3.06
  -3 -19  -4    1.84    1.14
   3  19   4    0.05    1.82
  -2 -20  -4   -0.63    0.99
   2  20   4    0.18    1.58
  -1 -21  -4    3.28    1.21
   1  21   4    0.03    2.04
   0 -22  -4    1.29    1.16
   0  22   4    0.05    2.80
   1 -23  -4    1.09    1.69
  -1  23   4    0.07    2.66
   2 -24  -4   -0.67    1.04
   2 -24  -4   -0.11    1.07
  -2  24   4   -0.03    1.53
   3 -25  -4    1.52    1.83
   3 -25  -4    0.43    1.80
  -3  25   4   -0.03    1.73
   4 -26  -4    8.77    1.79
   4 -26  -4    8.40    1.91
  -4  26   4    0.03    2.75
 -26   6  -4   25.99    3.29
 -25   5  -4    1.95    1.76
 -24   4  -4   10.98    2.49
  24  -4   4    9.28    1.36
 -23   3  -4   -1.59    0.87
  23  -3   4    0.46    0.79
 -22   2  -4    1.19    0.94
  22  -2   4    0.52    0.91
 -21   1  -4    3.12    1.12
  21  -1   4    1.74    1.17
 -20   0  -4    1.91    1.01
  20   0   4    1.14    1.19
 -19  -1  -4    1.90    1.08
  19   1   4    1.64    2.09
 -18  -2  -4   13.67    2.34
  18   2   4   10.08    3.12
 -17  -3  -4    0.11    0.77
  17   3   4    0.36    1.14
 -16  -4  -4    5.01    1.20
  16   4   4    4.42    1.82
 -15  -5  -4    8.13    1.39
  15   5   4    5.95    2.22
 -14  -6  -4    9.06    2.05
  14   6   4    7.27    2.33
 -13  -7  -4    0.85    0.88
  13   7   4    1.48    1.72
 -12  -8  -4   14.19    1.63
  12   8   4   10.74    2.86
 -11  -9  -4    1.77    1.49
  11   9   4    0.83    1.92
 -10 -10  -4   18.79    1.87
  10  10   4   17.53    3.28
  -9 -11  -4    0.87    0.96
   9  11   4    4.10    1.87
  -8 -12  -4   18.84    1.83
   8  12   4   18.36    3.18
  -7 -13  -4   14.66    1.81
   7  13   4   14.14    2.99
  -6 -14  -4   16.85    2.72
   6  14   4   14.11    4.49
  -5 -15  -4    1.55    1.05
   5  15   4    1.69    1.64
  -4 -16  -4   21.33    2.08
   4  16   4   19.09    3.11
  -3 -17  -4    1.15    1.02
   3  17   4    1.18    1.72
  -2 -18  -4    3.42    1.20
   2  18   4    1.05    2.87
  -1 -19  -4    0.46    1.36
   1  19   4    0.24    1.41
   0 -20  -4    2.27    1.13
   0  20   4    0.09    1.70
   1 -21  -4    5.75    1.97
  -1  21   4   -0.11    1.90
   2 -22  -4   -0.36    0.90
  -2  22   4    0.13    1.44
   3 -23  -4    1.55    1.18
   3 -23  -4    2.04    1.16
  -3  23   4   -0.01    1.82
   4 -24  -4   15.72    2.91
   4 -24  -4   14.53    1.87
  -4  24   4    0.03    2.87
   5 -25  -4    1.30    1.07
   5 -25  -4   -0.30    1.02
  -5  25   4    0.05    1.65
   6 -26  -4   12.64    1.93
   6 -26  -4   12.48    1.99
  -6  26   4   -0.11    3.00
 -25   7  -4    0.46    0.74
 -24   6  -4   11.15    1.49
 -24   6  -4   10.50    2.19
 -23   5  -4    0.54    0.77
  23  -5   4    0.13    0.67
 -22   4  -4    5.01    1.11
  22  -4   4    3.53    1.03
 -21   3  -4    5.69    1.16
  21  -3   4    4.17    1.15
 -20   2  -4    1.13    0.84
  20  -2   4    0.12    0.92
 -19   1  -4    0.48    1.27
  19  -1   4    0.98    1.02
 -18   0  -4    3.62    1.61
  18   0   4    2.98    1.37
 -17  -1  -4    4.33    1.01
  17   1   4    1.75    1.50
 -16  -2  -4   10.97    1.39
 -15  -3  -4    2.20    0.90
  15   3   4    0.12    1.42
 -14  -4  -4   19.88    2.40
  14   4   4   15.95    2.77
 -13  -5  -4    1.93    0.92
  13   5   4    1.60    1.74
 -12  -6  -4    9.46    1.29
  12   6   4    6.40    3.84
 -11  -7  -4    2.91    1.52
  11   7   4    3.25    2.03
 -10  -8  -4    5.49    1.12
  10   8   4    4.41    2.20
  -9  -9  -4    5.18    1.11
   9   9   4    0.95    2.22
  -8 -10  -4   20.92    1.80
   8  10   4   20.89    3.14
  -7 -11  -4    0.63    0.78
   7  11   4   -0.63    1.45
  -6 -12  -4   21.59    2.76
   6  12   4   20.43    2.89
  -5 -13  -4   -0.87    0.78
   5  13   4    3.56    1.31
  -4 -14  -4    4.81    1.27
   4  14   4    6.17    3.00
  -3 -15  -4   -0.68    0.88
   3  15   4   -1.10    1.35
  -2 -16  -4   21.30    2.02
   2  16   4   25.13    2.89
  -1 -17  -4   12.80    2.34
   1  17   4    8.97    2.34
   0 -18  -4    6.26    1.31
   0  18   4    3.80    2.01
   1 -19  -4    2.52    1.13
  -1  19   4    1.51    2.69
   2 -20  -4    3.60    1.13
  -2  20   4    0.00    1.73
   3 -21  -4   15.57    1.73
  -3  21   4    0.14    2.52
   4 -22  -4    1.15    1.04
   4 -22  -4    2.10    1.11
  -4  22   4    0.23    1.65
   5 -23  -4    2.15    1.72
   5 -23  -4    1.53    1.09
  -5  23   4    0.08    1.73
   6 -24  -4    8.36    2.43
   6 -24  -4   11.80    1.71
  -6  24   4    0.02    2.56
   7 -25  -4   -0.40    0.85
   7 -25  -4    0.57    0.85
  -7  25   4   -0.28    1.37
   8 -26  -4    3.58    1.83
   8 -26  -4    0.79    1.88
  -8  26   4    0.00    1.95
 -23   7  -4    0.70    0.92
 -23   7  -4   -0.97    1.00
 -22   6  -4   12.44    2.03
 -22   6  -4   13.57    2.20
 -21   5  -4   -0.60    1.09
  21  -5   4    1.00    0.65
 -20   4  -4    0.01    1.69
  20  -4   4   10.14    1.20
 -19   3  -4   -0.08    1.02
  19  -3   4   -0.41    0.75
 -18   2  -4    2.22    0.88
  18  -2   4    2.67    1.08
 -17   1  -4    9.13    1.24
  17  -1   4   11.51    1.68
 -16   0  -4   15.78    1.46
  16   0   4   14.40    2.03
 -15  -1  -4    3.24    1.44
  15   1   4    2.94    1.48
 -14  -2  -4    6.58    1.07
  14   2   4    5.09    1.84
 -13  -3  -4    2.98    0.90
  13   3   4    1.08    2.76
 -12  -4  -4   28.14    1.94
  12   4   4   26.90    3.42
 -11  -5  -4    7.92    1.14
  11   5   4    6.28    2.32
 -10  -6  -4    0.85    0.72
  10   6   4   -0.31    1.48
  -9  -7  -4    1.43    0.87
   9   7   4    1.77    1.72
  -8  -8  -4    7.86    1.20
   8   8   4    5.31    2.25
  -7  -9  -4    1.23    0.84
   7   9   4    0.88    2.48
  -6 -10  -4   24.44    2.69
   6  10   4   24.20    2.95
  -5 -11  -4    0.83    0.81
   5  11   4    1.05    1.44
  -4 -12  -4   24.60    1.98
   4  12   4   23.37    2.78
  -3 -13  -4    6.29    1.22
   3  13   4    5.47    1.78
  -2 -14  -4   10.59    1.45
   2  14   4   11.55    2.21
  -1 -15  -4    7.19    1.96
   1  15   4    6.06    1.85
   0 -16  -4   14.48    1.65
   0  16   4   11.94    2.29
   1 -17  -4    2.09    1.01
  -1  17   4    1.49    1.54
   2 -18  -4    9.71    1.50
  -2  18   4   10.50    2.40
   3 -19  -4    1.41    0.96
  -3  19   4    0.00    1.47
   4 -20  -4    2.78    1.09
  -4  20   4    0.11    2.63
   5 -21  -4    1.42    0.90
   5 -21  -4   -0.18    0.91
  -5  21   4   -0.17    2.21
   6 -22  -4    0.35    1.35
   6 -22  -4    0.44    1.36
  -6  22   4   -0.04    2.15
   7 -23  -4    1.37    1.00
   7 -23  -4    0.85    1.01
  -7  23   4    0.01    2.52
   8 -24  -4    5.25    1.40
   8 -24  -4    4.96    1.36
  -8  24   4   -0.01    3.38
   9 -25  -4    0.29    0.78
   9 -25  -4   -0.78    1.25
  -9  25   4    0.02    2.12
 -23   9  -4    0.82    1.25
 -22   8  -4    7.66    0.97
 -22   8  -4    5.28    2.88
 -21   7  -4    0.05    0.63
 -21   7  -4    2.21    1.16
 -20   6  -4    6.99    0.94
  20  -6   4    2.89    1.36
 -19   5  -4    0.02    0.57
  19  -5   4    0.81    0.95
 -18   4  -4   12.90    1.28
  18  -4   4   13.74    1.45
 -17   3  -4   -0.32    0.90
  17  -3   4    0.72    0.75
 -16   2  -4   24.93    2.08
  16  -2   4   19.64    2.07
 -15   1  -4    8.90    1.00
  15  -1   4    6.85    1.52
 -14   0  -4   23.60    1.59
  14   0   4   24.76    2.46
 -13  -1  -4    8.18    1.11
  13   1   4   10.68    1.91
 -12  -2  -4    3.23    1.35
  12   2   4    6.70    1.80
 -11  -3  -4    9.29    1.12
  11   3   4    9.02    2.22
 -10  -4  -4   -0.16    0.57
  10   4   4    0.45    1.95
  -9  -5  -4    2.94    1.23
   9   5   4   -0.11    1.69
  -8  -6  -4    5.01    1.00
   8   6   4    5.96    1.93
  -7  -7  -4   -0.24    0.64
   7   7   4   -0.30    1.85
  -6  -8  -4   24.53    2.41
   6   8   4   20.03    2.71
  -5  -9  -4    0.62    0.75
   5   9   4    2.73    1.97
  -4 -10  -4    6.87    1.22
   4  10   4    9.27    1.84
  -3 -11  -4   -0.61    0.72
   3  11   4    0.26    1.77
  -2 -12  -4   28.78    2.04
   2  12   4   29.16    2.84
  -1 -13  -4    0.01    1.28
   1  13   4    2.22    1.30
   0 -14  -4   23.91    1.96
   0  14   4   24.14    2.71
   1 -15  -4    4.66    1.67
  -1  15   4    1.38    2.40
   2 -16  -4    9.38    1.42
  -2  16   4   11.48    2.05
   3 -17  -4    1.18    0.90
  -3  17   4    0.81    1.37
   4 -18  -4   13.57    1.63
  -4  18   4   15.27    2.44
   5 -19  -4   -0.77    0.83
  -5  19   4    0.19    1.28
   6 -20  -4   -0.07    0.66
   6 -20  -4    0.25    1.03
  -6  20   4   -0.10    1.06
   7 -21  -4    5.08    1.23
   7 -21  -4    5.47    1.85
  -7  21   4    0.10    1.91
   8 -22  -4    1.26    0.96
   8 -22  -4    0.60    0.91
  -8  22   4   -0.13    1.55
   9 -23  -4    0.23    0.81
   9 -23  -4   -0.01    0.82
  -9  23   4    0.08    1.35
  10 -24  -4    1.85    1.00
  10 -24  -4    0.04    1.00
 -10  24   4   -0.04    1.71
  11 -25  -4   -0.29    1.55
  11 -25  -4    2.82    1.57
 -11  25   4    0.14    1.76
 -22  10  -4   -1.10    1.96
 -21   9  -4   -0.03    0.40
 -21   9  -4    0.60    0.99
 -20   8  -4    5.78    0.78
 -20   8  -4    7.08    1.66
 -19   7  -4   -0.05    0.47
 -19   7  -4    2.77    1.06
  19  -7   4   -0.01    0.48
 -18   6  -4   21.36    1.36
  18  -6   4   21.21    1.99
 -17   5  -4   -0.07    0.53
  17  -5   4    1.53    0.68
 -16   4  -4   19.04    1.28
  16  -4   4   23.47    1.72
 -15   3  -4    0.41    0.47
  15  -3   4   -0.53    0.72
 -14   2  -4    8.04    1.37
  14  -2   4    7.82    2.19
 -13   1  -4    2.12    0.95
  13  -1   4   -0.84    1.84
 -12   0  -4   10.51    1.07
  12   0   4   19.99    3.20
 -11  -1  -4    7.82    0.96
  11   1   4    7.00    3.11
 -10  -2  -4   23.63    2.17
  10   2   4   24.61    4.25
  -9  -3  -4    4.03    0.86
   9   3   4    4.60    1.75
  -8  -4  -4    3.32    0.80
   8   4   4    2.47    1.64
  -7  -5  -4   20.51    2.09
   7   5   4   18.63    2.37
  -6  -6  -4   12.03    1.21
   6   6   4   11.58    2.07
  -5  -7  -4    0.18    0.63
   5   7   4    0.63    0.97
  -4  -8  -4   16.86    2.08
   4   8   4   17.42    2.23
  -3  -9  -4    0.89    0.75
   3   9   4    1.74    1.11
  -2 -10  -4   58.80    2.85
   2  10   4   56.93    3.85
  -1 -11  -4    1.90    0.88
   1  11   4    2.27    2.01
   0 -12  -4   10.37    1.29
   0  12   4   10.40    1.85
   1 -13  -4    8.72    1.91
  -1  13   4    9.11    1.83
   2 -14  -4    3.62    1.03
  -2  14   4    4.47    1.55
   3 -15  -4    2.30    0.98
  -3  15   4    4.45    1.53
   4 -16  -4    3.16    1.02
   5 -17  -4    1.91    0.96
  -5  17   4    1.26    2.24
   6 -18  -4   12.59    2.30
  -6  18   4   13.07    2.32
   7 -19  -4    0.64    0.79
   7 -19  -4   -0.14    0.73
  -7  19   4    0.17    1.25
   8 -20  -4    4.90    1.18
   8 -20  -4    3.60    1.63
  -8  20   4   -0.07    1.85
   9 -21  -4    1.21    0.88
   9 -21  -4    0.67    0.92
  -9  21   4   -0.03    1.54
  10 -22  -4    2.10    0.93
  10 -22  -4   -0.10    0.99
 -10  22   4    0.03    1.60
  11 -23  -4   -0.73    1.35
  11 -23  -4   -0.20    0.83
 -11  23   4   -0.01    2.34
  12 -24  -4   -0.02    0.87
  12 -24  -4    0.60    1.21
 -12  24   4   -0.13    2.26
 -22  12  -4    2.12    1.47
 -21  11  -4    1.22    1.29
 -20  10  -4    7.98    1.75
 -19   9  -4    4.62    0.60
 -19   9  -4    3.86    1.54
 -18   8  -4    0.03    0.37
 -18   8  -4    0.59    1.00
 -17   7  -4   17.08    1.02
 -17   7  -4   18.98    2.31
  17  -7   4   16.66    1.14
 -16   6  -4   11.68    0.91
  16  -6   4   13.83    1.67
 -15   5  -4    0.05    0.43
  15  -5   4    0.89    0.64
 -14   4  -4    5.99    0.70
  14  -4   4    4.59    1.70
 -13   3  -4    6.16    0.71
  13  -3   4    2.40    1.22
 -12   2  -4   28.69    1.99
  12  -2   4   28.10    2.38
 -11   1  -4    2.59    0.97
  11  -1   4    3.15    1.39
 -10   0  -4   33.14    1.67
  10   0   4   33.51    3.09
  -9  -1  -4   19.64    1.35
   9   1   4   20.77    2.46
  -8  -2  -4   26.52    2.15
   8   2   4   27.56    2.60
  -7  -3  -4    4.06    0.80
   7   3   4    5.46    1.40
  -6  -4  -4    1.31    0.67
   6   4   4    1.32    1.17
  -5  -5  -4    4.37    1.25
   5   5   4    5.08    1.30
  -4  -6  -4    1.20    0.67
   4   6   4    2.02    1.66
  -3  -7  -4    2.13    0.78
   3   7   4    2.33    1.17
  -2  -8  -4    6.35    1.48
   2   8   4    5.15    2.31
  -1  -9  -4    1.55    0.76
   1   9   4    0.69    1.09
   0 -10  -4   32.05    2.01
   0  10   4   30.77    2.74
   1 -11  -4    7.46    1.15
  -1  11   4    6.00    2.43
   2 -12  -4    2.13    0.90
  -2  12   4    3.56    1.32
   3 -13  -4    3.11    1.39
  -3  13   4    1.35    1.36
   4 -14  -4   14.33    1.49
  -4  14   4   13.78    2.26
   5 -15  -4    8.64    1.30
  -5  15   4    8.16    1.93
   6 -16  -4    9.22    1.41
  -6  16   4   11.04    2.05
   7 -17  -4    1.57    0.93
  -7  17   4    0.98    1.45
   8 -18  -4   14.50    2.38
   8 -18  -4    9.48    1.37
  -8  18   4   14.64    2.35
   9 -19  -4    0.08    0.82
   9 -19  -4    0.90    0.72
  -9  19   4    0.00    1.40
  10 -20  -4   11.80    1.97
  10 -20  -4   10.98    1.49
 -10  20   4   -0.25    2.39
  11 -21  -4    0.63    1.13
  11 -21  -4    0.14    1.30
 -11  21   4   -0.08    1.37
  12 -22  -4    0.04    1.02
  12 -22  -4    3.00    0.90
 -12  22   4   -0.05    1.81
  13 -23  -4    1.85    0.90
  13 -23  -4    0.29    1.04
 -13  23   4   -0.06    1.72
 -21  13  -4   -0.79    1.97
 -20  12  -4    0.87    1.21
 -19  11  -4   -0.91    1.17
 -18  10  -4    1.52    0.54
 -18  10  -4    3.28    1.26
 -17   9  -4    2.98    0.45
 -17   9  -4    1.31    1.39
 -16   8  -4    2.60    0.89
 -16   8  -4   -0.12    0.29
  16  -8   4   -0.32    0.52
 -15   7  -4    0.81    1.00
 -15   7  -4    0.18    0.33
  15  -7   4    0.06    0.68
 -14   6  -4   16.37    0.91
  14  -6   4   15.46    1.25
 -13   5  -4    1.16    0.44
  13  -5   4    2.44    1.21
 -12   4  -4   25.10    1.24
  12  -4   4   26.41    1.94
 -11   3  -4    0.64    0.69
  11  -3   4    1.01    0.93
 -10   2  -4   58.68    2.73
  10  -2   4   53.01    5.09
  -9   1  -4    1.34    0.52
   9  -1   4    2.53    1.93
  -8   0  -4   33.40    1.55
   8   0   4   28.58    3.95
  -7  -1  -4    1.73    0.60
   7   1   4    2.41    1.73
  -6  -2  -4    2.57    0.66
   6   2   4    4.15    1.75
  -5  -3  -4    3.47    0.71
   5   3   4    2.03    1.13
  -4  -4  -4    0.03    0.48
   4   4   4    0.13    0.73
  -3  -5  -4    2.24    1.07
   3   5   4    2.89    1.10
  -2  -6  -4    1.24    0.66
   2   6   4    1.91    0.97
  -1  -7  -4    1.18    0.67
   1   7   4    1.15    1.00
   0  -8  -4   27.20    1.72
   0   8   4   27.15    3.40
   1  -9  -4   20.95    1.61
  -1   9   4   25.64    2.29
   2 -10  -4   20.82    1.61
  -2  10   4   20.15    2.23
   3 -11  -4   10.69    1.21
  -3  11   4   11.84    1.87
   4 -12  -4   23.67    1.80
  -4  12   4   30.29    3.71
   5 -13  -4   -0.15    1.25
  -5  13   4    1.76    1.16
   6 -14  -4    8.24    1.28
  -6  14   4    9.23    1.77
   7 -15  -4    2.90    1.04
  -7  15   4    4.33    1.56
  -8  16   4   30.53    3.12
   9 -17  -4    0.79    0.73
  -9  17   4    0.92    1.34
  10 -18  -4   10.31    1.43
  10 -18  -4   12.20    1.25
 -10  18   4   -0.15    2.26
  11 -19  -4    1.98    0.85
  12 -20  -4   -1.81    1.29
  13 -21  -4    2.31    1.26
  13 -21  -4    0.46    1.03
  14 -22  -4   -0.07    0.63
 -20  14  -4    2.55    1.48
 -19  13  -4    3.97    2.40
 -18  12  -4    0.33    1.04
 -17  11  -4    6.78    2.56
 -16  10  -4   -0.37    0.22
 -16  10  -4    0.38    1.02
 -15   9  -4    6.10    1.59
 -15   9  -4    5.04    0.63
  15  -9   4    5.36    0.45
 -14   8  -4   34.67    2.77
 -14   8  -4   28.22    1.39
  14  -8   4   28.13    1.29
 -13   7  -4   19.69    2.24
 -13   7  -4   16.59    1.11
  13  -7   4   18.19    1.15
 -12   6  -4   22.78    1.30
  12  -6   4   24.02    2.21
 -11   5  -4    0.99    0.62
  11  -5   4    1.50    0.76
 -10   4  -4    8.86    0.98
  10  -4   4    7.32    1.46
  -9   3  -4    1.48    0.44
   9  -3   4    0.09    1.06
  -8   2  -4    6.53    0.68
   8  -2   4    7.45    1.47
  -7   1  -4    0.96    0.47
   7  -1   4   -0.37    1.45
  -6   0  -4   43.37    1.84
   6   0   4   44.29    2.72
  -5  -1  -4    8.33    1.26
   5   1   4    8.73    1.29
  -4  -2  -4    6.23    0.80
   4   2   4    5.85    1.16
  -3  -3  -4   16.97    1.20
   3   3   4   19.56    2.44
  -2  -4  -4   13.28    1.58
   2   4   4   11.99    1.53
  -1  -5  -4   11.34    1.12
   1   5   4   14.95    2.29
   0  -6  -4   41.98    2.13
   0   6   4   43.87    2.77
   1  -7  -4    1.88    0.72
  -1   7   4    1.11    1.08
   2  -8  -4   23.45    1.60
  -2   8   4   25.88    2.23
   3  -9  -4    3.84    0.89
  -3   9   4    2.32    1.24
   4 -10  -4    0.50    0.70
  -4  10   4    1.02    1.01
  -5  11   4    7.15    1.63
   6 -12  -4    7.70    1.24
  -6  12   4    9.41    1.71
   7 -13  -4   -0.28    0.66
  -7  13   4    0.55    1.56
   9 -15  -4    0.00    0.66
  10 -16  -4   29.05    1.81
  11 -17  -4    1.25    0.72
  12 -18  -4    7.62    1.06
  13 -19  -4    4.13    0.99
  14 -20  -4    1.38    0.77
  15 -21  -4    0.30    0.64
  16 -22  -4    1.08    1.15
 -20  16  -4   12.19    2.18
 -19  15  -4   -1.18    1.29
 -18  14  -4   15.81    2.23
 -17  13  -4    6.55    2.56
 -16  12  -4    1.84    1.28
 -15  11  -4   12.26    2.95
 -14  10  -4    4.17    0.40
 -14  10  -4    4.47    1.46
 -13   9  -4    4.63    1.32
 -13   9  -4    2.86    0.45
 -12   8  -4   21.75    0.84
 -12   8  -4   29.26    2.40
  12  -8   4   23.53    1.56
 -11   7  -4    0.10    0.84
 -11   7  -4   -0.10    0.22
  11  -7   4    0.91    0.66
 -10   6  -4   27.29    1.04
  10  -6   4   25.97    2.51
  -9   5  -4   -0.17    0.27
   9  -5   4    1.35    0.67
  -8   4  -4   17.46    0.91
   8  -4   4   17.73    1.71
  -7   3  -4    2.40    0.47
   7  -3   4    1.37    0.98
  -6   2  -4    0.02    0.35
   6  -2   4    0.50    0.67
  -5   1  -4   12.60    1.30
   5  -1   4   12.89    1.31
  -4   0  -4   52.53    2.53
   4   0   4   51.94    2.71
  -3  -1  -4   18.29    1.12
   3   1   4   17.99    1.53
  -2  -2  -4   52.67    2.22
   2   2   4   51.33    3.67
  -1  -3  -4   28.68    1.55
   1   3   4   29.84    2.08
   0  -4  -4   47.87    2.77
   0   4   4   52.39    3.88
   1  -5  -4    9.75    1.02
  -1   5   4   10.02    1.35
   2  -6  -4    2.73    0.74
  -2   6   4    4.16    1.06
   3  -7  -4    3.46    1.32
  -3   7   4    5.01    1.84
   5  -9  -4    1.21    0.76
  -5   9   4    1.77    1.12
  -6  10   4    0.98    1.06
  -7  11   4    2.48    1.28
  -8  12   4   14.72    2.06
  10 -14  -4   -0.47    0.58
  11 -15  -4    1.18    1.00
  12 -16  -4   18.60    1.97
  13 -17  -4   -1.56    0.98
 -13  17   4   -0.01    1.46
  14 -18  -4    1.38    1.03
  15 -19  -4    0.47    0.91
  16 -20  -4    0.71    0.95
 -19  17  -4    4.18    1.66
 -18  16  -4    8.47    1.91
 -17  15  -4    1.84    1.32
 -16  14  -4    1.74    1.30
 -15  13  -4   -1.90    1.98
 -14  12  -4    0.17    0.98
 -13  11  -4    5.73    2.42
 -12  10  -4    7.34    0.38
 -12  10  -4    8.08    1.65
 -11   9  -4   -0.62    0.84
  11  -9   4    0.11    0.15
 -10   8  -4   23.19    0.80
 -10   8  -4   23.75    2.33
  10  -8   4   23.82    1.68
  -9   7  -4    0.14    1.00
  -9   7  -4    0.93    0.42
   9  -7   4    0.42    0.61
  -8   6  -4   22.15    1.19
   8  -6   4   23.08    1.64
  -7   5  -4    0.28    0.48
   7  -5   4    0.55    1.08
  -6   4  -4    0.72    0.56
   6  -4   4    0.86    0.68
  -5   3  -4    1.06    0.67
   5  -3   4    1.58    0.68
  -4   2  -4   12.61    1.17
   4  -2   4   13.80    1.24
  -3   1  -4   27.46    1.29
   3  -1   4   28.42    1.77
  -2   0  -4   57.48    2.17
   2   0   4   59.05    3.66
  -1  -1  -4    1.17    0.49
   1   1   4   -0.36    0.73
   0  -2  -4   56.17    2.33
   0   2   4   55.98    2.87
   1  -3  -4   15.29    1.83
  -1   3   4   22.30    1.73
   2  -4  -4    5.92    0.88
  -2   4   4    5.70    1.14
   3  -5  -4    2.94    0.75
  -3   5   4    2.84    0.99
   4  -6  -4    1.48    0.72
  -4   6   4    2.35    0.97
   7  -9  -4    1.75    0.79
  11 -13  -4   -0.16    0.46
  12 -14  -4   45.66    2.07
  13 -15  -4   10.87    0.99
  14 -16  -4    2.99    0.71
  15 -17  -4    0.52    0.52
  16 -18  -4    1.52    0.61
 -18  18  -4   10.98    3.18
 -17  17  -4    2.27    1.43
 -16  16  -4    6.12    1.71
 -15  15  -4    1.45    1.27
 -14  14  -4    1.44    1.18
 -13  13  -4   -0.17    1.53
 -12  12  -4    4.69    1.46
 -11  11  -4   15.91    2.01
 -10  10  -4   20.53    0.59
 -10  10  -4   28.08    2.24
  10 -10   4   18.56    0.71
  -9   9  -4    8.94    1.41
  -9   9  -4    5.33    0.44
  -8   8  -4   12.27    1.54
  -8   8  -4    7.77    0.45
   8  -8   4    8.10    0.82
  -7   7  -4   -0.28    0.40
  -7   7  -4   -0.11    0.92
   7  -7   4   -0.76    0.91
  -6   6  -4   12.25    0.66
   6  -6   4   11.88    1.18
  -5   5  -4    4.19    0.46
   5  -5   4    2.84    1.14
  -4   4  -4   -0.02    0.28
   4  -4   4    0.15    0.44
  -3   3  -4   17.44    0.93
   3  -3   4   16.26    1.25
  -2   2  -4   54.14    1.97
   2  -2   4   54.83    2.51
  -1   1  -4    0.67    0.47
   1  -1   4    1.02    1.00
   0   0  -4   57.12    2.26
   0   0   4   58.04    2.78
   1  -1  -4    1.05    0.54
  -1   1   4    0.47    0.71
   2  -2  -4   53.98    2.30
  -2   2   4   55.31    2.85
  -3   3   4   14.33    2.22
   4  -4  -4    0.32    0.51
  -4   4   4   -0.81    0.66
   5  -5  -4    3.43    0.80
  -5   5   4    3.20    1.09
   6  -6  -4   11.51    1.25
  -6   6   4   11.07    1.57
   9  -9  -4    5.37    1.07
  12 -12  -4    1.75    0.56
  13 -13  -4    1.65    0.77
  13 -13  -4   -0.09    0.97
  14 -14  -4    1.12    0.78
  15 -15  -4   -0.08    0.39
  16 -16  -4    6.12    0.71
  17 -17  -4    2.18    0.56
 -17  17   4   -0.07    1.70
 -17  19  -4   -0.15    1.07
 -16  18  -4    1.58    2.13
 -15  17  -4   -0.01    0.89
 -14  16  -4    4.81    1.56
 -13  15  -4   15.27    3.08
 -12  14  -4   50.38    3.54
 -11  13  -4    0.86    1.08
 -10  12  -4   10.08    1.69
  -9  11  -4   -0.90    1.05
  -8  10  -4    5.13    0.23
  -8  10  -4    5.41    2.03
   8 -10   4    4.23    0.34
  -7   9  -4    1.61    0.33
  -7   9  -4    2.45    1.00
   7  -9   4   -0.48    0.40
  -6   8  -4    8.20    2.11
  -6   8  -4    4.80    0.57
   6  -8   4    6.43    0.79
  -5   7  -4   24.76    2.02
  -5   7  -4   20.33    0.81
   5  -7   4   18.48    1.18
  -4   6  -4    1.14    0.92
  -4   6  -4    0.73    0.52
   4  -6   4    1.31    0.81
  -3   5  -4    2.16    0.40
   3  -5   4    1.82    0.59
  -2   4  -4    6.09    0.60
   2  -4   4    6.98    0.86
  -1   3  -4   19.43    1.03
   1  -3   4   19.27    1.29
   0   2  -4   57.11    2.13
   0  -2   4   62.48    3.32
   1   1  -4    0.64    0.47
  -1  -1   4    0.34    0.62
   2   0  -4   57.73    2.34
  -2   0   4   57.24    3.48
   3  -1  -4   29.68    1.59
  -3   1   4   29.92    1.91
  -4   2   4   12.26    1.39
   5  -3  -4    2.54    0.72
   6  -4  -4    1.10    0.64
  -6   4   4    0.33    0.83
   7  -5  -4   -0.12    0.62
  -7   5   4    1.48    0.81
   8  -6  -4   24.28    1.66
  -8   6   4   25.41    2.15
  12 -10  -4    0.18    0.46
  12 -10  -4    9.32    0.98
  13 -11  -4    4.15    0.56
  14 -12  -4   -0.27    0.36
  15 -13  -4    0.27    0.55
  16 -14  -4    0.47    0.38
  17 -15  -4    0.44    0.36
 -16  20  -4    5.35    2.74
 -15  19  -4    0.27    1.11
 -14  18  -4    2.74    1.46
 -13  17  -4    0.21    0.95
 -12  16  -4   24.39    2.44
 -11  15  -4    1.43    1.84
 -10  14  -4   63.02    3.87
  -9  13  -4    2.66    1.23
  -8  12  -4   12.82    2.68
  -7  11  -4    1.98    1.10
  -6  10  -4    0.54    0.76
   6 -10   4    0.00    0.15
  -5   9  -4    0.83    0.98
  -5   9  -4    1.06    0.27
   5  -9   4    0.74    0.45
  -4   8  -4    2.71    0.37
  -4   8  -4    2.97    1.09
   4  -8   4    2.09    0.53
  -3   7  -4    2.57    0.66
  -3   7  -4    6.05    1.72
   3  -7   4    3.22    0.57
  -2   6  -4    2.26    0.94
  -2   6  -4    1.58    0.42
   2  -6   4    2.18    0.55
  -1   5  -4   15.29    1.35
  -1   5  -4    9.75    1.03
   1  -5   4    9.04    0.93
   0   4  -4   53.66    2.44
   0  -4   4   56.17    2.40
   1   3  -4   28.74    1.34
  -1  -3   4   26.48    2.20
   2   2  -4   54.09    2.09
  -2  -2   4   54.65    2.56
   3   1  -4   21.55    1.24
   4   0  -4   52.39    2.26
  -4   0   4   51.64    2.70
  -5   1   4   11.34    1.32
   7  -3  -4    3.29    0.85
   8  -4  -4   19.49    1.50
   9  -5  -4    0.21    0.63
  10  -6  -4   27.48    1.93
  13  -9  -4    3.73    0.46
  14 -10  -4    4.95    0.73
  14 -10  -4    6.48    1.30
  15 -11  -4    6.47    0.77
  16 -12  -4    0.82    0.31
  17 -13  -4    4.13    0.58
 -16  22  -4    0.56    1.29
 -15  21  -4   -0.69    1.20
 -14  20  -4    3.63    2.45
 -13  19  -4    9.52    1.88
 -12  18  -4   11.12    1.86
 -11  17  -4    0.57    1.66
 -10  16  -4   28.88    2.68
  -9  15  -4    6.26    1.51
  -8  14  -4    2.23    1.90
  -7  13  -4   -0.12    0.82
  -6  12  -4    9.14    1.52
  -5  11  -4    5.88    1.27
   5 -11   4    4.49    0.59
  -4  10  -4   -0.21    0.85
   4 -10   4    0.50    0.30
  -3   9  -4    3.70    1.13
   3  -9   4    2.32    0.74
  -2   8  -4   29.38    1.09
  -2   8  -4   28.11    2.08
   2  -8   4   24.90    1.28
  -1   7  -4    1.67    0.91
  -1   7  -4    2.89    0.66
   1  -7   4    1.29    0.52
   0   6  -4   47.71    1.78
   0   6  -4   54.06    3.54
   0  -6   4   46.23    1.99
   1   5  -4   16.96    1.40
   1   5  -4   15.87    0.93
  -1  -5   4   13.38    1.08
   2   4  -4   13.02    1.41
   2   4  -4   16.11    1.35
  -2  -4   4   14.41    1.65
   3   3  -4   18.28    1.62
  -3  -3   4   17.57    1.34
   4   2  -4    5.70    1.18
  -4  -2   4    4.40    1.37
   5   1  -4    9.69    0.99
  -5  -1   4   10.46    1.18
   6   0  -4   46.02    2.14
  -6   0   4   45.66    2.54
  -7   1   4    0.65    0.75
   9  -3  -4    1.61    0.87
  10  -4  -4    8.06    1.21
  11  -5  -4    1.37    0.87
  12  -6  -4   23.08    1.85
  14  -8  -4    8.03    0.44
  15  -9  -4    5.64    1.35
  16 -10  -4   -0.01    0.78
  16 -10  -4   -0.05    0.13
  17 -11  -4    4.66    0.31
 -18  12   4    0.66    1.32
 -19  13   4    2.48    1.69
 -20  14   4    5.07    3.09
 -14  22  -4   -1.28    1.36
 -13  21  -4    0.37    1.10
 -12  20  -4    0.63    1.13
 -11  19  -4    0.99    1.15
 -10  18  -4   10.16    1.79
  -9  17  -4    0.95    1.06
  -8  16  -4   30.05    2.55
  -7  15  -4    5.26    1.40
  -6  14  -4   10.88    1.61
  -5  13  -4    2.03    1.65
  -4  12  -4   25.30    2.10
   4 -12   4   21.22    0.87
   4 -12   4   23.77    0.75
  -3  11  -4   12.23    1.62
  -2  10  -4   26.56    2.85
   2 -10   4   20.27    1.26
  -1   9  -4   23.93    1.90
   1  -9   4   20.27    1.05
   0   8  -4   36.13    2.21
   0  -8   4   31.15    1.84
   1   7  -4    0.84    1.06
   1   7  -4   -0.17    0.38
  -1  -7   4    0.54    0.43
   2   6  -4    1.19    0.74
   2   6  -4    1.75    0.50
  -2  -6   4    0.72    0.54
   3   5  -4    1.92    0.58
   3   5  -4    1.38    0.76
  -3  -5   4    3.15    0.98
   4   4  -4    1.64    0.82
   4   4  -4    1.38    0.95
  -4  -4   4   -0.11    0.57
   5   3  -4    3.03    1.13
   5   3  -4    3.91    0.76
  -5  -3   4    4.49    1.29
   6   2  -4    0.79    0.70
   6   2  -4    2.71    0.61
  -6  -2   4    2.41    0.77
   7   1  -4    1.48    0.74
   7   1  -4    2.24    0.56
  -7  -1   4    1.96    0.84
   8   0  -4   33.90    1.92
  -8   0   4   30.55    2.13
  -9   1   4    1.94    0.94
  10  -2  -4   63.97    3.95
 -10   2   4   58.22    3.40
  11  -3  -4   -0.35    1.05
 -11   3   4   -0.02    0.78
  12  -4  -4   26.96    2.04
 -12   4   4   28.50    2.39
  13  -5  -4    1.04    0.93
 -13   5   4    2.16    1.11
  14  -6  -4   21.05    1.99
 -14   6   4   18.99    2.22
  15  -7  -4    0.64    0.83
  15  -7  -4    0.14    0.14
 -15   7   4    1.05    0.97
  16  -8  -4    1.10    0.71
  16  -8  -4   -0.01    0.08
 -16   8   4   -0.34    0.88
  17  -9  -4    0.21    0.98
 -17   9   4    2.10    1.23
 -18  10   4    3.48    2.52
 -19  11   4   -1.41    1.48
 -20  12   4    3.41    1.83
 -21  13   4    1.40    1.62
 -22  14   4    4.82    2.17
 -13  23  -4    0.24    1.13
 -12  22  -4    2.71    2.29
 -11  21  -4   -0.63    1.14
 -10  20  -4    7.79    1.69
  -9  19  -4   -0.29    1.52
  -8  18  -4   14.34    1.91
  -7  17  -4    0.78    1.03
  -6  16  -4   11.09    1.70
  -5  15  -4   10.01    1.51
  -4  14  -4   18.72    1.86
  -3  13  -4    3.08    1.02
   3 -13   4    1.69    0.26
   3 -13   4    1.53    0.26
  -2  12  -4    2.85    1.66
   2 -12   4    2.70    0.55
  -1  11  -4    9.82    1.36
   1 -11   4    7.43    0.58
   1 -11   4    8.62    0.63
   0  10  -4   36.61    2.32
   0 -10   4   31.04    1.68
   1   9  -4    0.33    0.78
  -1  -9   4    0.86    0.67
   2   8  -4   11.12    1.75
  -2  -8   4    6.56    1.17
   3   7  -4    1.26    0.82
  -3  -7   4    3.12    0.63
   4   6  -4    1.00    0.71
  -4  -6   4    1.41    0.87
   5   5  -4    6.21    0.87
  -5  -5   4    5.20    0.85
   6   4  -4   -0.01    0.63
   6   4  -4    1.66    0.93
  -6  -4   4    2.46    0.69
   7   3  -4    4.20    0.86
   7   3  -4    3.52    1.05
  -7  -3   4    5.28    1.42
   8   2  -4   25.40    1.28
   8   2  -4   27.51    1.76
  -8  -2   4   29.93    2.55
   9   1  -4   22.15    1.68
   9   1  -4   23.53    1.10
  -9  -1   4   22.64    1.81
  10   0  -4   34.91    1.30
  10   0  -4   32.97    2.10
 -10   0   4   35.54    2.35
  11  -1  -4    1.33    0.91
  11  -1  -4    1.89    0.36
 -11   1   4    2.25    1.01
  12  -2  -4   30.76    0.99
  12  -2  -4   31.44    2.05
 -12   2   4   30.47    2.39
  13  -3  -4    6.95    1.19
  13  -3  -4    5.01    0.48
 -13   3   4    5.83    1.37
  14  -4  -4   -0.27    0.94
 -14   4   4    4.97    1.19
 -15   5   4    0.72    1.70
 -16   6   4   11.13    2.91
 -17   7   4   16.72    2.33
 -18   8   4    1.64    1.38
 -19   9   4    3.99    1.79
 -20  10   4    3.06    1.79
 -21  11   4    0.48    1.37
 -22  12   4    3.10    2.94
 -23  13   4    6.18    2.32
 -12  24  -4    1.30    1.40
 -11  23  -4    1.16    1.27
 -10  22  -4    3.91    2.41
  -9  21  -4    1.27    1.23
  -8  20  -4    3.96    1.37
  -7  19  -4    0.59    0.98
  -6  18  -4   16.88    3.02
  -5  17  -4    0.73    0.96
  -4  16  -4    2.86    1.15
  -3  15  -4    0.95    0.89
  -2  14  -4    4.01    1.73
   2 -14   4    3.17    0.20
   2 -14   4    4.31    0.35
  -1  13  -4    8.27    1.38
   1 -13   4   10.12    0.84
   0  12  -4   16.20    1.52
   0 -12   4   11.31    0.93
   0 -12   4   13.04    1.07
   1  11  -4    1.61    0.92
  -1 -11   4    1.63    0.51
  -1 -11   4    1.86    0.44
   2  10  -4   63.40    2.96
  -2 -10   4   55.75    2.14
   3   9  -4   -1.09    1.08
  -3  -9   4    0.98    0.68
   4   8  -4   20.95    1.49
  -4  -8   4   17.91    1.23
   5   7  -4    0.00    0.59
  -5  -7   4    1.15    0.81
   6   6  -4   13.10    1.10
  -6  -6   4   12.10    1.13
   7   5  -4   22.44    1.30
  -7  -5   4   20.26    1.52
   8   4  -4    3.43    0.61
  -8  -4   4    2.34    0.87
   9   3  -4    2.62    0.54
  -9  -3   4    3.18    0.93
  10   2  -4   20.36    0.98
 -10  -2   4   19.25    1.74
  11   1  -4    7.52    0.57
 -11  -1   4    8.39    1.32
  12   0  -4   12.99    0.82
 -12   0   4   11.36    1.60
  13  -1  -4    1.56    0.24
 -13   1   4    1.33    1.04
  14  -2  -4    7.94    0.27
 -14   2   4    8.96    1.53
 -15   3   4    0.44    0.97
 -16   4   4   21.48    2.32
 -17   5   4    0.72    1.13
 -18   6   4   26.58    2.78
 -19   7   4    0.84    1.31
 -20   8   4    1.59    2.39
 -21   9   4    0.15    1.23
 -22  10   4    0.94    1.48
 -23  11   4    3.33    2.02
 -24  12   4    2.82    2.01
 -11  25  -4    0.86    2.10
 -10  24  -4    3.22    1.56
  -9  23  -4   -0.86    1.19
  -8  22  -4    3.17    1.35
  -7  21  -4    6.32    2.37
  -6  20  -4   -0.29    0.91
  -5  19  -4   -0.59    0.96
  -4  18  -4    8.63    1.49
  -3  17  -4    0.56    0.86
  -2  16  -4    8.49    2.20
  -1  15  -4    3.15    0.98
   1 -15   4    2.61    0.28
   1 -15   4    2.23    0.31
   0  14  -4   25.72    1.96
   0 -14   4   23.25    1.38
   1  13  -4    1.39    0.89
  -1 -13   4    0.82    0.75
  -1 -13   4    1.84    0.39
   2  12  -4   34.01    2.05
  -2 -12   4   29.25    1.31
  -2 -12   4   33.53    1.94
   3  11  -4   -0.16    0.89
  -3 -11   4   -0.15    0.40
  -3 -11   4    0.15    0.34
   4  10  -4   11.71    1.80
  -4 -10   4    8.69    1.20
   5   9  -4   -0.23    0.53
  -5  -9   4    0.17    0.41
   6   8  -4   26.15    1.58
  -6  -8   4   24.48    1.52
   7   7  -4   -0.14    0.51
  -7  -7   4   -0.45    0.81
   8   6  -4    5.54    0.75
  -8  -6   4    4.16    0.92
   9   5  -4    1.70    0.55
  -9  -5   4    2.83    0.83
  10   4  -4   -1.39    0.63
 -10  -4   4    0.55    0.69
  11   3  -4    9.95    0.97
 -11  -3   4   10.03    1.34
  12   2  -4    2.86    0.38
 -12  -2   4    2.51    1.01
  13   1  -4    8.45    0.42
 -13  -1   4    9.27    1.43
  14   0  -4   21.60    0.67
 -14   0   4   24.45    2.08
 -15   1   4    6.40    1.40
 -16   2   4   17.78    2.15
 -17   3   4   -0.08    1.38
 -18   4   4   13.30    3.07
 -19   5   4    2.94    1.56
 -20   6   4    9.34    2.09
 -21   7   4    4.12    1.79
 -22   8   4    9.20    2.21
 -23   9   4   -1.24    2.42
 -24  10   4    2.36    1.88
 -25  11   4   -0.92    1.74
  -9  25  -4   -1.36    1.38
  -8  24  -4    7.24    2.67
  -7  23  -4    1.03    1.10
  -6  22  -4   -0.11    0.89
  -5  21  -4    1.54    1.11
  -4  20  -4    2.72    1.18
  -3  19  -4    0.91    1.49
  -2  18  -4    8.96    1.46
  -1  17  -4    2.16    1.02
   0  16  -4   14.52    1.51
   0 -16   4   12.89    0.62
   0 -16   4   11.44    0.95
   1  15  -4    3.56    1.11
  -1 -15   4    6.15    0.62
  -1 -15   4    5.36    0.46
   2  14  -4    8.38    1.20
  -2 -14   4    9.52    0.93
  -2 -14   4    8.30    0.77
   3  13  -4    7.32    1.57
  -3 -13   4    5.42    0.60
  -3 -13   4    3.92    1.10
   4  12  -4   30.94    2.60
  -4 -12   4   29.93    2.07
  -4 -12   4   26.17    1.36
   5  11  -4    2.04    1.19
  -5 -11   4    1.54    0.85
  -5 -11   4    1.33    1.05
   6  10  -4   32.83    1.80
  -6 -10   4   29.14    1.58
  -6 -10   4   31.52    1.87
   7   9  -4    1.60    1.10
  -7  -9   4    2.48    0.66
   8   8  -4    9.40    1.36
  -8  -8   4    8.97    1.04
   9   7  -4    2.10    0.86
  -9  -7   4    1.34    1.19
  10   6  -4    1.00    0.44
 -10  -6   4    1.87    1.12
  11   5  -4    6.61    0.59
 -11  -5   4    4.01    1.64
  12   4  -4   27.30    1.32
 -12  -4   4   25.91    2.74
  13   3  -4    2.28    0.49
 -13  -3   4    3.06    1.50
  14   2  -4    3.81    0.38
 -14  -2   4    4.96    1.77
 -15  -1   4    4.54    1.24
 -16   0   4   14.80    1.90
 -17   1   4    9.63    1.74
 -18   2   4    5.77    1.57
 -19   3   4    0.71    1.14
 -20   4   4   11.41    2.09
 -21   5   4   -0.06    1.58
 -22   6   4    9.21    2.17
 -23   7   4    0.52    1.42
 -24   8   4    8.19    2.43
 -25   9   4    0.49    1.57
  -8  26  -4    3.40    1.61
  -7  25  -4    0.92    1.25
  -6  24  -4   10.42    1.95
  -5  23  -4    2.67    1.29
  -4  22  -4    2.56    1.92
  -3  21  -4   14.89    1.86
  -2  20  -4    1.46    1.05
  -1  19  -4    2.00    1.07
   0  18  -4    6.28    1.24
   1  17  -4    8.20    1.24
  -1 -17   4    7.44    0.66
   2  16  -4   16.93    2.49
  -2 -16   4   20.42    1.18
  -2 -16   4   18.19    1.55
   3  15  -4   -0.09    1.14
  -3 -15   4    0.45    0.55
  -3 -15   4    0.79    0.49
   4  14  -4    3.46    1.50
  -4 -14   4    4.34    1.23
  -4 -14   4    5.26    0.63
   5  13  -4   -0.50    0.62
  -5 -13   4    0.72    0.43
  -5 -13   4    0.60    0.85
   6  12  -4   24.63    1.50
  -6 -12   4   20.71    1.31
  -6 -12   4   25.23    2.20
   7  11  -4    1.24    0.94
  -7 -11   4    0.73    0.84
  -7 -11   4    0.80    0.69
   8  10  -4   23.74    1.95
  -8 -10   4   22.43    1.47
  -8 -10   4   25.91    1.72
   9   9  -4    5.78    1.11
  -9  -9   4    4.89    0.89
  -9  -9   4    3.81    1.10
  10   8  -4    4.86    0.65
 -10  -8   4    6.19    0.94
  11   7  -4    4.64    0.55
 -11  -7   4    2.70    0.96
  12   6  -4    7.87    0.89
 -12  -6   4    7.47    1.19
  13   5  -4    1.97    0.54
 -13  -5   4    2.12    0.93
  14   4  -4   17.91    0.85
 -14  -4   4   17.42    1.76
  15   3  -4    0.12    0.11
 -15  -3   4    0.10    0.77
 -16  -2   4    8.22    1.52
 -17  -1   4    2.06    1.16
 -18   0   4    4.16    2.12
 -19   1   4    2.30    1.98
 -20   2   4   -0.01    0.91
 -21   3   4    3.84    1.67
 -22   4   4    2.46    1.59
 -23   5   4   -0.33    1.28
 -24   6   4    3.67    3.08
 -25   7   4    1.77    1.75
 -26   8   4   15.33    3.11
  -6  26  -4   17.60    3.56
  -5  25  -4   -0.86    1.13
  -4  24  -4   16.51    2.18
  -3  23  -4    1.77    1.17
  -2  22  -4   -1.89    1.13
  -1  21  -4    6.06    1.34
   0  20  -4    4.17    1.90
   1  19  -4    0.10    1.24
  -1 -19   4    0.39    0.25
  -1 -19   4    0.30    0.20
   2  18  -4    1.91    0.80
  -2 -18   4    2.35    0.73
  -2 -18   4   -0.08    0.35
   3  17  -4    0.22    0.73
  -3 -17   4    0.36    0.49
  -3 -17   4    0.49    0.77
   4  16  -4   24.18    1.66
  -4 -16   4   19.10    1.37
  -4 -16   4   19.16    1.34
   5  15  -4    2.42    0.77
  -5 -15   4    1.27    0.50
  -5 -15   4    0.58    1.02
   6  14  -4   16.64    1.39
  -6 -14   4   19.79    1.92
  -6 -14   4   16.90    1.50
   7  13  -4   16.84    1.25
  -7 -13   4   18.75    2.03
  -7 -13   4   13.88    1.10
   8  12  -4   21.11    1.97
  -8 -12   4   23.58    1.47
  -8 -12   4   21.70    1.66
   9  11  -4    1.59    0.95
  -9 -11   4    2.27    1.05
  -9 -11   4    1.43    0.81
  10  10  -4   20.61    1.17
 -10 -10   4   20.43    1.70
  11   9  -4   -0.46    0.41
 -11  -9   4    0.06    0.73
 -11  -9   4   -0.49    0.94
  12   8  -4   13.57    1.18
 -12  -8   4    9.74    1.96
 -12  -8   4   16.33    1.61
  13   7  -4    0.47    0.33
 -13  -7   4    2.02    1.11
 -13  -7   4    0.38    0.88
  14   6  -4    8.72    0.51
 -14  -6   4   11.27    1.98
 -15  -5   4    9.36    2.17
 -16  -4   4    2.65    1.13
 -17  -3   4    1.14    1.03
 -18  -2   4   13.56    1.88
 -19  -1   4    3.09    1.36
 -20   0   4    3.05    1.40
 -21   1   4    4.53    1.62
 -22   2   4    0.27    1.79
 -23   3   4    0.15    1.13
 -24   4   4   10.83    2.42
 -25   5   4    2.45    1.81
 -26   6   4   25.00    5.10
  -4  26  -4   10.56    1.90
  -3  25  -4    0.74    1.09
  -2  24  -4    2.72    2.01
  -1  23  -4    2.36    1.86
   0  22  -4    2.91    1.14
   1  21  -4    4.88    1.24
   2  20  -4   -0.88    0.68
  -2 -20   4    0.38    0.33
  -2 -20   4   -0.06    0.16
   3  19  -4    1.42    0.67
  -3 -19   4   -0.58    0.40
  -3 -19   4   -0.06    0.38
   4  18  -4    9.85    1.40
  -4 -18   4   12.02    1.18
  -4 -18   4   10.60    0.74
   5  17  -4    0.67    0.77
  -5 -17   4    0.67    0.97
  -5 -17   4    0.74    0.64
   6  16  -4   10.94    1.24
  -6 -16   4    9.35    1.15
  -6 -16   4   11.51    0.90
   7  15  -4   -1.22    0.60
  -7 -15   4    0.94    0.73
  -7 -15   4   -0.33    0.63
   8  14  -4   28.17    1.69
  -8 -14   4   24.35    2.54
  -8 -14   4   26.72    2.03
   9  13  -4    2.96    1.10
  -9 -13   4    2.24    0.70
  -9 -13   4    1.40    1.42
  10  12  -4    4.83    1.25
 -10 -12   4    7.25    0.96
 -10 -12   4    7.66    1.17
  11  11  -4   14.27    1.02
 -11 -11   4   18.48    2.40
 -11 -11   4   14.63    1.34
  12  10  -4    7.69    1.10
 -12 -10   4    6.49    1.11
 -12 -10   4   10.64    1.30
  13   9  -4    2.60    0.49
 -13  -9   4    2.53    0.91
 -13  -9   4    2.72    1.06
  14   8  -4    1.69    0.63
 -14  -8   4    2.50    0.91
 -14  -8   4    3.31    1.68
 -15  -7   4    1.96    0.99
 -15  -7   4    2.77    1.14
 -16  -6   4   13.16    1.65
 -16  -6   4   16.03    1.87
 -17  -5   4    1.38    0.94
 -17  -5   4    0.96    1.12
 -18  -4   4   10.71    1.93
 -18  -4   4   16.03    2.58
 -19  -3   4   -0.01    0.90
 -20  -2   4    4.08    1.39
 -20  -2   4    1.17    1.49
 -21  -1   4    9.05    1.79
 -21  -1   4    7.45    1.95
 -22   0   4    1.82    1.19
 -22   0   4   -0.96    1.24
 -23   1   4    5.38    1.78
 -23   1   4    5.25    1.87
 -24   2   4   13.43    3.74
 -24   2   4   14.67    2.52
 -25   3   4    2.84    1.88
 -25   3   4    4.41    1.89
 -26   4   4    6.79    2.20
 -26   4   4    6.00    2.30
  -3  27  -4    5.00    2.59
  -2  26  -4    8.53    1.86
  -1  25  -4    1.44    1.14
   0  24  -4    4.58    1.36
   1  23  -4    6.03    1.33
   2  22  -4    1.20    0.97
   3  21  -4    5.53    1.11
  -3 -21   4    2.37    0.69
   4  20  -4    9.24    1.31
  -4 -20   4    8.84    1.38
  -4 -20   4    7.73    0.62
   5  19  -4    1.31    0.75
  -5 -19   4    0.44    1.06
  -5 -19   4    0.17    0.60
   6  18  -4   20.16    1.65
  -6 -18   4   19.97    1.18
  -6 -18   4   21.65    1.73
   7  17  -4   17.86    1.48
  -7 -17   4   13.12    1.51
  -7 -17   4   18.53    1.59
   8  16  -4    0.61    0.57
  -8 -16   4    0.30    0.65
  -8 -16   4   -0.26    0.44
   9  15  -4    5.64    0.90
  -9 -15   4    4.41    1.12
  -9 -15   4    5.85    0.84
  10  14  -4    2.71    0.76
 -10 -14   4    4.40    1.61
 -10 -14   4    4.23    0.79
  11  13  -4    3.27    1.16
 -11 -13   4    6.65    1.15
 -11 -13   4    4.30    1.38
  12  12  -4    2.81    0.64
 -12 -12   4    3.12    1.35
 -12 -12   4    4.27    1.06
  13  11  -4   -0.46    0.63
 -13 -11   4    1.60    0.83
 -13 -11   4    0.56    1.05
  14  10  -4   57.04    2.07
 -14 -10   4   59.87    3.95
 -14 -10   4   50.79    4.40
 -15  -9   4    7.01    1.76
 -15  -9   4    4.23    1.30
 -16  -8   4   24.92    2.10
 -16  -8   4   27.60    2.33
 -17  -7   4    1.46    0.96
 -17  -7   4    0.84    1.11
 -18  -6   4   14.18    1.87
 -18  -6   4   20.11    3.10
 -19  -5   4    0.17    0.92
 -19  -5   4   -1.85    1.63
 -20  -4   4    2.13    1.23
 -20  -4   4    1.60    1.32
 -21  -3   4   13.65    2.22
 -21  -3   4   15.33    2.11
 -22  -2   4    1.69    1.57
 -22  -2   4   -0.92    1.06
 -23  -1   4    2.36    1.50
 -23  -1   4    2.60    1.53
 -24   0   4    5.63    1.90
 -24   0   4    4.92    1.89
 -25   1   4    0.80    1.33
 -25   1   4   -0.14    1.34
 -26   2   4   -0.15    1.46
 -26   2   4   -1.58    1.55
 -27   3   4    2.98    2.87
 -27   3   4    1.99    1.87
  -1  27  -4   -0.36    1.09
   0  26  -4    2.69    1.35
   1  25  -4   -1.15    1.70
   2  24  -4    6.39    2.23
   3  23  -4   -1.20    1.52
   4  22  -4   -0.02    1.06
   5  21  -4   -0.01    1.20
  -5 -21   4    0.46    0.34
  -5 -21   4   -0.24    0.86
   6  20  -4    0.01    1.47
  -6 -20   4    4.67    0.81
  -6 -20   4    0.13    0.91
   7  19  -4    0.55    1.05
  -7 -19   4    0.81    1.25
  -7 -19   4    0.08    0.42
   8  18  -4    1.72    1.21
  -8 -18   4    0.26    1.55
  -8 -18   4    1.57    0.58
   9  17  -4    3.13    0.77
  -9 -17   4    1.14    1.56
  -9 -17   4    0.11    1.00
  10  16  -4   -0.26    0.58
 -10 -16   4    0.01    0.85
 -10 -16   4   -0.91    0.83
  11  15  -4    6.55    0.94
 -11 -15   4    8.28    1.38
 -11 -15   4    9.64    1.02
  12  14  -4   -0.10    0.77
 -12 -14   4   -1.19    1.32
 -12 -14   4    0.68    0.57
  13  13  -4    0.35    0.48
 -13 -13   4   -1.32    0.86
 -13 -13   4    0.99    0.63
 -14 -12   4   45.90    2.61
 -14 -12   4   49.05    4.41
 -15 -11   4    2.19    0.89
 -15 -11   4    1.31    1.12
 -16 -10   4   28.86    2.15
 -16 -10   4   33.27    2.75
 -17  -9   4    1.19    1.02
 -17  -9   4    4.69    1.31
 -18  -8   4   13.76    2.63
 -18  -8   4   16.20    3.05
 -19  -7   4    1.71    1.34
 -19  -7   4   -1.11    0.97
 -20  -6   4   -0.68    1.02
 -20  -6   4    1.90    1.09
 -21  -5   4    1.46    1.21
 -21  -5   4    1.65    1.38
 -22  -4   4    0.42    1.09
 -22  -4   4    0.76    1.23
 -23  -3   4    0.55    1.37
 -23  -3   4    1.38    1.25
 -24  -2   4    0.60    2.16
 -24  -2   4    2.00    1.53
 -25  -1   4    2.93    1.66
 -25  -1   4    2.10    1.66
 -26   0   4    5.16    1.97
 -26   0   4    5.01    2.12
 -27   1   4    1.04    1.64
 -27   1   4    2.01    1.72
   1  27  -4    0.57    1.12
   2  26  -4    2.16    1.25
   3  25  -4    3.12    1.28
   4  24  -4   10.04    1.59
   5  23  -4    0.04    0.72
   6  22  -4    9.65    1.34
  -6 -22   4    8.85    1.07
  -6 -22   4    6.74    1.03
   7  21  -4   -0.09    0.81
  -7 -21   4    0.52    1.30
  -7 -21   4    1.50    0.49
   8  20  -4    0.04    0.85
  -8 -20   4    0.24    0.99
  -8 -20   4    4.40    0.91
   9  19  -4    3.29    1.42
  -9 -19   4    0.10    1.22
  -9 -19   4    5.18    0.71
  10  18  -4    1.57    1.11
 -10 -18   4    0.91    0.62
 -10 -18   4    1.60    1.04
  11  17  -4    5.59    0.90
 -11 -17   4    4.24    2.10
 -11 -17   4    5.42    0.88
  12  16  -4    0.99    0.63
 -12 -16   4    1.67    1.10
 -12 -16   4    1.62    0.71
  13  15  -4   -0.31    0.44
 -13 -15   4   -0.39    0.80
 -13 -15   4    0.53    0.56
 -14 -14   4    1.50    1.12
 -14 -14   4    1.00    0.77
 -15 -13   4   11.87    1.74
 -15 -13   4    9.36    1.30
 -16 -12   4   20.81    2.25
 -16 -12   4   19.79    1.79
 -17 -11   4    0.70    1.86
 -17 -11   4    1.21    0.90
 -18 -10   4    9.78    1.57
 -18 -10   4   10.33    1.88
 -19  -9   4   -0.15    0.94
 -19  -9   4   -1.65    1.16
 -20  -8   4    1.40    1.23
 -20  -8   4    5.40    1.52
 -21  -7   4    4.25    2.11
 -21  -7   4    3.83    1.67
 -22  -6   4   -0.78    1.09
 -22  -6   4    0.47    1.98
 -23  -5   4   -0.48    1.09
 -23  -5   4    3.20    1.94
 -24  -4   4   13.83    2.27
 -24  -4   4   14.96    3.86
 -25  -3   4    1.21    1.44
 -25  -3   4    1.39    1.49
 -26  -2   4    7.27    3.42
 -26  -2   4   10.67    2.32
 -27  -1   4   -0.72    1.54
 -27  -1   4    3.02    1.62
   3  27  -4   -1.13    1.29
   4  26  -4   -0.05    0.93
   5  25  -4    0.14    0.88
   6  24  -4    9.17    1.50
   7  23  -4   -0.16    0.69
  -7 -23   4    0.28    0.34
  -7 -23   4   -0.82    0.56
   8  22  -4    0.03    1.12
  -8 -22   4    7.44    1.13
  -8 -22   4    4.06    1.00
   9  21  -4    0.04    0.75
  -9 -21   4    0.69    0.92
  -9 -21   4    0.96    0.54
  10  20  -4    1.38    0.81
 -10 -20   4    0.94    1.14
 -10 -20   4    2.15    0.67
  11  19  -4    0.51    0.66
 -11 -19   4    0.34    1.04
 -11 -19   4    0.97    0.62
  12  18  -4    0.12    0.59
 -12 -18   4    1.17    1.04
 -12 -18   4    1.28    0.98
 -13 -17   4    3.64    1.46
 -13 -17   4    6.94    2.26
 -14 -16   4    0.00    1.11
 -14 -16   4   -1.36    1.14
 -15 -15   4   -0.64    1.78
 -15 -15   4    1.47    1.18
 -16 -14   4    5.75    1.54
 -16 -14   4    3.57    1.67
 -17 -13   4   -1.74    1.70
 -17 -13   4   -0.07    0.79
 -18 -12   4   10.67    1.89
 -18 -12   4    9.25    1.47
 -19 -11   4    0.21    1.25
 -19 -11   4    1.08    0.95
 -20 -10   4   10.56    2.15
 -20 -10   4   10.76    1.70
 -21  -9   4    0.91    1.13
 -21  -9   4    1.75    2.06
 -22  -8   4    1.43    1.07
 -22  -8   4   -0.44    1.34
 -23  -7   4    0.80    1.82
 -23  -7   4    1.14    1.38
 -24  -6   4   11.15    3.24
 -24  -6   4   13.01    2.52
 -25  -5   4    0.20    1.42
 -25  -5   4    3.63    1.69
 -26  -4   4    9.93    2.19
 -26  -4   4   11.21    2.60
 -27  -3   4    3.27    1.70
 -27  -3   4    2.05    2.00
   6  26  -4   28.88    2.87
   7  25  -4    0.21    0.99
   8  24  -4   -0.02    0.83
   9  23  -4   -0.01    0.78
  -9 -23   4    0.10    0.78
  -9 -23   4   -0.27    0.44
 -10 -22   4    0.61    0.95
 -10 -22   4   -0.64    0.52
 -11 -21   4   -0.03    1.01
 -11 -21   4    0.85    0.88
 -12 -20   4    0.27    1.67
 -12 -20   4    1.29    1.04
 -13 -19   4    1.61    1.23
 -13 -19   4    1.39    1.13
 -14 -18   4   13.96    1.95
 -14 -18   4    8.24    1.21
 -15 -17   4    0.57    1.76
 -15 -17   4   -0.68    0.71
 -16 -16   4    7.20    1.77
 -16 -16   4    5.41    1.16
 -17 -15   4    1.41    1.74
 -17 -15   4    0.10    0.74
 -18 -14   4    4.20    1.61
 -18 -14   4    3.29    1.76
 -19 -13   4   10.85    1.86
 -19 -13   4   -0.06    2.11
 -20 -12   4   -0.24    1.75
 -20 -12   4    0.04    1.21
 -21 -11   4    3.76    1.42
 -21 -11   4   -0.15    1.07
 -22 -10   4    4.42    1.97
 -22 -10   4    5.50    1.49
 -23  -9   4    1.00    1.14
 -23  -9   4    0.81    1.49
 -24  -8   4    4.59    2.19
 -24  -8   4    6.41    1.73
 -25  -7   4    0.45    2.42
 -25  -7   4    0.40    1.79
 -26  -6   4    9.26    4.45
 -26  -6   4   12.83    3.49
 -10 -24   4    0.08    1.52
 -10 -24   4    0.92    0.57
 -11 -23   4    0.91    1.96
 -11 -23   4    2.18    1.06
 -12 -22   4    0.07    1.30
 -12 -22   4    1.65    0.70
 -13 -21   4    0.08    1.20
 -13 -21   4    1.23    0.70
 -14 -20   4    0.12    1.08
 -14 -20   4    0.53    0.68
 -15 -19   4    0.08    1.50
 -15 -19   4    0.01    0.60
 -16 -18   4    5.64    1.84
 -16 -18   4    6.73    1.19
 -17 -17   4    4.26    2.45
 -17 -17   4    2.12    1.00
 -18 -16   4    2.41    1.51
 -18 -16   4    2.10    1.05
 -19 -15   4    1.20    1.19
 -19 -15   4   -0.36    0.78
 -20 -14   4    3.06    2.19
 -20 -14   4    0.37    1.00
 -21 -13   4    1.77    1.51
 -21 -13   4    0.38    1.63
 -22 -12   4    2.49    1.66
 -22 -12   4    0.55    1.87
 -23 -11   4    1.85    1.47
 -23 -11   4   -0.25    1.05
 -24 -10   4    4.68    2.97
 -24 -10   4    2.48    1.41
 -25  -9   4    0.73    1.86
 -25  -9   4    2.60    1.41
 -26  -8   4    2.86    2.01
 -26  -8   4    1.89    1.52
 -11 -25   4   -0.35    0.92
 -11 -25   4   -0.19    0.80
 -12 -24   4    0.95    1.09
 -12 -24   4    0.13    0.60
 -13 -23   4    1.35    1.60
 -13 -23   4    3.13    0.87
 -14 -22   4    4.09    0.98
 -14 -22   4    0.09    2.60
 -15 -21   4   -0.87    1.25
 -15 -21   4   -0.12    0.70
 -16 -20   4    6.29    1.96
 -16 -20   4    7.17    1.22
 -17 -19   4   -0.16    1.96
 -17 -19   4    0.41    0.78
 -18 -18   4    8.97    2.12
 -18 -18   4    7.96    1.42
 -19 -17   4    2.11    1.43
 -19 -17   4    0.14    0.91
 -20 -16   4   -0.01    1.05
 -20 -16   4    4.10    1.53
 -21 -15   4   -0.83    1.36
 -21 -15   4   -0.04    0.94
 -22 -14   4   -3.08    1.68
 -22 -14   4   -0.31    1.11
 -23 -13   4    2.29    2.34
 -23 -13   4   -0.36    1.58
 -24 -12   4    2.55    1.92
 -24 -12   4    2.63    2.17
 -25 -11   4    1.43    1.72
 -25 -11   4    0.60    1.24
 -16 -22   4   -0.53    1.70
 -16 -22   4    2.53    0.95
 -17 -21   4   -0.18    1.43
 -17 -21   4    0.56    0.78
 -18 -20   4    5.77    1.71
 -18 -20   4    0.26    1.01
 -19 -19   4    0.87    2.08
 -19 -19   4   -0.32    0.80
 -20 -18   4   -2.27    1.43
 -20 -18   4    0.33    0.93
 -21 -17   4    2.36    1.51
 -21 -17   4   -0.29    0.97
 -22 -16   4    1.55    2.29
 -22 -16   4    0.24    1.01
 -21 -10  -5    6.57    2.04
  21  10   5   -0.02    2.71
 -20 -11  -5    6.76    1.97
  20  11   5   -0.10    2.66
 -19 -12  -5    0.71    2.04
  19  12   5    0.20    2.03
 -18 -13  -5    2.28    1.55
  18  13   5    0.15    2.52
 -17 -14  -5    5.85    1.82
  17  14   5    3.11    3.27
 -16 -15  -5    6.06    1.78
  16  15   5    0.76    3.37
 -15 -16  -5    3.11    2.65
  15  16   5    7.95    5.15
 -14 -17  -5    8.21    2.10
  14  17   5    9.91    4.00
 -13 -18  -5    0.90    1.47
  13  18   5    0.44    2.73
 -12 -19  -5    7.93    2.36
  12  19   5    6.32    6.40
 -11 -20  -5    0.06    1.83
  11  20   5    6.87    3.09
 -10 -21  -5    4.15    2.19
  10  21   5    3.22    3.74
 -22  -7  -5    2.32    1.54
  22   7   5    0.04    1.84
 -21  -8  -5    3.59    1.68
  21   8   5   -0.01    3.55
 -20  -9  -5    0.92    1.35
  20   9   5    0.07    1.90
 -19 -10  -5    5.27    2.51
  19  10   5   -0.06    2.42
 -18 -11  -5    9.00    1.87
  18  11   5    0.05    2.92
 -17 -12  -5    9.05    1.86
  17  12   5    0.05    3.25
 -16 -13  -5    7.44    1.86
  16  13   5    3.42    3.23
 -15 -14  -5    5.91    1.78
  15  14   5    7.42    5.43
 -14 -15  -5    1.56    1.42
  14  15   5    7.73    3.08
 -13 -16  -5   -0.69    1.14
  13  16   5    0.70    2.33
 -12 -17  -5    6.97    1.95
  12  17   5    5.44    3.66
 -11 -18  -5    1.65    2.68
  11  18   5    5.73    3.29
 -10 -19  -5    3.30    1.81
  10  19   5    1.33    3.22
  -9 -20  -5    9.97    2.54
   9  20   5    4.27    6.29
  -8 -21  -5   12.48    3.94
   8  21   5    8.49    4.20
  -7 -22  -5    3.69    2.06
   7  22   5    0.96    3.22
 -23  -4  -5    0.10    1.10
 -22  -5  -5    0.24    1.10
  22   5   5   -0.05    2.20
 -21  -6  -5    3.48    1.49
  21   6   5    0.04    1.91
 -20  -7  -5    2.18    1.34
  20   7   5    0.10    1.87
 -19  -8  -5   14.11    3.02
  19   8   5   -0.06    4.34
 -18  -9  -5    9.18    2.53
  18   9   5    0.27    2.56
 -17 -10  -5    5.95    1.64
  17  10   5   -0.18    4.39
 -16 -11  -5    9.10    1.78
  16  11   5   -0.19    3.04
 -15 -12  -5   23.63    2.62
  15  12   5   31.39    7.08
 -14 -13  -5    5.61    2.56
  14  13   5    7.71    3.27
 -13 -14  -5    3.48    1.43
  13  14   5    1.67    2.85
 -12 -15  -5   -0.30    1.16
  12  15   5    3.25    2.16
 -11 -16  -5   -0.11    1.91
  11  16   5   -1.38    2.36
 -10 -17  -5    6.79    1.92
  10  17   5    6.24    5.35
  -9 -18  -5    2.03    1.65
   9  18   5    4.39    2.83
  -8 -19  -5   12.01    2.45
   8  19   5    9.23    4.00
  -7 -20  -5    4.12    1.83
   7  20   5    2.48    3.28
  -6 -21  -5   13.20    2.62
   6  21   5    6.69    6.37
  -5 -22  -5    2.94    2.60
   5  22   5   -0.32    2.63
 -23  -2  -5    3.59    1.54
  23   2   5    5.07    2.55
 -22  -3  -5    3.73    1.39
  22   3   5   -0.06    1.61
 -21  -4  -5    1.26    1.16
  21   4   5   -0.06    1.52
 -20  -5  -5    1.53    1.20
  20   5   5   -0.14    2.63
 -19  -6  -5    2.44    1.87
  19   6   5    0.00    1.76
 -18  -7  -5    9.68    1.64
  18   7   5    0.30    2.57
 -17  -8  -5    7.65    1.64
  17   8   5    0.16    3.83
 -16  -9  -5   21.66    2.41
  16   9   5   23.15    3.89
 -15 -10  -5   16.23    2.07
  15  10   5   -0.19    5.30
 -14 -11  -5   12.57    2.87
  14  11   5   10.95    3.62
 -13 -12  -5   19.91    2.28
  13  12   5   19.76    6.41
 -12 -13  -5    0.91    1.24
  12  13   5    6.34    2.48
 -11 -14  -5    1.57    1.14
  11  14   5   -2.16    2.14
 -10 -15  -5    0.77    1.20
  10  15   5    3.22    3.63
  -9 -16  -5    0.66    1.26
   9  16   5    2.47    2.27
  -8 -17  -5   -0.51    1.15
   8  17   5    0.51    1.98
  -7 -18  -5    4.49    1.70
   7  18   5    0.40    4.38
  -6 -19  -5    3.58    1.62
   6  19   5    0.46    2.65
  -5 -20  -5    9.92    3.09
   5  20   5    0.54    3.13
  -4 -21  -5    5.61    1.85
   4  21   5   -0.10    2.99
  -3 -22  -5    2.79    1.70
   3  22   5    0.22    2.62
  -2 -23  -5   10.50    3.45
   2  23   5   -0.69    5.32
 -23   0  -5    3.11    1.34
  23   0   5    2.15    1.48
 -22  -1  -5    8.69    1.65
  22   1   5    3.24    2.90
 -21  -2  -5   -0.37    1.00
  21   2   5   -0.54    1.89
 -20  -3  -5   14.85    2.74
  20   3   5    7.62    2.35
 -19  -4  -5    2.29    1.84
  19   4   5    2.46    1.76
 -18  -5  -5    6.70    1.48
  18   5   5    6.16    3.55
 -17  -6  -5   10.51    1.68
  17   6   5    7.87    2.58
 -16  -7  -5    5.13    1.36
  16   7   5    4.43    2.39
 -15  -8  -5    5.34    1.44
  15   8   5    8.21    3.93
 -14  -9  -5   16.34    2.87
  14   9   5   20.90    3.72
 -13 -10  -5   16.90    1.95
  13  10   5    0.21    5.66
 -12 -11  -5    3.73    1.33
  12  11   5    2.95    2.62
 -11 -12  -5    2.74    1.36
  11  12   5    4.31    2.63
 -10 -13  -5    0.10    0.98
  10  13   5   -1.86    1.83
  -9 -14  -5    1.70    1.20
   9  14   5    0.39    2.23
  -8 -15  -5   -1.32    1.20
   8  15   5   -1.64    3.34
  -7 -16  -5   19.98    2.50
   7  16   5   20.32    3.92
  -6 -17  -5    0.33    1.10
   6  17   5    0.26    1.87
  -5 -18  -5   26.27    2.83
   5  18   5   21.97    4.34
  -4 -19  -5   12.58    2.13
   4  19   5    0.13    5.01
  -3 -20  -5   -0.08    1.09
   3  20   5    0.44    1.64
  -2 -21  -5    4.29    1.69
   2  21   5    0.06    2.57
  -1 -22  -5    1.60    1.49
   1  22   5    0.30    2.24
   0 -23  -5    3.95    1.72
   0  23   5    0.06    2.64
 -23   2  -5    0.05    1.93
  23  -2   5    5.79    1.35
 -22   1  -5    0.06    1.48
  22  -1   5    1.05    1.11
 -21   0  -5    0.03    1.45
  21   0   5   -0.97    1.15
 -20  -1  -5   -0.09    0.96
  20   1   5    3.41    1.97
 -19  -2  -5    0.07    0.89
  19   2   5    2.40    1.87
 -18  -3  -5    6.72    1.34
  18   3   5    5.15    2.02
 -17  -4  -5   16.35    1.78
  17   4   5   10.75    2.71
 -16  -5  -5    4.44    1.22
  16   5   5    5.15    3.44
 -15  -6  -5   15.60    2.54
  15   6   5   11.39    2.97
 -14  -7  -5    5.61    1.24
  14   7   5    2.61    2.48
 -13  -8  -5   -0.07    0.78
  13   8   5    1.94    2.45
 -12  -9  -5    4.56    1.23
  12   9   5    6.14    2.61
 -11 -10  -5    8.47    2.27
  11  10   5    6.30    4.52
 -10 -11  -5    2.99    1.22
  10  11   5    1.60    2.31
  -9 -12  -5   19.78    2.11
   9  12   5   14.70    3.71
  -8 -13  -5   14.40    1.81
   8  13   5    0.84    3.00
  -7 -14  -5   10.84    1.68
   7  14   5    0.57    2.87
  -6 -15  -5   10.57    1.68
   6  15   5   -0.28    2.80
  -5 -16  -5   15.73    2.09
   5  16   5    0.01    4.85
  -4 -17  -5   11.65    1.86
   4  17   5    0.08    2.82
  -3 -18  -5    2.28    1.29
   3  18   5   -0.38    2.01
  -2 -19  -5    2.09    1.35
   2  19   5   -0.37    1.99
  -1 -20  -5    0.90    1.24
   1  20   5   -0.15    2.95
   0 -21  -5    1.42    1.36
   0  21   5   -0.14    3.22
   1 -22  -5    5.73    2.56
  -1  22   5   -0.02    2.38
   2 -23  -5    2.85    1.52
  -2  23   5   -0.02    2.21
  23  -4   5    1.47    0.88
 -22   3  -5    0.03    0.98
  22  -3   5    3.41    1.04
 -21   2  -5    0.12    0.87
  21  -2   5    1.79    1.01
 -20   1  -5   -0.08    0.87
  20  -1   5    2.22    1.09
 -19   0  -5   -0.01    0.86
  19   0   5    2.12    1.18
 -18  -1  -5   -0.09    0.98
  18   1   5    4.46    1.42
 -17  -2  -5    9.22    1.43
  17   2   5    9.56    3.17
 -16  -3  -5    3.88    1.67
  16   3   5    2.08    1.73
 -15  -4  -5    4.16    1.70
  15   4   5    4.62    2.06
 -14  -5  -5    9.15    1.45
  14   5   5   17.17    4.25
 -13  -6  -5    1.36    0.91
  13   6   5    1.50    1.87
 -12  -7  -5   10.78    1.49
  12   7   5   10.24    2.94
 -11  -8  -5    4.74    1.84
  11   8   5    7.20    3.82
 -10  -9  -5   12.47    1.59
  10   9   5   10.37    2.97
  -9 -10  -5   10.43    1.58
   9  10   5   10.72    4.48
  -8 -11  -5   19.42    1.99
   8  11   5   15.66    3.29
  -7 -12  -5   10.07    1.55
   7  12   5    6.76    2.82
  -6 -13  -5   22.01    2.16
   6  13   5   -0.10    5.03
  -5 -14  -5    9.98    1.56
   5  14   5    0.01    2.43
  -4 -15  -5    7.20    1.49
   4  15   5   -0.04    2.39
  -3 -16  -5    7.60    1.57
   3  16   5    0.04    3.81
  -2 -17  -5   15.51    1.90
   2  17   5    0.09    2.70
  -1 -18  -5    3.48    1.35
   1  18   5    0.15    1.96
   0 -19  -5    2.79    1.32
   0  19   5   -0.72    1.96
   1 -20  -5    6.05    1.66
  -1  20   5    0.16    2.43
   2 -21  -5   -1.41    1.28
  -2  21   5    0.03    1.93
   3 -22  -5    3.58    1.51
  -3  22   5   -0.15    2.31
 -21   4  -5    0.00    1.31
  21  -4   5    3.10    0.97
 -20   3  -5    0.02    0.96
  20  -3   5    0.06    0.74
 -19   2  -5    0.04    1.18
  19  -2   5    1.16    1.00
 -18   1  -5   -0.07    0.96
  18  -1   5   -0.10    0.90
 -17   0  -5    7.26    1.16
  17   0   5    6.71    1.81
 -16  -1  -5    8.75    1.23
  16   1   5    7.03    1.93
 -15  -2  -5    3.69    1.02
  15   2   5    5.95    2.79
 -14  -3  -5   10.29    1.34
  14   3   5    9.71    2.31
 -13  -4  -5    5.69    1.15
  13   4   5    7.42    2.29
 -12  -5  -5    7.14    1.80
  12   5   5    7.02    2.38
 -11  -6  -5    4.96    1.11
  11   6   5    6.77    2.32
 -10  -7  -5    4.49    1.15
  10   7   5    7.41    2.27
  -9  -8  -5    7.03    1.28
   9   8   5    5.79    3.68
  -8  -9  -5   25.66    2.95
   8   9   5   23.48    3.44
  -7 -10  -5    9.42    1.46
   7  10   5    7.88    2.62
  -6 -11  -5   17.24    1.88
   6  11   5   13.90    2.79
  -5 -12  -5    6.21    2.07
   5  12   5    5.99    2.23
  -4 -13  -5    9.49    1.53
   4  13   5    8.63    3.71
  -3 -14  -5   19.32    2.06
   3  14   5   17.27    2.86
  -2 -15  -5   23.80    2.33
   2  15   5   22.36    3.42
  -1 -16  -5    2.59    1.19
   1  16   5   -0.11    1.80
   0 -17  -5    7.10    1.54
   0  17   5    0.14    3.58
   1 -18  -5    5.89    1.52
  -1  18   5    0.03    3.54
   2 -19  -5    0.25    0.95
  -2  19   5   -0.09    1.46
   3 -20  -5   21.62    2.38
  -3  20   5   15.17    3.32
   4 -21  -5    2.72    2.02
  -4  21   5    0.17    2.01
   5 -22  -5   -1.08    1.08
   5 -22  -5   -0.46    1.18
  -5  22   5    0.03    1.92
 -21   6  -5   12.19    2.59
 -20   5  -5    0.00    0.81
  20  -5   5    7.23    0.98
 -19   4  -5    9.23    1.08
  19  -4   5    4.62    1.33
 -18   3  -5   -0.01    0.79
  18  -3   5    4.86    1.07
 -17   2  -5   11.73    1.27
  17  -2   5   14.29    1.85
 -16   1  -5    0.04    0.69
  16  -1   5    1.47    1.05
 -15   0  -5   14.58    1.39
  15   0   5   13.43    2.17
 -14  -1  -5    3.03    1.28
  14   1   5    0.85    1.50
 -13  -2  -5    1.84    1.20
  13   2   5    1.16    1.59
 -12  -3  -5   16.57    1.49
  12   3   5   24.18    4.46
 -11  -4  -5    8.00    1.17
  11   4   5    7.22    2.37
 -10  -5  -5    0.81    0.78
  10   5   5    0.89    1.52
  -9  -6  -5    6.56    1.71
   9   6   5    4.76    3.34
  -8  -7  -5    7.20    1.21
   8   7   5    7.06    2.23
  -7  -8  -5    9.76    1.34
   7   8   5    6.29    3.30
  -6  -9  -5   17.35    1.71
   6   9   5   21.36    2.78
  -5 -10  -5    9.33    2.03
   5  10   5    8.04    2.25
  -4 -11  -5   12.19    1.65
   4  11   5   18.84    2.56
  -3 -12  -5   14.58    1.70
   3  12   5   10.74    2.57
  -2 -13  -5    3.93    1.88
   2  13   5    3.04    1.91
  -1 -14  -5    9.64    1.50
   1  14   5   -0.06    3.50
   0 -15  -5   12.97    1.66
   0  15   5   -0.12    2.37
   1 -16  -5    4.66    1.84
  -1  16   5   -0.15    1.87
   2 -17  -5   12.70    1.68
  -2  17   5    0.36    2.56
   3 -18  -5    5.58    1.41
  -3  18   5   -0.31    2.13
   4 -19  -5    2.41    1.88
  -4  19   5    0.00    1.86
   5 -20  -5    1.40    1.18
  -5  20   5    0.01    2.96
   6 -21  -5    3.16    1.23
   6 -21  -5    0.00    1.04
  -6  21   5   -0.24    3.10
   7 -22  -5    0.61    0.99
  -7  22   5    0.06    2.91
 -21   8  -5   12.59    4.09
 -20   7  -5    0.54    1.42
 -19   6  -5    3.06    1.71
  19  -6   5    1.92    0.75
 -18   5  -5   22.00    1.48
  18  -5   5   22.63    1.80
 -17   4  -5    8.18    1.01
  17  -4   5    8.67    1.37
 -16   3  -5    0.01    0.67
  16  -3   5    4.58    1.47
 -15   2  -5   24.92    1.67
  15  -2   5   26.20    3.45
 -14   1  -5   11.02    1.12
  14  -1   5    9.72    2.76
 -13   0  -5    6.24    0.95
  13   0   5    6.49    2.71
 -12  -1  -5   14.13    1.29
  12   1   5   15.82    2.46
 -11  -2  -5    6.08    0.97
  11   2   5    4.17    1.96
 -10  -3  -5    7.57    1.54
  10   3   5    7.98    2.15
  -9  -4  -5    0.64    0.64
   9   4   5   -2.60    2.03
  -8  -5  -5    0.82    0.67
   8   5   5   -1.46    1.28
  -7  -6  -5    5.32    1.03
   7   6   5    3.90    2.74
  -6  -7  -5    5.52    1.66
   6   7   5    7.47    1.86
  -5  -8  -5    8.20    1.27
   5   8   5    9.99    3.01
  -4  -9  -5    8.05    1.28
   4   9   5    6.69    1.94
  -3 -10  -5   20.10    1.77
   3  10   5   16.31    2.66
  -2 -11  -5   10.25    1.47
   2  11   5   16.03    2.33
  -1 -12  -5   23.81    2.02
   1  12   5   24.88    3.09
   0 -13  -5    6.68    1.32
   0  13   5    4.68    2.05
   1 -14  -5    1.95    1.44
  -1  14   5   -0.01    1.57
   2 -15  -5    3.82    1.18
  -2  15   5    0.35    2.84
   3 -16  -5    5.84    1.30
  -3  16   5    0.18    1.96
   4 -17  -5   10.02    2.20
  -4  17   5   -0.16    2.25
   5 -18  -5    8.31    1.56
  -5  18   5    0.12    2.41
   6 -19  -5    3.81    1.34
  -6  19   5   -0.07    2.14
   7 -20  -5    0.93    0.94
  -7  20   5   -0.14    1.74
   8 -21  -5    0.22    1.14
   8 -21  -5    1.76    1.00
  -8  21   5    0.28    1.88
 -20   9  -5    7.23    2.20
 -19   8  -5   12.26    3.67
 -18   7  -5    6.86    2.07
 -17   6  -5    3.49    0.62
  17  -6   5    2.06    0.85
 -16   5  -5   13.39    1.09
  16  -5   5   16.74    2.23
 -15   4  -5    7.98    0.87
  15  -4   5    6.25    2.13
 -14   3  -5   18.60    1.29
  14  -3   5   17.06    2.00
 -13   2  -5    3.67    0.75
  13  -2   5    4.73    1.45
 -12   1  -5   25.22    1.56
  12  -1   5   26.47    2.73
 -11   0  -5    5.34    0.84
  11   0   5    3.29    1.72
 -10  -1  -5    8.13    0.97
  10   1   5    9.94    3.04
  -9  -2  -5   21.05    1.48
   9   2   5   17.78    2.63
  -8  -3  -5    0.19    1.02
   8   3   5    2.01    1.28
  -7  -4  -5    6.72    1.50
   7   4   5    3.89    2.63
  -6  -5  -5    2.44    0.84
   6   5   5    3.25    1.40
  -5  -6  -5   11.65    1.32
   5   6   5   11.10    1.95
  -4  -7  -5    2.79    0.94
   4   7   5    4.08    1.48
  -3  -8  -5   10.48    1.89
   3   8   5    9.87    2.96
  -2  -9  -5   16.31    1.63
   2   9   5   17.58    2.48
  -1 -10  -5   13.94    1.57
   1  10   5   14.05    2.33
   0 -11  -5    4.04    1.66
   0  11   5    2.52    2.56
   1 -12  -5   12.87    1.60
  -1  12   5   17.03    2.39
   2 -13  -5    3.17    1.03
  -2  13   5    0.53    1.62
   3 -14  -5   10.25    1.44
  -3  14   5   -0.27    2.25
   4 -15  -5    3.82    1.17
  -4  15   5    0.09    1.83
   5 -16  -5    4.94    1.29
  -5  16   5   -0.52    3.15
   6 -17  -5    7.83    1.59
  -6  17   5    0.10    3.65
   7 -18  -5   -0.10    1.39
   8 -19  -5    0.44    0.82
  -8  19   5    0.06    2.58
   9 -20  -5    1.02    0.89
   9 -20  -5    0.10    1.07
  -9  20   5    0.10    2.80
  10 -21  -5    4.23    1.17
  10 -21  -5   -0.08    2.13
 -20  11  -5    0.54    1.43
 -19  10  -5    2.25    1.72
 -18   9  -5    2.46    1.67
 -17   8  -5    1.32    1.41
 -16   7  -5   27.28    2.76
  16  -7   5   18.49    1.39
 -15   6  -5    8.82    0.79
  15  -6   5    7.09    1.69
 -14   5  -5    8.76    0.83
  14  -5   5   10.43    1.35
 -13   4  -5    8.48    1.26
  13  -4   5    9.58    1.44
 -12   3  -5   12.87    1.42
  12  -3   5   12.02    1.76
 -11   2  -5   12.27    1.48
  11  -2   5   14.54    2.03
 -10   1  -5   15.81    1.13
  10  -1   5   14.04    2.27
  -9   0  -5   30.38    1.66
   9   0   5   26.47    2.94
  -8  -1  -5   24.74    1.53
   8   1   5   19.77    2.51
  -7  -2  -5   12.48    1.15
   7   2   5    9.37    2.83
  -6  -3  -5    3.18    0.78
   6   3   5    1.78    1.31
  -5  -4  -5    3.68    1.44
   5   4   5    7.30    1.50
  -4  -5  -5    3.15    0.88
   4   5   5    3.59    1.39
  -3  -6  -5    8.24    1.11
   3   6   5    5.26    1.65
  -2  -7  -5   -0.25    0.54
   2   7   5    0.67    0.88
  -1  -8  -5    4.52    1.65
   1   8   5    6.03    2.51
   0  -9  -5   30.12    2.03
   0   9   5   30.65    3.04
   1 -10  -5    7.14    1.18
  -1  10   5    4.74    1.95
   2 -11  -5    5.10    1.14
  -2  11   5    5.38    2.76
   3 -12  -5   19.26    2.57
  -3  12   5   19.24    4.01
   4 -13  -5    8.10    1.35
  -4  13   5    4.90    2.09
   5 -14  -5    9.07    1.50
  -5  14   5   12.34    2.37
   6 -15  -5   13.07    2.53
  -6  15   5   12.61    2.68
  -7  16   5    4.02    2.04
   8 -17  -5    5.41    1.35
  -8  17   5    0.01    2.16
   9 -18  -5    0.48    1.30
   9 -18  -5    4.43    1.03
  -9  18   5   -0.11    2.14
  10 -19  -5    3.88    1.59
 -10  19   5   -0.10    2.14
  11 -20  -5    3.11    1.52
 -11  20   5   -0.15    2.20
 -19  12  -5    9.24    2.36
 -18  11  -5    3.51    1.81
 -17  10  -5    5.65    1.84
 -16   9  -5    1.96    1.55
 -15   8  -5   -0.84    1.24
  15  -8   5   -0.56    0.72
 -14   7  -5    9.70    0.74
 -14   7  -5   11.62    2.08
  14  -7   5   10.14    1.55
 -13   6  -5   20.07    1.10
  13  -6   5   19.86    1.62
 -12   5  -5    5.61    0.94
  12  -5   5    3.26    1.11
 -11   4  -5   13.32    1.33
  11  -4   5   14.86    2.67
 -10   3  -5   19.65    1.58
  10  -3   5   20.26    3.23
  -9   2  -5   17.11    1.54
   9  -2   5   14.11    2.08
  -8   1  -5    6.01    0.76
   8  -1   5    4.71    2.33
  -7   0  -5   35.69    1.82
   7   0   5   37.87    4.08
  -6  -1  -5   22.32    1.45
   6   1   5   25.06    2.36
  -5  -2  -5    0.74    0.56
   5   2   5   -0.53    0.89
  -4  -3  -5    7.51    0.99
   4   3   5    7.65    2.35
  -3  -4  -5    2.80    1.18
   3   4   5    0.58    1.18
  -2  -5  -5   17.01    2.05
   2   5   5   20.03    3.29
  -1  -6  -5    7.03    1.07
   1   6   5    8.48    1.69
   0  -7  -5   35.31    2.14
   0   7   5   35.37    3.04
   1  -8  -5   25.36    1.78
   2  -9  -5   19.25    2.39
  -2   9   5   21.52    2.53
   3 -10  -5    7.40    1.21
  -3  10   5    8.67    1.89
   4 -11  -5    7.02    1.30
  -4  11   5    9.29    2.03
   5 -12  -5    8.34    1.37
  -5  12   5    8.94    2.13
  -6  13   5    3.35    2.72
  -7  14   5    9.15    3.63
   9 -16  -5   19.68    3.12
  10 -17  -5    3.90    1.03
  11 -18  -5    4.72    1.08
  12 -19  -5    0.19    1.04
 -18  13  -5   -0.82    2.28
 -17  12  -5    8.18    2.07
 -16  11  -5    0.63    2.06
 -15  10  -5   -1.05    1.31
 -14   9  -5    0.90    1.27
 -13   8  -5   12.43    1.00
 -13   8  -5   19.81    2.26
  13  -8   5   11.53    0.98
 -12   7  -5    8.17    0.63
 -12   7  -5    8.92    1.91
  12  -7   5    7.97    1.07
 -11   6  -5   17.59    0.96
  11  -6   5   16.33    2.42
 -10   5  -5    7.94    0.72
  10  -5   5    9.62    1.42
  -9   4  -5    8.31    1.06
   9  -4   5    6.17    1.51
  -8   3  -5   10.29    1.19
   8  -3   5   12.36    1.74
  -7   2  -5    0.00    0.67
   7  -2   5   -0.88    0.86
  -6   1  -5    9.35    1.30
   6  -1   5    9.15    1.49
  -5   0  -5    9.91    0.93
   5   0   5   10.03    1.52
  -4  -1  -5   42.01    2.01
   4   1   5   39.40    3.85
  -3  -2  -5   11.24    1.06
   3   2   5    9.91    1.70
  -2  -3  -5   60.81    2.81
   2   3   5   60.79    3.73
  -1  -4  -5   23.26    1.70
   1   4   5   27.19    2.50
   0  -5  -5   13.46    1.89
   1  -6  -5   24.32    1.74
  -1   6   5   28.12    2.58
   2  -7  -5    9.32    1.19
  -2   7   5    9.98    1.88
   3  -8  -5    1.42    0.77
  -3   8   5   -0.01    1.26
   4  -9  -5   -0.12    0.66
  -7  12   5   10.32    2.24
  -8  13   5    2.24    1.63
  11 -16  -5    7.79    1.17
  12 -17  -5    5.03    1.00
  13 -18  -5    2.34    0.83
 -17  14  -5    7.33    2.08
 -16  13  -5    3.95    2.75
 -15  12  -5    1.78    1.46
 -14  11  -5   -0.51    1.93
 -13  10  -5   -2.02    1.40
 -12   9  -5   13.26    0.86
 -12   9  -5   18.32    2.21
 -11   8  -5   19.94    0.89
 -11   8  -5   21.57    2.49
  11  -8   5   19.00    1.30
 -10   7  -5    7.83    1.78
 -10   7  -5    7.64    0.91
  10  -7   5    7.62    1.09
  -9   6  -5   17.25    0.92
   9  -6   5   14.24    2.42
  -8   5  -5   10.63    0.77
   8  -5   5    8.85    1.49
  -7   4  -5    1.78    0.75
   7  -4   5    1.71    0.97
  -6   3  -5    4.32    0.96
   6  -3   5    5.78    1.13
  -5   2  -5   16.35    1.48
   5  -2   5   16.07    1.60
  -4   1  -5   25.25    1.91
   4  -1   5   21.97    2.93
  -3   0  -5   32.46    1.65
   3   0   5   29.89    2.43
  -2  -1  -5   10.04    1.03
   2   1   5    9.98    1.51
  -1  -2  -5   18.02    1.42
   1   2   5   19.69    2.91
   0  -3  -5   30.80    1.87
   0   3   5   37.00    2.69
   1  -4  -5   39.11    2.17
  -1   4   5   44.81    3.18
   2  -5  -5    0.02    0.59
  -2   5   5    0.21    1.32
   3  -6  -5    0.98    1.19
  -3   6   5    2.59    1.21
  -4   7   5    6.27    1.67
   5  -8  -5    1.66    0.82
  12 -15  -5   19.12    1.49
  13 -16  -5    4.04    1.28
 -16  15  -5    7.62    2.11
 -15  14  -5    2.91    1.66
 -14  13  -5    3.30    2.52
 -13  12  -5    2.93    1.57
 -12  11  -5    6.56    1.75
 -11  10  -5    4.54    1.55
  11 -10   5    4.44    0.59
 -10   9  -5   13.55    2.08
 -10   9  -5   13.30    0.84
  10  -9   5   13.43    0.91
  -9   8  -5   26.22    3.65
  -9   8  -5   21.32    0.94
   9  -8   5   19.35    1.45
  -8   7  -5   11.26    1.79
  -8   7  -5    9.05    0.93
   8  -7   5    7.40    1.24
  -7   6  -5    6.82    0.63
  -7   6  -5    9.45    1.59
   7  -6   5    6.12    1.22
  -6   5  -5   12.68    0.85
   6  -5   5   15.67    2.02
  -5   4  -5    2.46    0.79
   5  -4   5    1.55    1.33
  -4   3  -5    1.99    0.82
   4  -3   5    2.14    1.35
  -3   2  -5   59.58    2.99
   3  -2   5   62.62    3.34
  -2   1  -5   14.48    1.66
   2  -1   5   19.68    1.79
  -1   0  -5   17.71    1.82
   1   0   5   22.26    2.68
   0  -1  -5   19.64    1.34
   0   1   5   21.92    2.02
   1  -2  -5    9.19    1.05
  -1   2   5    9.02    2.35
   2  -3  -5    9.70    1.13
  -2   3   5    8.81    1.62
   3  -4  -5    7.73    1.05
  -3   4   5    6.51    1.58
   4  -5  -5    5.24    0.97
  -4   5   5    4.03    2.22
  -7   8   5    7.50    1.80
  12 -13  -5    0.47    0.59
  13 -14  -5    4.39    1.16
  14 -15  -5    5.48    0.78
 -15  16  -5    6.80    2.00
 -14  15  -5    7.28    2.08
 -13  14  -5    5.65    1.88
 -12  13  -5   21.68    3.92
 -11  12  -5    5.85    1.68
 -10  11  -5   12.30    1.98
  -9  10  -5   10.29    0.49
  -9  10  -5   13.55    2.93
  -8   9  -5    5.72    1.59
  -8   9  -5    7.01    0.50
   8  -9   5    5.18    1.22
  -7   8  -5    6.75    0.55
  -7   8  -5    8.05    1.56
   7  -8   5    6.34    1.57
  -6   7  -5    5.77    1.48
  -6   7  -5    5.46    0.86
   6  -7   5    7.30    1.01
  -5   6  -5    1.70    0.45
  -5   6  -5    1.06    1.13
   5  -6   5    2.10    0.78
  -4   5  -5    5.08    0.58
   4  -5   5    4.37    0.98
  -3   4  -5    6.92    1.04
   3  -4   5    7.39    1.14
  -2   3  -5   11.62    1.32
   2  -3   5   13.00    1.43
  -1   2  -5    9.18    1.27
   1  -2   5    8.18    1.32
   0   1  -5   21.13    1.90
   0  -1   5   20.68    1.91
   1   0  -5   19.50    1.93
  -1   0   5   21.83    1.92
   2  -1  -5   18.07    2.00
  -2   1   5   22.17    2.01
   4  -3  -5    1.91    0.79
  -4   3   5    2.96    1.14
   5  -4  -5    1.82    0.76
  -5   4   5    0.23    1.12
   6  -5  -5   12.14    1.26
  11 -10  -5    4.59    1.20
  13 -12  -5    2.31    0.61
  14 -13  -5    1.70    0.54
 -14  17  -5    3.71    1.72
 -13  16  -5    8.49    2.05
 -12  15  -5   27.02    2.92
 -11  14  -5   13.83    2.26
 -10  13  -5   23.51    2.50
  -9  12  -5    7.33    1.65
  -8  11  -5    5.21    1.51
   8 -11   5    4.36    0.50
  -7  10  -5    5.30    1.73
   7 -10   5    0.34    0.54
  -6   9  -5    6.68    1.46
  -6   9  -5    5.80    0.76
   6  -9   5    5.51    0.88
  -5   8  -5    0.43    1.01
  -5   8  -5    1.11    0.38
   5  -8   5    0.62    0.94
  -4   7  -5    7.78    2.16
  -4   7  -5    6.76    0.93
   4  -7   5    5.81    0.95
  -3   6  -5    2.03    1.03
  -3   6  -5    1.60    0.47
   3  -6   5    1.16    0.76
  -2   5  -5   -0.12    0.38
  -2   5  -5    0.65    0.76
   2  -5   5    0.27    0.58
  -1   4  -5   41.68    2.29
   1  -4   5   40.71    2.43
   0   3  -5   28.21    2.06
   0  -3   5   33.35    3.00
   1   2  -5   19.51    1.85
  -1  -2   5   17.53    1.70
   2   1  -5    9.17    1.53
  -2  -1   5   12.56    2.19
   3   0  -5   29.84    2.56
  -3   0   5   33.88    2.40
  -7   4   5    1.00    1.06
   8  -5  -5   10.12    1.31
  -8   5   5   12.49    1.89
   9  -6  -5   15.38    1.54
  14 -11  -5    0.42    0.58
 -13  18  -5    4.07    2.81
 -12  17  -5    5.72    1.86
 -11  16  -5   13.51    2.28
 -10  15  -5   21.71    3.78
  -9  14  -5   16.83    2.27
  -8  13  -5    2.05    1.30
  -7  12  -5   16.81    3.14
  -6  11  -5    5.95    1.00
   6 -11   5    0.00    0.25
  -5  10  -5    0.30    0.82
   5 -10   5   -0.09    0.63
  -4   9  -5    2.27    1.41
  -4   9  -5    0.26    0.32
   4  -9   5   -0.05    0.75
  -3   8  -5   -0.15    0.87
  -3   8  -5    0.46    0.39
   3  -8   5    0.64    0.55
  -2   7  -5   10.90    1.52
  -2   7  -5   11.05    1.17
   2  -7   5   10.80    1.13
  -1   6  -5   25.07    1.29
  -1   6  -5   29.26    3.07
   1  -6   5   24.89    1.74
   0   5  -5   13.41    1.58
   0   5  -5   11.57    0.95
   0  -5   5   13.23    1.92
   1   4  -5   24.97    1.95
   1   4  -5   26.49    1.99
  -1  -4   5   25.36    1.92
   2   3  -5   66.84    3.40
  -2  -3   5   63.96    3.39
   3   2  -5    9.66    1.02
  -3  -2   5    8.74    1.37
   4   1  -5   42.87    2.18
  -4  -1   5   41.41    3.67
   5   0  -5   11.64    1.25
  -5   0   5   12.37    1.65
  11  -6  -5   14.95    1.75
  12  -7  -5   10.34    1.53
  14  -9  -5    0.74    0.36
 -12  19  -5    0.92    1.34
 -11  18  -5    8.85    2.04
 -10  17  -5    7.44    1.89
  -9  16  -5   20.41    2.54
  -8  15  -5    6.16    1.67
  -7  14  -5    6.25    1.58
  -6  13  -5    2.69    1.30
  -5  12  -5    9.73    1.50
   5 -12   5    5.98    0.77
   5 -12   5    5.95    0.55
  -4  11  -5   10.89    2.35
   4 -11   5    7.05    0.71
  -3  10  -5    7.58    1.40
   3 -10   5    5.29    0.75
  -2   9  -5   19.54    2.02
   2  -9   5   20.81    1.83
  -1   8  -5   28.86    2.98
   1  -8   5   19.87    1.49
   0   7  -5   42.16    2.56
   0   7  -5   40.18    1.77
   0  -7   5   36.06    2.83
   1   6  -5   11.60    0.93
   1   6  -5    7.51    1.34
  -1  -6   5    9.51    1.76
   2   5  -5   19.19    1.73
   2   5  -5   19.62    1.68
  -2  -5   5   16.81    1.55
   3   4  -5    3.16    1.14
   3   4  -5    4.11    1.41
  -3  -4   5    1.43    1.48
   4   3  -5    8.49    1.04
   4   3  -5    8.62    1.10
  -4  -3   5    8.65    1.31
   5   2  -5    0.05    0.63
   5   2  -5    1.62    0.63
  -5  -2   5   -0.89    0.86
   6   1  -5   25.79    1.77
   6   1  -5   29.32    1.70
  -6  -1   5   27.36    3.13
   7   0  -5   39.38    2.23
  -7   0   5   36.38    2.80
   8  -1  -5    6.29    1.09
  -8   1   5    5.06    1.43
   9  -2  -5   17.28    1.67
  12  -5  -5    6.43    1.99
  13  -6  -5   18.60    2.02
 -19  12   5   -0.07    1.42
 -11  20  -5    7.97    3.18
 -10  19  -5    5.13    1.74
  -9  18  -5    9.66    2.02
  -8  17  -5    6.08    2.55
  -7  16  -5    3.52    1.47
  -6  15  -5   15.40    1.99
  -5  14  -5   11.98    1.83
  -4  13  -5   12.45    2.28
   4 -13   5    5.64    0.62
  -3  12  -5   20.29    2.02
   3 -12   5   18.17    0.87
  -2  11  -5    3.73    1.28
   2 -11   5    4.42    0.68
  -1  10  -5   13.63    2.55
   0   9  -5   35.77    2.37
   0  -9   5   31.73    2.40
   1   8  -5    7.16    1.26
  -1  -8   5    5.98    1.47
   2   7  -5    0.21    0.66
  -2  -7   5   -0.30    0.55
   3   6  -5    6.34    1.67
  -3  -6   5    5.45    1.01
   4   5  -5    2.37    1.27
   4   5  -5    2.74    0.69
  -4  -5   5    0.95    0.89
   5   4  -5    7.02    0.91
   5   4  -5    4.76    0.98
  -5  -4   5    5.63    1.13
   6   3  -5    4.49    0.80
   6   3  -5    2.89    0.82
  -6  -3   5    2.71    1.08
   7   2  -5   12.24    1.28
   7   2  -5   11.55    1.11
  -7  -2   5   11.53    1.63
   8   1  -5   21.74    1.80
   8   1  -5   24.43    1.41
  -8  -1   5   23.37    3.16
   9   0  -5   33.54    2.17
   9   0  -5   33.87    2.15
  -9   0   5   29.46    2.58
  10  -1  -5   14.91    1.59
  10  -1  -5   18.04    1.47
 -10   1   5   14.87    1.99
  11  -2  -5   15.57    1.30
  11  -2  -5   15.10    1.65
 -11   2   5   15.11    2.17
  12  -3  -5   13.86    1.66
  12  -3  -5   14.49    1.16
 -12   3   5   14.96    2.15
  13  -4  -5    9.89    0.90
  13  -4  -5    9.63    1.53
 -13   4   5    9.89    2.03
  14  -5  -5    9.75    1.63
  14  -5  -5    9.35    0.55
 -14   5   5   13.34    2.10
 -15   6   5   15.05    2.43
 -16   7   5   20.37    2.93
 -17   8   5    1.18    1.49
 -18   9   5    3.26    1.95
 -19  10   5    3.62    3.12
 -20  11   5   -0.16    1.53
 -10  21  -5    6.73    1.92
  -9  20  -5    4.04    2.55
  -8  19  -5   10.86    2.12
  -7  18  -5   10.65    2.00
  -6  17  -5    9.13    1.88
  -5  16  -5    4.26    2.24
  -4  15  -5    3.85    1.38
  -3  14  -5   11.74    1.54
   3 -14   5    6.19    0.47
  -2  13  -5    2.43    1.17
   2 -13   5    2.60    0.41
  -1  12  -5   15.77    2.66
   1 -12   5   14.49    0.99
   1 -12   5   14.34    0.92
   0  11  -5    3.04    1.10
   0 -11   5    3.04    1.04
   1  10  -5   18.71    1.70
  -1 -10   5   13.05    1.70
   2   9  -5   19.18    1.76
  -2  -9   5   19.73    1.41
   3   8  -5   12.12    1.40
  -3  -8   5   11.96    1.22
   4   7  -5    2.97    1.41
  -4  -7   5    2.73    1.34
   5   6  -5   13.84    1.88
  -5  -6   5   12.51    1.44
   6   5  -5    2.64    0.75
  -6  -5   5    1.57    0.95
   7   4  -5    7.81    0.93
  -7  -4   5    6.79    1.30
   8   3  -5   -0.14    0.52
  -8  -3   5   -0.92    0.80
   9   2  -5   20.30    1.26
  -9  -2   5   22.51    2.11
  10   1  -5    7.82    0.78
 -10  -1   5    5.51    1.55
  11   0  -5    3.93    0.58
 -11   0   5    3.24    1.34
  12  -1  -5   24.48    1.14
 -12   1   5   29.17    2.59
  13  -2  -5    5.58    0.75
 -13   2   5    4.94    2.52
  14  -3  -5   17.77    0.74
 -14   3   5   18.82    3.66
 -15   4   5    9.40    2.05
 -16   5   5   16.85    2.60
 -17   6   5    2.07    1.65
 -18   7   5    9.37    2.26
 -19   8   5   10.76    2.56
 -20   9   5   10.32    2.66
 -21  10   5    3.45    2.15
  -8  21  -5    2.33    1.47
  -7  20  -5    0.91    1.26
  -6  19  -5    2.26    2.08
  -5  18  -5    7.05    1.65
  -4  17  -5   17.82    2.11
  -3  16  -5    5.14    1.44
  -2  15  -5    3.36    1.23
  -1  14  -5    4.50    1.83
   1 -14   5    2.60    0.63
   0  13  -5    1.58    1.27
   0 -13   5    6.38    0.98
   0 -13   5    5.32    0.66
   1  12  -5   30.32    2.21
  -1 -12   5   26.17    2.00
  -1 -12   5   28.86    1.94
   2  11  -5   16.33    1.66
  -2 -11   5   14.81    1.73
   3  10  -5   21.38    1.75
  -3 -10   5   19.90    1.48
   4   9  -5    9.66    1.77
  -4  -9   5    7.33    1.07
   5   8  -5   11.18    1.87
  -5  -8   5   10.31    1.25
   6   7  -5    8.30    1.06
  -6  -7   5    7.28    1.17
   7   6  -5    5.68    0.91
  -7  -6   5    6.75    1.16
   8   5  -5    1.24    0.62
  -8  -5   5    1.24    0.89
   9   4  -5    0.47    0.53
  -9  -4   5    2.26    1.32
  10   3  -5    8.13    0.82
 -10  -3   5    9.99    1.47
  11   2  -5    6.34    1.02
 -11  -2   5    4.72    1.42
  12   1  -5   14.48    1.24
 -12  -1   5   16.30    1.97
  13   0  -5    6.02    0.54
 -13   0   5    6.56    1.60
  14  -1  -5    9.56    0.74
 -14   1   5    5.57    1.91
 -15   2   5   28.71    3.00
 -16   3   5    3.17    1.59
 -17   4   5   12.25    2.35
 -18   5   5   22.18    2.91
 -19   6   5    3.31    2.79
 -20   7   5    1.40    2.67
 -21   8   5   14.37    3.10
  -7  22  -5    1.19    2.04
  -6  21  -5    5.40    1.66
  -5  20  -5    0.87    1.13
  -4  19  -5    5.33    1.47
  -3  18  -5   10.57    1.68
  -2  17  -5    9.23    2.50
  -1  16  -5    6.30    1.42
   0  15  -5   13.37    1.67
   0 -15   5    9.87    1.01
   1  14  -5    8.87    1.54
  -1 -14   5   10.22    0.88
  -1 -14   5   11.66    0.88
   2  13  -5    4.20    1.19
  -2 -13   5    5.72    0.76
  -2 -13   5    3.61    1.10
   3  12  -5   11.83    1.46
  -3 -12   5   13.75    1.61
  -3 -12   5   10.78    1.08
   4  11  -5   13.43    2.21
  -4 -11   5   14.57    1.29
  -4 -11   5   15.71    1.30
   5  10  -5    7.83    1.71
  -5 -10   5    6.63    1.55
   6   9  -5   19.14    2.19
  -6  -9   5   17.58    1.55
   7   8  -5   11.03    1.15
  -7  -8   5   10.62    1.96
   8   7  -5   11.56    1.48
  -8  -7   5    5.54    1.24
   9   6  -5    4.42    1.33
  -9  -6   5    8.06    1.26
  10   5  -5    1.46    0.91
 -10  -5   5    2.69    1.01
  11   4  -5    8.86    1.21
 -11  -4   5   10.14    1.55
  12   3  -5   16.34    1.00
 -12  -3   5   20.54    2.04
  13   2  -5    1.35    0.62
 -13  -2   5    2.37    1.18
  14   1  -5    1.86    0.33
 -14  -1   5    2.14    1.26
  15   0  -5   10.38    0.58
 -15   0   5   17.16    2.05
 -16   1   5    1.55    1.41
 -17   2   5   16.86    2.45
 -18   3   5    2.91    1.67
 -19   4   5   11.69    2.44
 -20   5   5    6.41    2.16
 -21   6   5    7.18    2.41
 -22   7   5    2.41    2.02
  -5  22  -5    2.52    1.41
  -4  21  -5    2.00    1.29
  -3  20  -5   15.36    3.02
  -2  19  -5   -0.21    0.89
  -1  18  -5    5.49    1.35
   0  17  -5   -0.25    0.88
   1  16  -5   -0.57    0.78
  -1 -16   5    0.00    0.38
   2  15  -5   27.39    2.07
  -2 -15   5   27.05    1.41
  -2 -15   5   24.42    1.35
   3  14  -5   20.69    2.54
  -3 -14   5   19.16    1.81
  -3 -14   5   15.72    1.22
   4  13  -5   11.66    2.06
  -4 -13   5    8.39    1.02
  -4 -13   5   11.24    1.59
   5  12  -5    8.04    1.76
  -5 -12   5    5.15    0.95
  -5 -12   5    7.57    0.98
   6  11  -5   23.38    1.67
  -6 -11   5   21.16    1.59
  -6 -11   5   20.88    1.64
   7  10  -5    8.35    1.10
  -7 -10   5    6.48    1.12
   8   9  -5   22.26    2.17
  -8  -9   5   21.87    1.81
   9   8  -5    5.25    1.42
  -9  -8   5    7.75    1.26
  10   7  -5    4.50    1.13
 -10  -7   5    4.26    1.78
  11   6  -5    4.96    0.68
 -11  -6   5    2.76    1.82
  12   5  -5    8.97    0.75
 -12  -5   5    9.02    1.53
  13   4  -5    8.61    0.96
 -13  -4   5    9.47    1.60
  14   3  -5    8.81    0.59
 -14  -3   5   11.22    1.71
  15   2  -5    3.27    0.44
 -15  -2   5    6.03    1.44
 -16  -1   5    5.73    1.66
 -17   0   5    9.33    1.96
 -18   1   5    1.40    1.39
 -19   2   5    3.96    2.66
 -20   3   5   -0.55    2.15
 -21   4   5    2.48    1.87
 -22   5   5    1.52    1.76
  -4  23  -5   -0.90    1.92
  -3  22  -5    1.75    1.33
  -2  21  -5   -0.19    0.96
  -1  20  -5    3.95    1.36
   0  19  -5    0.04    0.78
   1  18  -5    0.12    1.26
   2  17  -5   -0.55    1.42
   3  16  -5    0.30    1.78
  -3 -16   5    4.90    0.73
  -3 -16   5    4.40    0.68
   4  15  -5    7.59    1.25
  -4 -15   5    9.16    1.42
  -4 -15   5    7.23    0.89
   5  14  -5   10.04    1.30
  -5 -14   5    9.49    1.64
  -5 -14   5    9.62    1.08
   6  13  -5   22.66    1.70
  -6 -13   5   23.74    1.67
  -6 -13   5   21.35    2.27
   7  12  -5   10.66    1.17
  -7 -12   5    8.41    1.17
  -7 -12   5    9.89    1.23
   8  11  -5   20.34    1.52
  -8 -11   5   20.78    1.72
  -8 -11   5   18.52    2.50
   9  10  -5   12.78    1.71
  -9 -10   5   13.21    2.13
  -9 -10   5   14.17    1.58
  10   9  -5   11.52    1.51
 -10  -9   5   11.88    1.47
  11   8  -5    5.19    0.75
 -11  -8   5    5.52    1.24
  12   7  -5    9.82    0.85
 -12  -7   5    9.80    1.53
  13   6  -5    1.33    0.69
 -13  -6   5    1.00    1.04
  14   5  -5    9.21    0.66
 -14  -5   5   11.19    1.72
  15   4  -5    4.82    0.39
 -15  -4   5    5.28    1.49
 -16  -3   5    5.57    1.60
 -17  -2   5   11.70    2.05
 -18  -1   5    7.69    1.91
 -19   0   5    1.62    1.48
 -20   1   5    2.28    1.65
 -21   2   5    3.63    1.87
 -22   3   5    3.01    1.95
  -2  23  -5    4.70    1.57
  -1  22  -5    5.70    2.42
   0  21  -5   -1.17    1.71
   1  20  -5   -0.05    0.81
   2  19  -5    0.13    0.79
   3  18  -5   -0.07    0.72
   4  17  -5   10.66    1.37
  -4 -17   5    8.76    0.86
  -4 -17   5    7.74    0.91
   5  16  -5   16.31    1.60
  -5 -16   5   16.24    1.78
  -5 -16   5   13.23    1.16
   6  15  -5    4.37    1.19
  -6 -15   5    9.37    1.58
  -6 -15   5    9.32    1.42
   7  14  -5    9.73    1.25
  -7 -14   5   10.06    1.84
  -7 -14   5    9.90    1.12
   8  13  -5   13.25    1.29
  -8 -13   5   14.03    1.99
  -8 -13   5   11.78    1.41
   9  12  -5   18.45    1.38
  -9 -12   5   15.98    1.58
  -9 -12   5   17.20    1.60
  10  11  -5    2.81    1.17
 -10 -11   5    3.19    1.05
 -10 -11   5    4.40    1.09
  11  10  -5    6.23    1.40
 -11 -10   5    9.68    1.38
 -11 -10   5   10.60    2.24
  12   9  -5    5.62    0.72
 -12  -9   5    4.15    1.95
 -12  -9   5    5.84    1.35
  13   8  -5    0.83    0.69
 -13  -8   5    0.80    0.97
 -13  -8   5   -0.09    1.39
  14   7  -5    5.19    0.60
 -14  -7   5    6.03    2.04
  15   6  -5   10.51    0.66
 -15  -6   5   13.97    1.81
 -16  -5   5   -0.03    0.87
 -17  -4   5   15.41    3.19
 -18  -3   5    6.78    2.64
 -19  -2   5    0.99    2.09
 -20  -1   5    5.19    2.82
 -21   0   5    0.04    1.13
 -22   1   5    1.33    1.62
 -23   2   5    5.21    2.21
   0  23  -5    2.77    1.38
   1  22  -5   -0.06    0.86
   2  21  -5   -0.13    0.87
   3  20  -5   -0.08    0.78
   4  19  -5    0.14    0.82
   5  18  -5   18.49    1.82
  -5 -18   5   17.75    1.24
   6  17  -5   -0.11    0.92
  -6 -17   5    1.78    0.96
  -6 -17   5    1.96    0.72
   7  16  -5   16.75    1.59
  -7 -16   5   17.82    1.48
  -7 -16   5   15.43    1.40
   8  15  -5   -0.07    0.65
  -8 -15   5    0.70    1.07
  -8 -15   5    0.53    0.62
   9  14  -5   -0.31    0.58
  -9 -14   5    1.07    0.67
  -9 -14   5   -0.14    0.63
  10  13  -5   -0.37    0.51
 -10 -13   5   -0.10    0.66
 -10 -13   5    1.30    0.98
  11  12  -5    3.42    1.17
 -11 -12   5    2.12    1.53
 -11 -12   5    3.94    1.71
  12  11  -5    3.33    0.75
 -12 -11   5    4.85    1.14
 -12 -11   5    4.56    1.13
  13  10  -5   18.94    1.17
 -13 -10   5   17.05    1.90
 -13 -10   5   16.91    1.94
  14   9  -5   16.01    1.39
 -14  -9   5   16.51    1.89
 -14  -9   5   18.90    2.90
  15   8  -5    5.44    0.82
 -15  -8   5    6.56    1.43
 -15  -8   5    5.72    1.49
 -16  -7   5    3.49    1.30
 -16  -7   5    1.79    1.33
 -17  -6   5    0.04    1.69
 -17  -6   5   12.71    1.73
 -18  -5   5    0.00    1.63
 -18  -5   5   10.76    1.72
 -19  -4   5    3.42    1.59
 -19  -4   5    4.18    1.63
 -20  -3   5   15.49    2.45
 -20  -3   5   16.09    2.55
 -21  -2   5   -0.09    1.08
 -21  -2   5   -0.03    1.18
 -22  -1   5    7.93    2.18
 -22  -1   5    4.25    3.15
 -23   0   5    0.55    2.47
 -23   0   5    1.03    1.57
   2  23  -5    0.03    0.87
   3  22  -5   -0.13    1.34
   4  21  -5   -0.04    1.19
   5  20  -5   -0.02    1.13
   6  19  -5    0.07    1.09
   7  18  -5    0.02    1.55
  -7 -18   5    4.51    0.97
  -7 -18   5    3.09    0.77
   8  17  -5   -0.02    1.12
  -8 -17   5    0.31    0.64
  -8 -17   5    0.91    0.74
   9  16  -5   -0.42    0.67
  -9 -16   5   -0.96    0.76
  -9 -16   5   -0.58    0.69
  10  15  -5    0.06    0.56
 -10 -15   5   -0.60    1.11
 -10 -15   5    0.84    0.95
  11  14  -5    0.69    0.55
 -11 -14   5   -1.33    0.75
 -11 -14   5   -0.60    0.68
  12  13  -5    3.38    1.03
 -12 -13   5    1.28    0.98
 -12 -13   5    1.57    1.01
  13  12  -5   19.15    1.28
 -13 -12   5   17.43    1.88
 -13 -12   5   19.93    2.06
  14  11  -5   13.78    1.04
 -14 -11   5   13.92    1.77
 -14 -11   5   18.81    2.84
  15  10  -5   14.07    0.95
 -15 -10   5   17.01    1.92
 -15 -10   5   16.79    1.95
 -16  -9   5   21.85    2.30
 -16  -9   5   24.92    2.37
 -17  -8   5   -0.14    1.37
 -17  -8   5    6.99    1.45
 -18  -7   5   10.94    1.96
 -18  -7   5   11.36    3.01
 -19  -6   5    0.04    1.27
 -19  -6   5    4.52    2.10
 -20  -5   5    0.49    1.38
 -20  -5   5    2.23    1.40
 -21  -4   5    2.55    1.34
 -21  -4   5   -0.41    1.34
 -22  -3   5    3.65    1.74
 -22  -3   5    2.69    1.79
 -23  -2   5    3.29    1.70
 -23  -2   5    1.29    1.75
   4  23  -5   -0.09    0.85
   5  22  -5    0.08    0.80
   6  21  -5   -0.10    0.80
   7  20  -5   -0.22    0.75
   8  19  -5    9.05    1.22
  -8 -19   5    0.53    1.96
  -8 -19   5    6.56    0.96
   9  18  -5    0.05    1.25
  -9 -18   5    1.11    0.99
  -9 -18   5    2.19    1.12
  10  17  -5    2.85    1.56
 -10 -17   5    4.61    1.28
 -10 -17   5    6.77    1.02
  11  16  -5    0.03    0.58
 -11 -16   5   -0.06    0.64
 -11 -16   5   -0.45    0.76
  12  15  -5    2.13    0.68
 -12 -15   5    0.44    1.57
 -12 -15   5    0.21    0.85
  13  14  -5    3.30    1.16
 -13 -14   5    4.07    1.21
 -13 -14   5    2.53    1.61
  14  13  -5    5.86    0.83
 -14 -13   5    8.14    2.31
 -14 -13   5    6.18    2.01
  15  12  -5   19.66    1.19
 -15 -12   5   19.94    3.00
 -15 -12   5   20.17    2.17
 -16 -11   5    9.61    1.74
 -16 -11   5   14.24    1.95
 -17 -10   5   -0.03    1.36
 -17 -10   5    6.59    1.44
 -18  -9   5    0.03    1.45
 -18  -9   5   10.91    2.29
 -19  -8   5   11.83    1.96
 -19  -8   5    7.51    2.04
 -20  -7   5   -0.03    1.87
 -20  -7   5   -0.97    1.27
 -21  -6   5    0.09    2.35
 -21  -6   5    3.70    1.63
 -22  -5   5   -0.83    2.20
 -22  -5   5    1.99    1.50
 -23  -4   5    0.08    1.16
   7  22  -5   -0.11    0.76
   8  21  -5   11.97    1.52
   9  20  -5    8.07    1.27
  10  19  -5    0.01    0.79
 -10 -19   5    0.59    1.59
 -10 -19   5    1.72    0.71
  11  18  -5    5.98    1.43
 -11 -18   5    1.06    2.12
 -11 -18   5    3.08    0.98
  12  17  -5    3.22    1.43
 -12 -17   5    5.22    1.45
 -12 -17   5    3.95    1.64
  13  16  -5   -0.04    0.54
 -13 -16   5    0.93    0.87
 -13 -16   5   -0.62    1.06
  14  15  -5    1.43    0.68
 -14 -15   5    0.38    1.19
 -14 -15   5    3.42    1.02
 -15 -14   5    4.64    1.51
 -15 -14   5    5.35    1.32
 -16 -13   5    6.35    1.45
 -16 -13   5    0.04    1.24
 -17 -12   5    8.30    2.23
 -17 -12   5   -0.01    1.29
 -18 -11   5    0.03    1.36
 -18 -11   5    5.84    1.51
 -19 -10   5   -0.02    1.30
 -19 -10   5    3.44    1.43
 -20  -9   5   -0.02    1.24
 -20  -9   5    2.03    1.39
 -21  -8   5   -0.03    1.38
 -21  -8   5    2.83    1.55
 -22  -7   5    0.06    1.36
 -22  -7   5    4.00    2.39
  10  21  -5    0.06    0.67
  11  20  -5    1.00    0.80
 -11 -20   5    1.53    0.76
 -11 -20   5    0.63    1.04
  12  19  -5    6.04    1.05
 -12 -19   5    5.08    1.57
 -12 -19   5    5.17    1.68
  13  18  -5   -0.67    0.63
 -13 -18   5    3.06    1.64
 -13 -18   5   -0.58    0.76
 -14 -17   5    8.45    1.77
 -14 -17   5    5.82    1.34
 -15 -16   5    3.64    2.38
 -15 -16   5    4.34    1.26
 -16 -15   5    4.09    1.37
 -16 -15   5    0.00    1.10
 -17 -14   5    3.60    2.04
 -17 -14   5   -0.03    1.02
 -18 -13   5    5.20    1.53
 -18 -13   5    0.07    1.29
 -19 -12   5   -1.41    1.30
 -19 -12   5    0.07    1.07
 -20 -11   5    6.73    1.74
 -20 -11   5   -0.10    1.51
 -21 -10   5   -0.06    1.34
 -21 -10   5    4.16    2.32
 -16 -17   5    2.18    1.56
 -16 -17   5    3.10    1.16
 -17 -16   5    5.70    2.46
 -17 -16   5   -0.02    1.81
 -13 -11  -6   13.65    2.03
  13  11   6    0.41    5.99
 -12 -12  -6    1.05    1.16
  12  12   6   -0.09    2.48
 -11 -13  -6   -1.22    1.26
  11  13   6    0.28    2.52
 -16  -6  -6    0.04    0.82
  16   6   6    0.11    1.51
 -15  -7  -6    2.87    1.75
  15   7   6   -0.03    2.17
 -14  -8  -6    0.96    1.01
  14   8   6    0.14    2.15
 -13  -9  -6    5.97    1.44
  13   9   6    0.00    4.73
 -12 -10  -6    0.99    1.10
  12  10   6    0.20    2.32
 -11 -11  -6    7.06    1.61
  11  11   6   -0.12    3.14
 -10 -12  -6    2.45    1.92
  10  12   6   -0.12    2.41
  -9 -13  -6    0.10    1.21
   9  13   6    2.48    2.24
  -8 -14  -6    0.51    1.18
   8  14   6   -0.01    3.36
  -7 -15  -6    3.92    1.58
   7  15   6   -0.13    2.78
  -6 -16  -6    3.29    1.66
   6  16   6    0.83    2.73
 -16  -4  -6    3.39    1.66
  16   4   6   -0.12    3.27
 -15  -5  -6    2.46    1.07
  15   5   6   -0.17    2.01
 -14  -6  -6    0.88    0.92
  14   6   6    0.05    1.91
 -13  -7  -6    3.21    1.18
  13   7   6    0.08    2.38
 -12  -8  -6    1.21    1.03
  12   8   6    0.26    2.19
 -11  -9  -6    9.12    1.58
  11   9   6    0.24    3.15
 -10 -10  -6   -0.90    1.55
  10  10   6   -0.12    1.98
  -9 -11  -6    4.76    1.44
   9  11   6    0.42    2.75
  -8 -12  -6   -0.15    0.98
   8  12   6   -0.31    2.78
  -7 -13  -6    5.92    1.62
   7  13   6    0.26    2.75
  -6 -14  -6   -0.18    1.66
   6  14   6   -0.23    1.88
  -5 -15  -6    9.99    1.99
   5  15   6    0.04    5.03
  -4 -16  -6    0.88    1.29
   4  16   6    0.10    1.96
 -17  -1  -6    1.14    0.88
  17   1   6    1.04    2.23
 -16  -2  -6   -0.29    0.72
  16   2   6    1.59    1.28
 -15  -3  -6    6.07    1.23
  15   3   6    6.00    2.28
 -14  -4  -6    0.78    0.85
  14   4   6    0.19    2.80
 -13  -5  -6    5.56    1.22
  13   5   6   -0.07    2.42
 -12  -6  -6    1.74    1.45
  12   6   6   -0.02    1.97
 -11  -7  -6    1.72    1.47
  11   7   6   -0.18    2.05
 -10  -8  -6    0.69    0.92
  10   8   6   -0.07    1.85
  -9  -9  -6   12.02    1.65
   9   9   6    0.17    3.10
  -8 -10  -6   -0.38    0.93
   8  10   6    0.02    1.72
  -7 -11  -6   11.11    1.67
   7  11   6    0.37    2.97
  -6 -12  -6    0.78    1.56
   6  12   6   -0.18    1.86
  -5 -13  -6   16.45    1.98
   5  13   6    0.42    3.13
  -4 -14  -6    0.33    1.02
   4  14   6   -0.17    1.69
  -3 -15  -6   15.64    2.17
   3  15   6    0.61    3.25
  -2 -16  -6    1.16    2.00
   2  16   6    0.25    3.14
  -1 -17  -6    5.47    1.69
   1  17   6   -0.06    2.47
 -17   1  -6    1.25    1.33
  17  -1   6    3.25    1.46
 -16   0  -6   -0.34    1.07
  16   0   6   -0.45    1.94
 -15  -1  -6    7.79    1.70
  15   1   6    2.07    3.06
 -14  -2  -6    0.02    1.08
  14   2   6   -0.78    1.36
 -13  -3  -6   -0.20    1.14
  13   3   6    1.36    1.56
 -12  -4  -6   -0.33    0.75
  12   4   6   -1.52    2.54
 -11  -5  -6    2.25    1.01
  11   5   6    3.33    2.12
 -10  -6  -6    2.60    0.98
  10   6   6    0.03    2.03
  -9  -7  -6    1.83    0.97
   9   7   6   -0.05    2.00
  -8  -8  -6    0.91    0.91
   8   8   6   -0.42    1.71
  -7  -9  -6   16.07    2.88
   7   9   6   20.83    3.41
  -6 -10  -6    1.63    1.07
   6  10   6   -0.16    2.80
  -5 -11  -6   12.74    1.74
   5  11   6    0.17    2.74
  -4 -12  -6    0.44    0.97
   4  12   6   -0.33    1.58
  -3 -13  -6    9.81    2.53
   3  13   6    0.31    4.16
  -2 -14  -6    1.45    1.14
   2  14   6   -0.21    1.83
  -1 -15  -6    7.21    1.62
   1  15   6    0.42    2.51
   0 -16  -6    0.69    1.09
   0  16   6   -0.27    1.80
   1 -17  -6    0.78    1.79
  -1  17   6   -0.30    1.77
 -16   2  -6    1.10    0.71
  16  -2   6    0.92    1.19
 -15   1  -6    6.45    1.10
  15  -1   6    6.94    1.83
 -14   0  -6    0.14    0.64
  14   0   6    0.43    1.21
 -13  -1  -6    3.38    0.96
  13   1   6    1.97    2.98
 -12  -2  -6    2.07    0.88
  12   2   6    2.84    1.79
 -11  -3  -6    2.93    0.97
  11   3   6    3.54    2.03
 -10  -4  -6    1.23    1.31
  10   4   6    1.76    1.76
  -9  -5  -6    0.21    1.35
   9   5   6    2.81    1.74
  -8  -6  -6    2.00    1.45
   8   6   6    2.07    1.82
  -7  -7  -6    4.78    1.11
   7   7   6   -0.33    2.08
  -6  -8  -6    1.56    0.96
   6   8   6    0.08    1.62
  -5  -9  -6    3.63    1.12
   5   9   6   -0.20    1.90
  -4 -10  -6   -0.90    0.96
   4  10   6    0.07    2.49
  -3 -11  -6    6.63    1.95
   3  11   6    0.45    2.10
  -2 -12  -6    0.28    0.89
   2  12   6   -0.14    1.44
  -1 -13  -6    5.61    1.39
   1  13   6   -0.65    2.22
   0 -14  -6    0.95    1.07
   0  14   6   -0.09    2.77
   1 -15  -6    6.09    2.19
  -1  15   6   -0.04    2.17
   2 -16  -6    1.05    1.19
  -2  16   6   -0.45    1.85
 -15   3  -6   14.80    1.26
  15  -3   6   11.61    1.93
 -14   2  -6    0.10    0.56
  14  -2   6   -0.98    0.99
 -13   1  -6    4.78    0.89
  13  -1   6    2.40    1.74
 -12   0  -6    0.78    0.68
  12   0   6    1.65    1.46
 -11  -1  -6    6.10    1.02
  11   1   6    5.12    2.08
 -10  -2  -6   -0.39    0.65
  10   2   6    0.61    2.16
  -9  -3  -6    1.45    0.83
   9   3   6    3.81    1.71
  -8  -4  -6   -0.22    0.69
   8   4   6   -1.01    1.38
  -7  -5  -6    0.65    0.71
   7   5   6   -0.52    1.41
  -6  -6  -6    0.45    0.90
   6   6   6    3.20    1.48
  -5  -7  -6    4.05    1.59
   5   7   6    0.31    1.79
  -4  -8  -6    4.05    1.09
   4   8   6    0.05    2.91
  -3  -9  -6    4.47    1.12
   3   9   6   -0.04    1.89
  -2 -10  -6    0.39    0.83
   2  10   6   -0.27    1.36
  -1 -11  -6   10.99    1.62
   1  11   6   -0.07    3.85
   0 -12  -6   -0.03    1.33
   0  12   6   -0.27    1.39
   1 -13  -6    2.64    1.20
  -1  13   6    0.23    1.98
   2 -14  -6   -0.26    0.93
  -2  14   6    0.11    1.58
   3 -15  -6    7.46    1.60
  -3  15   6   -0.45    2.65
   4 -16  -6   -2.04    2.04
  -4  16   6   -0.07    3.24
 -16   6  -6    3.45    2.02
 -14   4  -6    0.52    0.52
  14  -4   6    1.51    1.39
 -13   3  -6    9.80    1.45
  13  -3   6   10.09    2.88
 -12   2  -6    0.77    1.00
  12  -2   6    2.09    2.06
 -11   1  -6    9.86    1.59
  11  -1   6    6.99    3.25
 -10   0  -6   -0.15    0.84
  10   0   6    0.62    1.20
  -9  -1  -6    6.74    1.67
   9   1   6   12.75    2.19
  -8  -2  -6    0.72    1.05
   8   2   6    1.75    2.22
  -7  -3  -6    1.89    1.28
   7   3   6    4.17    1.69
  -6  -4  -6    1.59    0.80
   6   4   6    0.45    1.43
  -5  -5  -6    1.24    0.69
   5   5   6   -2.71    1.29
  -4  -6  -6   -1.10    0.77
   4   6   6    0.72    1.27
  -3  -7  -6    2.12    0.92
   3   7   6    0.34    1.59
  -2  -8  -6   -0.79    0.83
   2   8   6   -0.16    2.25
  -1  -9  -6   15.03    2.18
   1   9   6    0.14    2.33
   0 -10  -6   -0.48    0.82
   0  10   6    0.16    1.44
   1 -11  -6    5.85    1.27
  -1  11   6   -0.31    2.16
   2 -12  -6    2.04    1.10
  -2  12   6   -0.24    2.79
   3 -13  -6    0.37    1.35
  -3  13   6   -0.16    1.37
   4 -14  -6    0.05    1.44
  -4  14   6    0.28    1.49
   5 -15  -6    4.34    1.36
  -5  15   6   -0.22    2.28
   6 -16  -6    0.10    1.01
  -6  16   6    0.05    1.63
 -14   6  -6    0.79    1.46
  13  -5   6    9.78    2.24
 -12   4  -6    0.08    0.81
  12  -4   6   -1.63    0.99
 -11   3  -6    5.50    0.84
  11  -3   6    5.14    1.65
 -10   2  -6    0.35    0.56
  10  -2   6    1.82    1.24
  -9   1  -6   11.43    1.14
   9  -1   6   14.92    2.28
  -8   0  -6    2.44    0.74
   8   0   6    1.47    2.37
  -7  -1  -6   10.60    1.15
   7   1   6    9.99    2.18
  -6  -2  -6    0.28    0.57
   6   2   6   -0.04    1.08
  -5  -3  -6    1.33    0.76
   5   3   6    0.64    1.36
  -4  -4  -6    1.91    1.13
   4   4   6   -0.51    1.28
  -3  -5  -6    0.98    1.26
   3   5   6    1.77    1.42
  -2  -6  -6    0.26    0.71
   2   6   6    0.47    1.24
  -1  -7  -6    7.33    1.18
   1   7   6    0.15    1.99
   0  -8  -6    2.31    1.01
   0   8   6    0.26    1.73
   1  -9  -6   10.76    1.48
  -1   9   6    0.17    3.55
   2 -10  -6    2.33    1.54
  -2  10   6   -0.17    1.59
   3 -11  -6    1.55    1.51
  -3  11   6    0.49    1.70
   4 -12  -6   -1.18    0.99
  -4  12   6   -0.41    1.63
   5 -13  -6    5.97    1.38
  -5  13   6    0.20    2.34
   6 -14  -6    0.39    0.98
  -6  14   6   -0.01    2.54
 -14   8  -6    2.04    1.69
 -13   7  -6    5.49    2.17
 -12   6  -6    1.44    1.53
 -11   5  -6    8.55    1.27
  11  -5   6    9.08    1.55
 -10   4  -6    0.56    0.49
  10  -4   6   -0.43    1.03
  -9   3  -6    1.95    0.68
   9  -3   6    4.15    1.46
  -8   2  -6    0.42    0.53
   8  -2   6    0.54    1.14
  -7   1  -6    6.08    0.87
   7  -1   6    2.85    1.67
  -6   0  -6    1.65    0.67
   6   0   6    0.14    1.20
  -5  -1  -6    9.20    1.11
   5   1   6   11.65    1.92
  -4  -2  -6    3.75    0.86
   4   2   6    0.71    1.46
  -3  -3  -6    6.40    1.04
   3   3   6    4.27    2.69
  -2  -4  -6    2.78    0.92
   2   4   6    1.97    1.54
  -1  -5  -6   20.60    1.75
   1   5   6   20.07    2.76
   0  -6  -6   -0.09    1.13
   0   6   6    1.09    1.82
   1  -7  -6   10.87    1.84
  -1   7   6    0.22    2.06
   2  -8  -6    0.62    0.80
  -2   8   6    0.26    1.39
   3  -9  -6   -1.08    0.88
  -3   9   6    0.06    2.34
   4 -10  -6   -1.07    0.82
  -4  10   6    4.48    2.28
   5 -11  -6    2.28    1.08
  -5  11   6    2.55    1.79
   6 -12  -6    0.91    1.48
  -6  12   6    0.32    1.65
 -13   9  -6    1.33    1.57
 -12   8  -6    0.85    1.41
 -11   7  -6   12.45    3.70
 -10   6  -6    0.43    0.68
 -10   6  -6    1.40    1.36
  10  -6   6    1.57    1.33
  -9   5  -6    2.88    0.60
  -9   5  -6    1.72    1.64
   9  -5   6    1.93    2.01
  -8   4  -6    1.49    0.60
   8  -4   6    3.52    1.26
  -7   3  -6    2.80    0.66
   7  -3   6    1.80    2.06
  -6   2  -6   -0.69    0.53
   6  -2   6   -0.34    1.58
  -5   1  -6   17.71    1.82
   5  -1   6   16.67    2.12
  -4   0  -6    0.19    0.84
   4   0   6   -0.99    1.00
  -3  -1  -6   19.57    2.02
   3   1   6   18.84    3.53
  -2  -2  -6    0.54    0.70
   2   2   6    2.76    1.24
  -1  -3  -6    6.27    1.06
   1   3   6    9.98    2.82
   0  -4  -6    0.09    0.66
   0   4   6    0.73    1.11
   1  -5  -6   10.87    1.38
  -1   5   6   13.24    2.22
   2  -6  -6    0.73    0.77
  -2   6   6   -0.19    2.01
   3  -7  -6    1.87    1.00
  -3   7   6    3.78    1.64
   4  -8  -6    1.41    1.31
  -4   8   6   -0.29    1.41
   5  -9  -6    0.98    1.44
  -5   9   6    1.91    1.63
  -6  10   6    3.07    1.93
   7 -11  -6    2.28    1.06
  -7  11   6    0.73    1.86
 -13  11  -6    0.87    1.50
 -12  10  -6    0.80    2.31
 -11   9  -6    5.61    1.95
 -10   8  -6    0.90    1.33
  -9   7  -6   21.24    3.81
   9  -7   6   15.28    1.73
  -8   6  -6   -0.33    0.36
  -8   6  -6    1.25    0.97
   8  -6   6    0.97    0.78
  -7   5  -6    2.48    1.55
  -7   5  -6    3.48    0.63
   7  -5   6    3.21    1.27
  -6   4  -6    0.51    0.47
   6  -4   6    0.01    0.93
  -5   3  -6    1.82    0.93
   5  -3   6    1.41    1.10
  -4   2  -6    4.10    1.08
   4  -2   6    1.50    1.26
  -3   1  -6    5.32    1.37
   3  -1   6    8.14    2.38
  -2   0  -6    1.42    1.01
   2   0   6    0.21    1.14
  -1  -1  -6    7.29    1.56
   1   1   6    8.69    2.63
   0  -2  -6    1.09    0.88
   0   2   6   -1.20    0.98
   1  -3  -6   21.39    2.32
  -1   3   6   20.59    3.82
   2  -4  -6    0.66    1.32
  -2   4   6    4.00    1.48
   3  -5  -6    2.37    0.84
  -3   5   6   -0.05    1.47
   4  -6  -6    4.25    1.06
  -4   6   6    4.85    1.81
   5  -7  -6    0.69    0.86
  -5   7   6    2.18    2.26
   6  -8  -6    0.42    0.79
 -12  12  -6    1.82    1.64
 -11  11  -6    8.23    2.15
 -10  10  -6    2.81    1.62
  -9   9  -6   11.20    2.27
  -8   8  -6   -0.02    0.96
  -7   7  -6    4.98    1.55
  -7   7  -6    3.55    0.90
   7  -7   6    3.76    1.75
  -6   6  -6    0.38    0.40
  -6   6  -6   -0.26    0.98
   6  -6   6   -0.25    0.78
  -5   5  -6   -0.19    0.42
  -5   5  -6    0.72    0.96
   5  -5   6   -0.46    0.77
  -4   4  -6    1.65    0.82
  -4   4  -6   -1.39    1.11
   4  -4   6    1.65    1.44
  -3   3  -6    5.09    0.77
   3  -3   6    3.18    2.09
  -2   2  -6    0.99    0.58
   2  -2   6   -0.14    1.03
  -1   1  -6    7.05    0.96
   1  -1   6    8.92    2.45
   0   0  -6    0.50    0.58
   0   0   6   -0.30    1.01
   1  -1  -6    7.56    1.06
  -1   1   6    9.03    2.71
   2  -2  -6   -0.50    0.66
  -2   2   6    0.42    1.09
   3  -3  -6    4.50    1.03
  -3   3   6    5.93    1.70
   4  -4  -6    1.10    0.79
  -4   4   6    0.62    2.00
   5  -5  -6    1.17    1.29
 -11  13  -6   13.83    2.54
 -10  12  -6   -0.61    2.07
  -9  11  -6    8.04    2.07
  -8  10  -6    0.41    1.17
  -7   9  -6   -0.36    1.80
  -6   8  -6   -0.31    0.53
  -6   8  -6   -0.62    0.93
   6  -8   6    0.88    0.64
  -5   7  -6    0.59    1.07
  -5   7  -6    0.47    0.45
   5  -7   6    0.74    0.79
  -4   6  -6    0.55    1.86
  -4   6  -6    1.84    0.56
   4  -6   6    0.79    0.96
  -3   5  -6    2.04    0.89
  -3   5  -6   -0.48    1.18
   3  -5   6    2.01    1.00
  -2   4  -6    2.78    0.66
  -2   4  -6    0.17    1.20
   2  -4   6    1.88    1.14
  -1   3  -6   17.94    1.35
  -1   3  -6   23.25    2.15
   1  -3   6   19.89    2.10
   0   2  -6    0.53    0.58
   0  -2   6    0.74    0.99
   1   1  -6    7.58    1.04
  -1  -1   6   10.14    1.66
   2   0  -6   -0.22    0.62
  -2   0   6   -0.27    0.99
   3  -1  -6    7.09    1.11
  -3   1   6    8.58    2.69
   4  -2  -6    3.54    0.94
  -4   2   6    1.81    1.47
   5  -3  -6    2.38    0.88
  -5   3   6    1.90    1.42
   6  -4  -6   -0.69    0.76
  -9  13  -6    5.21    1.93
  -8  12  -6    0.66    2.03
  -7  11  -6    5.09    1.73
  -6  10  -6   -0.01    0.93
  -5   9  -6   -0.20    1.00
   5  -9   6    0.28    0.86
  -4   8  -6    2.76    1.75
  -4   8  -6    0.78    0.45
   4  -8   6    0.19    0.74
  -3   7  -6   -0.07    1.21
  -3   7  -6    2.52    0.59
   3  -7   6    1.86    0.97
  -2   6  -6   -0.26    1.04
  -2   6  -6    1.21    0.85
   2  -6   6    1.21    0.87
  -1   5  -6    0.62    2.15
   1  -5   6    7.26    1.94
   0   4  -6   -0.21    0.52
   0   4  -6    0.23    0.81
   0  -4   6   -0.48    0.85
   1   3  -6    7.69    1.00
   1   3  -6   10.04    1.47
  -1  -3   6    6.37    1.53
   2   2  -6    0.07    0.71
   2   2  -6    2.89    0.94
  -2  -2   6    1.02    1.11
   3   1  -6   20.85    2.32
  -3  -1   6   21.87    2.41
   4   0  -6    0.58    1.04
  -4   0   6    0.10    1.05
   5  -1  -6   19.85    2.36
  -5   1   6   19.12    2.51
   6  -2  -6   -0.65    0.77
  -6   2   6   -0.43    1.80
   7  -3  -6    4.94    1.10
  10  -6  -6    0.68    0.94
  -8  14  -6    1.43    1.44
  -7  13  -6    4.54    1.81
  -6  12  -6    0.01    0.98
  -5  11  -6    1.45    2.04
  -4  10  -6    0.77    1.13
  -3   9  -6    0.92    1.11
   3  -9   6    0.95    1.13
  -2   8  -6    0.43    1.01
   2  -8   6    0.83    1.20
  -1   7  -6    0.77    2.14
  -1   7  -6    3.67    0.77
   1  -7   6   12.11    1.86
   0   6  -6    0.28    0.52
   0   6  -6   -1.32    0.85
   0  -6   6    1.28    0.79
   1   5  -6   17.23    1.37
   1   5  -6   21.99    1.96
  -1  -5   6   18.06    1.97
   2   4  -6    2.22    1.25
   2   4  -6    5.00    1.16
  -2  -4   6    4.26    2.00
   3   3  -6    2.75    1.44
  -3  -3   6    7.55    1.43
   4   2  -6    2.29    1.34
   4   2  -6    2.43    0.98
  -4  -2   6    3.44    1.36
   5   1  -6   11.07    1.30
   5   1  -6   11.00    1.39
  -5  -1   6   11.38    2.83
   6   0  -6    0.92    0.87
   6   0  -6    2.60    0.83
  -6   0   6    1.75    1.31
   7  -1  -6    6.73    1.16
   7  -1  -6    5.80    1.06
  -7   1   6    5.07    1.74
   8  -2  -6   -1.58    0.87
   8  -2  -6   -1.14    0.73
  11  -5  -6    7.75    2.36
  -7  15  -6    3.58    1.65
  -6  14  -6    0.22    1.76
  -5  13  -6    3.71    1.58
  -4  12  -6    1.35    1.24
  -3  11  -6    0.68    1.12
  -2  10  -6   -0.35    1.32
   2 -10   6    0.11    0.54
  -1   9  -6   11.84    1.66
   1  -9   6    7.79    1.29
   0   8  -6    0.28    1.06
   0  -8   6    2.06    0.92
   1   7  -6    0.29    1.19
  -1  -7   6    5.12    1.12
   2   6  -6   -0.20    0.80
  -2  -6   6   -0.31    1.28
   3   5  -6    1.77    1.43
   3   5  -6    0.73    0.67
  -3  -5   6    1.21    1.01
   4   4  -6    0.84    0.67
   4   4  -6   -0.15    0.82
  -4  -4   6    2.64    1.54
   5   3  -6    1.29    0.79
   5   3  -6    2.14    0.87
  -5  -3   6    1.06    1.15
   6   2  -6   -0.13    0.70
   6   2  -6   -1.30    0.71
  -6  -2   6    0.43    1.05
   7   1  -6   11.31    1.39
   7   1  -6   11.62    1.28
  -7  -1   6   12.98    3.02
   8   0  -6    2.93    0.79
   8   0  -6    1.50    0.98
  -8   0   6    2.45    1.41
   9  -1  -6   18.80    1.72
   9  -1  -6   13.56    1.25
  -9   1   6   14.48    2.36
  10  -2  -6   -0.31    0.49
  10  -2  -6    0.29    0.79
 -10   2   6    0.05    1.09
  11  -3  -6    4.88    1.37
  11  -3  -6    6.77    0.82
  12  -4  -6    1.58    1.11
  -6  16  -6    0.03    1.62
  -5  15  -6    3.73    1.62
  -4  14  -6    0.09    0.97
  -3  13  -6   -0.38    1.06
  -2  12  -6    0.31    1.58
  -1  11  -6    0.84    1.08
   0  10  -6   -0.39    0.90
   0 -10   6   -0.15    0.64
   1   9  -6   17.09    1.86
  -1  -9   6   13.21    1.55
   2   8  -6    0.14    0.75
  -2  -8   6    0.25    1.18
   3   7  -6    0.51    1.53
  -3  -7   6    2.23    1.04
   4   6  -6    1.11    0.84
  -4  -6   6   -0.06    1.44
   5   5  -6    0.10    0.75
  -5  -5   6    1.39    0.96
   6   4  -6    1.93    0.87
  -6  -4   6    1.95    1.81
   7   3  -6    2.28    0.84
  -7  -3   6    1.98    1.26
   8   2  -6    2.58    0.76
  -8  -2   6   -0.28    1.29
   9   1  -6   10.23    1.04
  -9  -1   6    0.03    1.85
  10   0  -6   -0.65    0.56
 -10   0   6    0.00    1.24
  11  -1  -6    9.03    0.93
 -11   1   6   -0.02    3.10
 -12   2   6    0.06    1.73
 -13   3   6    9.96    2.30
 -14   4   6    0.41    1.45
 -15   5   6   12.98    2.84
 -16   6   6    4.10    2.21
  -4  16  -6    1.14    1.28
  -3  15  -6    0.50    1.80
  -2  14  -6   -0.13    0.95
  -1  13  -6    0.12    0.92
   0  12  -6    0.67    1.00
   1  11  -6   10.53    1.68
   2  10  -6   -0.54    1.28
  -2 -10   6    0.13    1.09
   3   9  -6   -0.01    1.65
  -3  -9   6    3.36    1.06
   4   8  -6   -0.24    0.83
  -4  -8   6    1.36    0.89
   5   7  -6    2.71    1.01
  -5  -7   6    3.71    1.18
   6   6  -6    0.31    0.69
  -6  -6   6   -0.28    1.30
   7   5  -6   -0.64    0.67
  -7  -5   6    0.10    0.94
   8   4  -6    0.57    0.69
  -8  -4   6    1.47    1.11
   9   3  -6    1.95    0.74
  -9  -3   6    2.71    2.03
  10   2  -6    0.82    0.59
 -10  -2   6   -0.03    1.14
  11   1  -6    5.44    0.77
 -11  -1   6   -0.14    1.68
 -12   0   6   -0.04    1.09
 -13   1   6    0.02    1.10
 -14   2   6    0.22    1.25
 -15   3   6   12.40    2.67
 -16   4   6   -1.61    1.83
  -2  16  -6   -0.26    1.06
  -1  15  -6   -0.16    1.00
   0  14  -6   -0.59    0.99
   1  13  -6    0.06    1.34
   2  12  -6    0.15    1.64
  -2 -12   6    1.68    0.77
  -2 -12   6    1.33    0.67
   3  11  -6    0.48    1.17
  -3 -11   6    4.77    1.03
   4  10  -6    0.23    0.75
  -4 -10   6    0.14    0.73
   5   9  -6   -0.15    0.80
  -5  -9   6    1.35    0.89
   6   8  -6    0.93    0.78
  -6  -8   6    0.07    0.93
   7   7  -6    4.89    1.03
  -7  -7   6    3.19    1.33
   8   6  -6    0.93    0.74
  -8  -6   6    2.86    1.74
   9   5  -6    0.92    0.65
  -9  -5   6   -0.35    1.05
  10   4  -6    0.09    0.50
 -10  -4   6   -0.02    0.96
  11   3  -6    2.66    0.69
 -11  -3   6   -0.09    1.42
  12   2  -6    1.58    0.82
 -12  -2   6   -0.11    1.35
 -13  -1   6   -0.03    1.09
 -14   0   6    0.09    1.83
 -15   1   6   12.62    3.79
 -16   2   6    3.24    2.97
  -1  17  -6    1.09    1.16
   0  16  -6    0.29    1.56
   1  15  -6    1.42    1.18
   2  14  -6    0.65    0.99
   3  13  -6   11.51    1.68
   4  12  -6    0.46    0.78
  -4 -12   6   -0.55    0.94
  -4 -12   6    0.42    1.04
   5  11  -6    9.59    1.49
  -5 -11   6    8.87    1.50
  -5 -11   6   14.05    1.44
   6  10  -6    1.30    0.87
  -6 -10   6    1.14    0.96
   7   9  -6   16.49    1.61
  -7  -9   6   16.89    1.97
   8   8  -6    1.70    0.79
  -8  -8   6    0.65    1.08
   9   7  -6    1.92    0.81
  -9  -7   6    2.27    1.20
  10   6  -6    0.11    0.60
 -10  -6   6    1.07    1.03
  11   5  -6    2.22    0.68
 -11  -5   6   -0.13    2.08
  12   4  -6    0.37    0.69
 -12  -4   6   -0.04    1.06
 -13  -3   6    0.05    1.04
 -14  -2   6    0.01    1.02
 -15  -1   6   -0.01    1.09
 -16   0   6    0.02    1.12
 -17   1   6    3.46    1.96
   1  17  -6   -0.23    0.96
   2  16  -6    0.63    0.98
   3  15  -6   11.71    1.67
   4  14  -6   -0.88    0.92
   5  13  -6   10.36    1.48
  -5 -13   6    9.49    1.37
  -5 -13   6    7.01    1.78
   6  12  -6    0.75    0.90
  -6 -12   6    2.12    0.96
  -6 -12   6    1.72    0.82
   7  11  -6    8.17    1.25
  -7 -11   6    6.70    2.23
  -7 -11   6    8.78    1.33
   8  10  -6    0.02    0.62
  -8 -10   6   -0.51    0.83
  -8 -10   6    0.00    0.77
   9   9  -6   13.16    1.29
  -9  -9   6   12.55    1.85
  10   8  -6    0.01    0.58
 -10  -8   6    1.24    1.44
  11   7  -6    0.45    0.60
 -11  -7   6    2.02    1.12
  12   6  -6    1.29    0.84
 -12  -6   6    0.07    1.19
 -13  -5   6    0.05    1.01
 -14  -4   6   -0.11    1.09
 -15  -3   6    0.00    1.04
 -16  -2   6   -0.05    1.15
 -17  -1   6    0.08    1.23
   4  16  -6   -0.05    1.21
   5  15  -6    0.19    1.28
  -6 -14   6    0.42    0.83
  -6 -14   6    1.77    0.75
  -7 -13   6    5.46    1.77
  -7 -13   6    5.01    1.93
   8  12  -6    1.14    0.90
  -8 -12   6   -0.44    0.70
  -8 -12   6   -0.21    0.62
   9  11  -6    4.47    1.47
  -9 -11   6    3.15    1.30
  -9 -11   6    3.13    1.81
  10  10  -6    0.09    0.57
 -10 -10   6   -0.09    0.89
 -10 -10   6    0.54    0.84
  11   9  -6    3.11    0.90
 -11  -9   6    4.64    1.44
 -11  -9   6   10.21    1.55
  12   8  -6    0.47    0.52
 -12  -8   6    0.02    1.04
 -13  -7   6    0.02    0.97
 -14  -6   6    0.04    1.57
 -15  -5   6    0.12    1.68
 -16  -4   6   -0.09    1.78
   6  16  -6    0.01    0.69
   7  15  -6    2.90    1.04
   8  14  -6    0.52    0.67
  -8 -14   6   -0.91    1.06
  -8 -14   6    0.25    0.74
   9  13  -6    0.20    1.17
  -9 -13   6    0.27    1.46
  -9 -13   6    1.10    0.89
  10  12  -6    0.56    1.13
 -10 -12   6    0.31    1.03
 -10 -12   6    1.75    0.93
  11  11  -6    4.25    0.98
 -11 -11   6    8.33    1.38
 -11 -11   6    4.76    1.52
  12  10  -6    0.00    0.52
 -12 -10   6    0.46    1.48
 -12 -10   6   -1.79    1.35
 -13  -9   6    0.01    2.30
 -13  -9   6    6.69    1.48
 -14  -8   6   -0.01    1.19
 -14  -8   6    1.69    1.15
 -15  -7   6   -0.06    1.54
 -15  -7   6    5.11    1.41
 -16  -6   6   -0.04    1.06
  11  13  -6   -0.57    1.04
 -11 -13   6   -0.20    0.96
 -11 -13   6    1.78    0.90
  12  12  -6    0.13    0.56
 -12 -12   6    0.79    1.37
 -12 -12   6   -0.61    1.33
 -13 -11   6    9.48    1.81
 -13 -11   6    8.99    1.65
   0   0   0    0.00    0.00
;
_shelx_hkl_checksum              60537
#END Tags that were not found in dictionaries
loop_
_space_group_symop_operation_xyz
'x, y, z'
'-x+1/2, -y, z+1/2'
'-y+3/4, x+1/4, z+1/4'
'y+3/4, -x+3/4, z+3/4'
'x+1/2, y+1/2, z+1/2'
'-x+1, -y+1/2, z+1'
'-y+5/4, x+3/4, z+3/4'
'y+5/4, -x+5/4, z+5/4'
'-x, -y, -z'
'x-1/2, y, -z-1/2'
'y-3/4, -x-1/4, -z-1/4'
'-y-3/4, x-3/4, -z-3/4'
'-x+1/2, -y+1/2, -z+1/2'
'x, y+1/2, -z'
'y-1/4, -x+1/4, -z+1/4'
'-y-1/4, x-1/4, -z-1/4'
loop_
_atom_site_label
_atom_site_type_symbol
_atom_site_fract_x
_atom_site_fract_y
_atom_site_fract_z
_atom_site_U_iso_or_equiv
_atom_site_adp_type
_atom_site_occupancy
_atom_site_site_symmetry_order
_atom_site_calc_flag
_atom_site_refinement_flags_posn
_atom_site_refinement_flags_adp
_atom_site_refinement_flags_occupancy
Mn1 Mn 0.0000 0.2500 0.6250 0.02631(18) Uani 1 4 d S T P
N2 N -0.01861(6) 0.17453(6) 0.6220(3) 0.0300(4) Uani 1 1 d . . .
N1 N 0.0000 0.2500 1.0209(5) 0.0399(6) Uani 0.5 2 d S T P
C1 C 0.0000 0.2500 1.0209(5) 0.0399(6) Uani 0.5 2 d S T P
C2 C -0.06631(8) 0.15381(8) 0.5617(4) 0.0342(5) Uani 1 1 d . . .
C3 C -0.06126(9) 0.09864(9) 0.5314(5) 0.0448(6) Uani 1 1 d . . .
H3A H -0.0874 0.0758 0.4834 0.054 Uiso 1 1 calc R U .
C4 C -0.01170(9) 0.08607(9) 0.5853(5) 0.0463(6) Uani 1 1 d . . .
H4A H 0.0024 0.0528 0.5863 0.056 Uiso 1 1 calc R U .
C5 C 0.01536(8) 0.13351(8) 0.6410(4) 0.0335(5) Uani 1 1 d . . .
C6 C 0.06839(8) 0.13721(8) 0.6929(4) 0.0347(5) Uani 1 1 d . . .
C7 C 0.09718(8) 0.08745(8) 0.7376(5) 0.0387(5) Uani 1 1 d . . .
C8 C 0.13513(9) 0.07087(9) 0.5741(5) 0.0466(6) Uani 1 1 d . . .
H8A H 0.1436 0.0914 0.4377 0.056 Uiso 1 1 calc R U .
C9 C 0.16088(10) 0.02409(9) 0.6102(6) 0.0549(7) Uani 1 1 d . . .
H9A H 0.1862 0.0135 0.4981 0.066 Uiso 1 1 calc R U .
C10 C 0.14913(11) -0.00639(10) 0.8090(6) 0.0605(8) Uani 1 1 d . . .
H10A H 0.1665 -0.0376 0.8335 0.073 Uiso 1 1 calc R U .
C11 C 0.11147(13) 0.00928(10) 0.9732(6) 0.0654(8) Uani 1 1 d . . .
H11A H 0.1032 -0.0116 1.1085 0.078 Uiso 1 1 calc R U .
C12 C 0.08537(11) 0.05627(10) 0.9391(5) 0.0539(7) Uani 1 1 d . . .
H12A H 0.0600 0.0666 1.0519 0.065 Uiso 1 1 calc R U .
loop_
_atom_site_aniso_label
_atom_site_aniso_U_11
_atom_site_aniso_U_22
_atom_site_aniso_U_33
_atom_site_aniso_U_23
_atom_site_aniso_U_13
_atom_site_aniso_U_12
Mn1 0.0276(2) 0.0276(2) 0.0237(3) 0.000 0.000 0.000
N2 0.0283(8) 0.0285(8) 0.0332(9) 0.0003(7) -0.0023(7) 0.0004(7)
N1 0.0409(16) 0.0377(16) 0.0411(14) 0.000 0.000 -0.0004(14)
C1 0.0409(16) 0.0377(16) 0.0411(14) 0.000 0.000 -0.0004(14)
C2 0.0329(11) 0.0301(10) 0.0397(11) -0.0032(9) -0.0024(9) -0.0047(9)
C3 0.0361(12) 0.0327(11) 0.0657(16) -0.0095(11) -0.0033(11) -0.0051(10)
C4 0.0409(12) 0.0283(11) 0.0696(17) -0.0049(11) -0.0012(12) 0.0001(9)
C5 0.0335(10) 0.0273(10) 0.0395(11) -0.0011(9) -0.0020(9) 0.0022(8)
C6 0.0334(11) 0.0310(10) 0.0396(12) 0.0004(9) -0.0001(9) 0.0042(9)
C7 0.0365(12) 0.0299(11) 0.0498(13) -0.0009(10) -0.0073(10) 0.0017(9)
C8 0.0424(13) 0.0385(12) 0.0588(16) -0.0003(11) -0.0020(12) 0.0038(10)
C9 0.0464(14) 0.0394(13) 0.0788(19) -0.0112(14) -0.0059(14) 0.0088(11)
C10 0.0610(17) 0.0341(13) 0.086(2) -0.0032(14) -0.0252(16) 0.0120(12)
C11 0.082(2) 0.0432(15) 0.0710(19) 0.0188(14) -0.0124(17) 0.0041(14)
C12 0.0619(16) 0.0434(14) 0.0564(16) 0.0097(12) 0.0027(13) 0.0059(12)
loop_
_atom_type_symbol
_atom_type_description
_atom_type_scat_dispersion_real
_atom_type_scat_dispersion_imag
_atom_type_scat_source
C C 0.0033 0.0016 'International Tables Vol C Tables 4.2.6.8 and 6.1.1.4'
H H 0.0000 0.0000 'International Tables Vol C Tables 4.2.6.8 and 6.1.1.4'
N N 0.0061 0.0033 'International Tables Vol C Tables 4.2.6.8 and 6.1.1.4'
Mn Mn 0.3368 0.7283 'International Tables Vol C Tables 4.2.6.8 and 6.1.1.4'
loop_
_geom_angle_atom_site_label_1
_geom_angle_atom_site_label_2
_geom_angle_atom_site_label_3
_geom_angle
_geom_angle_site_symmetry_1
_geom_angle_site_symmetry_3
N2 Mn1 N2 179.07(10) . 6_454
N2 Mn1 N2 90.001(1) . 12_667
N2 Mn1 N2 90.004(2) 6_454 12_667
N2 Mn1 N2 90.007(1) . 15_556
N2 Mn1 N2 90.004(1) 6_454 15_556
N2 Mn1 N2 179.07(10) 12_667 15_556
N2 Mn1 N1 90.46(5) . .
N2 Mn1 N1 90.46(5) 6_454 .
N2 Mn1 N1 89.54(5) 12_667 .
N2 Mn1 N1 89.54(5) 15_556 .
N2 Mn1 C1 89.54(5) . 15_556
N2 Mn1 C1 89.54(5) 6_454 15_556
N2 Mn1 C1 90.46(5) 12_667 15_556
N2 Mn1 C1 90.46(5) 15_556 15_556
N1 Mn1 C1 180.0 . 15_556
N2 Mn1 N1 89.54(5) . 15_556
N2 Mn1 N1 89.54(5) 6_454 15_556
N2 Mn1 N1 90.46(5) 12_667 15_556
N2 Mn1 N1 90.46(5) 15_556 15_556
N1 Mn1 N1 180.0 . 15_556
C1 Mn1 N1 0.0 15_556 15_556
C5 N2 C2 106.69(16) . .
C5 N2 Mn1 126.35(13) . .
C2 N2 Mn1 126.25(14) . .
C1 N1 N1 0.000(1) 15_557 15_557
C1 N1 Mn1 180.0 15_557 .
N1 N1 Mn1 180.0 15_557 .
N2 C2 C6 124.79(18) . 15_556
N2 C2 C3 109.22(18) . .
C6 C2 C3 125.68(19) 15_556 .
C4 C3 C2 107.38(19) . .
C4 C3 H3A 126.3 . .
C2 C3 H3A 126.3 . .
C3 C4 C5 107.43(19) . .
C3 C4 H4A 126.3 . .
C5 C4 H4A 126.3 . .
N2 C5 C6 125.75(18) . .
N2 C5 C4 109.19(18) . .
C6 C5 C4 124.98(19) . .
C2 C6 C5 123.81(19) 12_667 .
C2 C6 C7 118.84(19) 12_667 .
C5 C6 C7 117.19(19) . .
C8 C7 C12 118.4(2) . .
C8 C7 C6 120.7(2) . .
C12 C7 C6 120.8(2) . .
C7 C8 C9 121.1(2) . .
C7 C8 H8A 119.5 . .
C9 C8 H8A 119.5 . .
C10 C9 C8 120.3(3) . .
C10 C9 H9A 119.9 . .
C8 C9 H9A 119.9 . .
C9 C10 C11 119.6(2) . .
C9 C10 H10A 120.2 . .
C11 C10 H10A 120.2 . .
C10 C11 C12 120.7(3) . .
C10 C11 H11A 119.7 . .
C12 C11 H11A 119.7 . .
C7 C12 C11 120.0(3) . .
C7 C12 H12A 120.0 . .
C11 C12 H12A 120.0 . .
loop_
_geom_bond_atom_site_label_1
_geom_bond_atom_site_label_2
_geom_bond_distance
_geom_bond_site_symmetry_2
Mn1 N2 2.0026(16) .
Mn1 N2 2.0026(16) 6_454
Mn1 N2 2.0026(16) 12_667
Mn1 N2 2.0026(16) 15_556
Mn1 N1 2.131(3) .
Mn1 C1 2.131(3) 15_556
Mn1 N1 2.131(3) 15_556
N2 C5 1.376(2) .
N2 C2 1.378(3) .
N1 C1 1.121(6) 15_557
N1 N1 1.121(6) 15_557
C2 C6 1.396(3) 15_556
C2 C3 1.437(3) .
C3 C4 1.349(3) .
C3 H3A 0.9300 .
C4 C5 1.439(3) .
C4 H4A 0.9300 .
C5 C6 1.398(3) .
C6 C2 1.395(3) 12_667
C6 C7 1.501(3) .
C7 C8 1.383(3) .
C7 C12 1.384(3) .
C8 C9 1.389(3) .
C8 H8A 0.9300 .
C9 C10 1.362(4) .
C9 H9A 0.9300 .
C10 C11 1.373(4) .
C10 H10A 0.9300 .
C11 C12 1.397(4) .
C11 H11A 0.9300 .
C12 H12A 0.9300 .
