#------------------------------------------------------------------------------
#$Date: 2016-03-26 14:37:05 +0200 (Sat, 26 Mar 2016) $
#$Revision: 180270 $
#$URL: svn://www.crystallography.net/cod/cif/7/11/56/7115647.cif $
#------------------------------------------------------------------------------
#
# This file is available in the Crystallography Open Database (COD),
# http://www.crystallography.net/
#
# All data on this site have been placed in the public domain by the
# contributors.
#
data_7115647
loop_
_publ_author_name
'Huimin Ding'
'Xiangshi Meng'
'Xu Cui'
'Yihui Yang'
'Tailin Zhou'
'Caixing Wang'
'Matthias Zeller'
'Cheng Wang'
_publ_section_title
;
 Highly-efficient synthesis of covalent porphyrinic cages via
 DABCO-templated imine condensation reactions
;
_journal_name_full               Chem.Commun.
_journal_page_first              11162
_journal_paper_doi               10.1039/C4cc05449K
_journal_volume                  50
_journal_year                    2014
_chemical_formula_moiety         'C110 H84 N18 Zn2, 8.79(C H Cl3)'
_chemical_formula_sum            'C118.79 H92.79 Cl26.38 N18 Zn2'
_chemical_formula_weight         2838.46
_chemical_name_systematic        'porphyrin cage-1'
_space_group_crystal_system      monoclinic
_space_group_IT_number           14
_space_group_name_Hall           '-P 2yn'
_space_group_name_H-M_alt        'P 1 21/n 1'
_symmetry_space_group_name_Hall  '-P 2yn'
_symmetry_space_group_name_H-M   'P 1 21/n 1'
_atom_sites_solution_hydrogens   geom
_atom_sites_solution_primary     direct
_atom_sites_solution_secondary   difmap
_audit_creation_method           SHELXL-2012
_cell_angle_alpha                90
_cell_angle_beta                 100.90(3)
_cell_angle_gamma                90
_cell_formula_units_Z            2
_cell_length_a                   18.058(4)
_cell_length_b                   17.549(4)
_cell_length_c                   21.217(4)
_cell_measurement_reflns_used    84794
_cell_measurement_temperature    293(2)
_cell_measurement_theta_max      28.44
_cell_measurement_theta_min      0.45
_cell_volume                     6602(3)
_computing_cell_refinement       'HKL2000 (Z. Otwinowski and W. Minor, 1997)'
_computing_data_collection
; 
marccd, control software for MarCCD-165 detector
;
_computing_data_reduction        'HKL2000 (Z. Otwinowski and W. Minor, 1997)'
_computing_structure_refinement
;  
SHELXL-2013 (Sheldrick, 2013), 
SHELXLE Rev609 (H\"ubschle et al., 2011)
;
_computing_structure_solution    'SHELXD / XM (Sheldrick, 2008)'
_diffrn_ambient_temperature      293(2)
_diffrn_measured_fraction_theta_full 0.974
_diffrn_measured_fraction_theta_max 0.997
_diffrn_measurement_device_type
; 
Beijing Synchrotron Radiation Facility, beam line station 
3W1A equipped with a MarCCD-165 detector (the monochrome 
x-ray source is produced by accelerator and selected by 
a double crystal monochromator)
;
_diffrn_measurement_method       'omega and phi scans'
_diffrn_radiation_type           synchrotron
_diffrn_radiation_wavelength     0.8001
_diffrn_reflns_av_R_equivalents  0.0197
_diffrn_reflns_av_unetI/netI     0.0289
_diffrn_reflns_Laue_measured_fraction_full 0.974
_diffrn_reflns_Laue_measured_fraction_max 0.997
_diffrn_reflns_limit_h_max       21
_diffrn_reflns_limit_h_min       -21
_diffrn_reflns_limit_k_max       0
_diffrn_reflns_limit_k_min       -20
_diffrn_reflns_limit_l_max       25
_diffrn_reflns_limit_l_min       -25
_diffrn_reflns_number            21117
_diffrn_reflns_point_group_measured_fraction_full 0.974
_diffrn_reflns_point_group_measured_fraction_max 0.997
_diffrn_reflns_theta_full        28.689
_diffrn_reflns_theta_max         28.447
_diffrn_reflns_theta_min         2.560
_diffrn_source                   synchrotron
_exptl_absorpt_coefficient_mu    1.312
_exptl_absorpt_correction_type   none
_exptl_crystal_colour            red
_exptl_crystal_density_diffrn    1.428
_exptl_crystal_description       block
_exptl_crystal_F_000             2880.1
_exptl_crystal_size_max          0.45
_exptl_crystal_size_mid          0.30
_exptl_crystal_size_min          0.20
_refine_diff_density_max         0.616
_refine_diff_density_min         -0.399
_refine_diff_density_rms         0.067
_refine_ls_extinction_coef       0.0057(5)
_refine_ls_extinction_expression Fc^*^=kFc[1+0.001xFc^2^\l^3^/sin(2\q)]^-1/4^
_refine_ls_extinction_method     SHELXL
_refine_ls_goodness_of_fit_ref   1.063
_refine_ls_hydrogen_treatment    constr
_refine_ls_matrix_type           full
_refine_ls_number_parameters     1171
_refine_ls_number_reflns         11629
_refine_ls_number_restraints     496
_refine_ls_restrained_S_all      1.098
_refine_ls_R_factor_all          0.0607
_refine_ls_R_factor_gt           0.0524
_refine_ls_shift/su_max          0.002
_refine_ls_shift/su_mean         0.000
_refine_ls_structure_factor_coef Fsqd
_refine_ls_weighting_details
;
 w=1/[\s^2^(Fo^2^)+(0.0964P)^2^+3.7800P]
 where P=(Fo^2^+2Fc^2^)/3
;
_refine_ls_weighting_scheme      calc
_refine_ls_wR_factor_gt          0.1508
_refine_ls_wR_factor_ref         0.1575
_reflns_Friedel_coverage         0.000
_reflns_number_gt                9725
_reflns_number_total             11629
_reflns_threshold_expression     'I > 2\s(I)'
_cod_data_source_file            c4cc05449k2.cif
_cod_data_source_block           cage_MZ
_cod_original_cell_volume        6602(2)
_cod_database_code               7115647
#BEGIN Tags that were not found in dictionaries:
_shelx_space_group_comment
;
The symmetry employed for this shelxl refinement is uniquely defined
by the following loop, which should always be used as a source of
symmetry information in preference to the above space-group names.
They are only intended as comments.
;
_shelxl_version_number           2012-9
_shelx_res_file
;
TITL cage_MZ in P2(1)/n
CELL 0.8001  18.0580  17.5490  21.2170  90.000 100.900  90.000
ZERR    4.00   0.0036   0.0035   0.0042   0.000   0.030   0.000
LATT  1
SYMM 0.5-X, 0.5+Y, 0.5-Z
SFAC C H N ZN Cl
DISP    C   -0.00202   0.00212       14.61
DISP    H    0.00000   0.00000        0.67
DISP    N   -0.00307   0.00432       25.92
DISP    Zn   0.15861   1.76632     8077.85
DISP    Cl   0.14726   0.20188      942.67
UNIT 237.6 185.6 36 4 52.78
LIST 4 ! automatically inserted. Change 6 to 4 for CHECKCIF!!

L.S. 15
BOND $H
ACTA
CONF
HTAB
FMAP 2
PLAN 20
SADI 0.001 C45 C23 C48 C35_$1 C52 C41_$1 C52B C41_$1
EQIV $1 1-x, 1-y, -z
SADI N7 C50 N7 C50B
FLAT 0.3 C39_$1 C40_$1 C41_$1 C42_$1 C43_$1 C44_$1 C52B
EADP C45 C45B
EADP C48 C48B
EADP C50 C50B
EADP C51 C51B
EADP C52 C52B
EADP N8 N8B
RIGU C45B N5B C46B C47B N6B C48B
RIGU C62B Cl1B Cl2B Cl3B
RIGU C64 Cl16 Cl17 Cl18
RIGU C64B Cl7B Cl8B Cl9B
ISOR Cl7B Cl8B Cl9B
RIGU C63B Cl4B Cl5B Cl6B
ISOR Cl7C Cl8C Cl9C
RIGU C64C Cl7C Cl8C Cl9C
ISOR Cl7D Cl8D Cl9D
RIGU C64D Cl7D Cl8D Cl9D
RIGU C59B Cl1B Cl2B Cl3B
RIGU C60B Cl4C Cl5C Cl6C
RIGU C61B Cl7E Cl8E Cl9E
RIGU C62B Cl1B Cl2B Cl3B
RIGU C62C Cl1D Cl2D Cl3D
ISOR C62B Cl1C Cl2C Cl3C
ISOR C62C Cl1C Cl2C Cl3C
EADP C59 C59B
EADP C60 C60B
EADP C61 C61B
EADP C62 C62B C62C
EADP C63 C63B
EADP C64 C64B C64C C64D
ISOR 0.01 C64
OMIT -1 0 3

WGHT    0.096400    3.780000
EXTI    0.005691
FVAR       0.19727   0.81858   0.48247   0.43187   0.25037   0.35646   0.74546
FVAR       0.33048   0.21705   0.27172   0.15761   0.08948   0.15877   0.35041
FVAR       0.14493   0.09087   0.89679   0.24709
C1    1    0.743930    0.509260    0.148265    11.00000    0.03313    0.04975 =
         0.03331    0.00420    0.00072    0.00172
C2    1    0.801190    0.454947    0.140642    11.00000    0.03691    0.05120 =
         0.03885    0.00633    0.00302    0.00776
AFIX  43
H2    2    0.821145    0.417269    0.169775    11.00000   -1.20000
AFIX   0
C3    1    0.820546    0.468789    0.083466    11.00000    0.03277    0.05460 =
         0.04100    0.00002    0.00560    0.00570
AFIX  43
H3    2    0.856366    0.442389    0.065815    11.00000   -1.20000
AFIX   0
C4    1    0.775810    0.531687    0.054792    11.00000    0.02954    0.05675 =
         0.03427   -0.00028    0.00333    0.00205
C5    1    0.783241    0.568884   -0.002153    11.00000    0.03562    0.06197 =
         0.03587    0.00388    0.00680    0.00536
C6    1    0.740672    0.631448   -0.029777    11.00000    0.03921    0.06802 =
         0.03496    0.00684    0.00907    0.00490
C7    1    0.752124    0.671335   -0.086706    11.00000    0.05437    0.08982 =
         0.04133    0.01867    0.02054    0.01754
AFIX  43
H7    2    0.787311    0.659165   -0.111949    11.00000   -1.20000
AFIX   0
C8    1    0.702888    0.728925   -0.096447    11.00000    0.05771    0.08257 =
         0.04295    0.02500    0.01475    0.01394
AFIX  43
H8    2    0.697535    0.764248   -0.129676    11.00000   -1.20000
AFIX   0
C9    1    0.659573    0.726210   -0.045929    11.00000    0.04091    0.06011 =
         0.03187    0.00756    0.00276    0.00155
C10   1    0.604017    0.778800   -0.038413    11.00000    0.04170    0.05063 =
         0.03421    0.00484   -0.00132   -0.00329
C11   1    0.563868    0.779551    0.012001    11.00000    0.03908    0.04449 =
         0.03234    0.00260   -0.00206   -0.00234
C12   1    0.509978    0.836852    0.021534    11.00000    0.04671    0.04359 =
         0.04021    0.00255   -0.00158    0.00305
AFIX  43
H12   2    0.491912    0.876221   -0.006534    11.00000   -1.20000
AFIX   0
C13   1    0.490641    0.822796    0.078646    11.00000    0.04429    0.04714 =
         0.04035   -0.00146    0.00219    0.00610
AFIX  43
H13   2    0.457039    0.850916    0.097563    11.00000   -1.20000
AFIX   0
C14   1    0.531762    0.755932    0.105098    11.00000    0.03671    0.04253 =
         0.03336   -0.00342    0.00091   -0.00143
C15   1    0.532257    0.726258    0.166460    11.00000    0.04073    0.04596 =
         0.03445   -0.00372    0.00464    0.00141
C16   1    0.575184    0.664680    0.194686    11.00000    0.04419    0.05324 =
         0.03151    0.00003    0.00755    0.00568
C17   1    0.577259    0.637904    0.259235    11.00000    0.06222    0.06508 =
         0.03446    0.00462    0.01491    0.01556
AFIX  43
H17   2    0.549039    0.656592    0.288250    11.00000   -1.20000
AFIX   0
C18   1    0.627836    0.580673    0.269550    11.00000    0.06569    0.06753 =
         0.03355    0.01113    0.01333    0.01820
AFIX  43
H18   2    0.641345    0.552895    0.307305    11.00000   -1.20000
AFIX   0
C19   1    0.657217    0.570255    0.211583    11.00000    0.04703    0.05458 =
         0.03101    0.00765    0.00543    0.00762
C20   1    0.713016    0.518213    0.203609    11.00000    0.03973    0.05298 =
         0.03282    0.00596    0.00439    0.00357
C21   1    0.848061    0.545001   -0.032900    11.00000    0.03974    0.07074 =
         0.03787    0.00668    0.00718    0.00819
C22   1    0.849504    0.476723   -0.063458    11.00000    0.04365    0.07253 =
         0.04758   -0.00323    0.00738    0.00204
AFIX  43
H22   2    0.808884    0.443495   -0.066324    11.00000   -1.20000
AFIX   0
C23   1    0.912114    0.456127   -0.090738    11.00000    0.04033    0.07145 =
         0.04438    0.00162    0.00655    0.00589
C24   1    0.972189    0.504627   -0.085563    11.00000    0.04447    0.07336 =
         0.04126    0.00608    0.01177    0.00450
AFIX  43
H24   2    1.014233    0.490183   -0.102117    11.00000   -1.20000
AFIX   0
C25   1    0.971436    0.574287   -0.056330    11.00000    0.04788    0.07804 =
         0.04684    0.00733    0.01245   -0.00279
AFIX  43
H25   2    1.011836    0.607629   -0.054381    11.00000   -1.20000
AFIX   0
C26   1    0.909577    0.594433   -0.029663    11.00000    0.04697    0.07231 =
         0.04371    0.00288    0.01210    0.00167
AFIX  43
H26   2    0.909020    0.641363   -0.009397    11.00000   -1.20000
AFIX   0
C27   1    0.591542    0.844893   -0.083920    11.00000    0.04581    0.05617 =
         0.03805    0.00954    0.00162   -0.00080
C28   1    0.542595    0.841123   -0.142040    11.00000    0.04113    0.05413 =
         0.03961    0.00839    0.00524    0.00083
AFIX  43
H28   2    0.516568    0.796111   -0.154108    11.00000   -1.20000
AFIX   0
C29   1    0.531405    0.904290   -0.183371    11.00000    0.04172    0.05713 =
         0.03987    0.01019    0.00765    0.00331
C30   1    0.570585    0.970923   -0.164889    11.00000    0.06894    0.05698 =
         0.05480    0.01703    0.00313   -0.00584
AFIX  43
H30   2    0.563261    1.013128   -0.191860    11.00000   -1.20000
AFIX   0
C31   1    0.620112    0.975598   -0.107298    11.00000    0.09467    0.06131 =
         0.06320    0.01334   -0.01492   -0.02344
AFIX  43
H31   2    0.646502    1.020471   -0.095481    11.00000   -1.20000
AFIX   0
C32   1    0.630369    0.912972   -0.067060    11.00000    0.08140    0.06542 =
         0.05404    0.01477   -0.01564   -0.01750
AFIX  43
H32   2    0.663772    0.916223   -0.027998    11.00000   -1.20000
AFIX   0
C33   1    0.490223    0.771595    0.208543    11.00000    0.04802    0.05011 =
         0.03500    0.00088    0.00610    0.00716
C34   1    0.413981    0.764443    0.205743    11.00000    0.05025    0.07727 =
         0.04915   -0.02117    0.00633   -0.00216
AFIX  43
H34   2    0.386873    0.729012    0.177945    11.00000   -1.20000
AFIX   0
C35   1    0.376090    0.809955    0.244338    11.00000    0.04887    0.07736 =
         0.05093   -0.01553    0.00597   -0.00011
C36   1    0.417277    0.861562    0.285650    11.00000    0.05599    0.05453 =
         0.04070   -0.00520    0.00923    0.00412
AFIX  43
H36   2    0.393036    0.892253    0.311184    11.00000   -1.20000
AFIX   0
C37   1    0.493833    0.868201    0.289553    11.00000    0.05728    0.05179 =
         0.04554   -0.00634    0.00738   -0.00275
AFIX  43
H37   2    0.521335    0.902330    0.318396    11.00000   -1.20000
AFIX   0
C38   1    0.529753    0.824369    0.250801    11.00000    0.04792    0.05465 =
         0.04704   -0.00630    0.00877    0.00005
AFIX  43
H38   2    0.581358    0.830150    0.252917    11.00000   -1.20000
AFIX   0
C39   1    0.749037    0.472895    0.261544    11.00000    0.04418    0.05615 =
         0.03366    0.00599    0.00651    0.00836
C40   1    0.713674    0.412696    0.284901    11.00000    0.05183    0.05647 =
         0.04079    0.00671   -0.00161    0.00427
AFIX  43
H40   2    0.665352    0.398805    0.264540    11.00000   -1.20000
AFIX   0
C41   1    0.749410    0.371975    0.338949    11.00000    0.05619    0.05370 =
         0.03874    0.00536   -0.00008    0.00382
C42   1    0.821332    0.393367    0.369042    11.00000    0.04968    0.06036 =
         0.03749    0.00691    0.00002    0.01023
AFIX  43
H42   2    0.845582    0.366423    0.404786    11.00000   -1.20000
AFIX   0
C43   1    0.856702    0.452948    0.347077    11.00000    0.04549    0.07642 =
         0.05169    0.01664   -0.00463   -0.00030
AFIX  43
H43   2    0.904761    0.467149    0.367851    11.00000   -1.20000
AFIX   0
C44   1    0.820807    0.492805    0.293296    11.00000    0.04977    0.07354 =
         0.05185    0.01627    0.00133   -0.00399
AFIX  43
H44   2    0.845378    0.533629    0.278293    11.00000   -1.20000
AFIX   0
PART 1
C45   1    0.917259    0.379976   -0.118949    71.00000    0.03708    0.08266 =
         0.03953    0.00158    0.00328    0.00757
AFIX  43
H45   2    0.962508    0.365920   -0.130534    71.00000   -1.20000
AFIX   0
N5    3    0.863532    0.332900   -0.128195    71.00000    0.03760    0.08844 =
         0.06077   -0.02465    0.01253   -0.00840
C46   1    0.875630    0.262198   -0.161164    71.00000    0.04557    0.09639 =
         0.07417   -0.03116    0.01531   -0.00790
AFIX  23
H46A  2    0.866015    0.218953   -0.135395    71.00000   -1.20000
H46B  2    0.927658    0.259506   -0.166734    71.00000   -1.20000
AFIX   0
C47   1    0.822839    0.258764   -0.227060    71.00000    0.05145    0.12926 =
         0.06594   -0.04385    0.01816   -0.02044
AFIX  23
H47A  2    0.831527    0.302840   -0.252276    71.00000   -1.20000
H47B  2    0.833908    0.213446   -0.249764    71.00000   -1.20000
AFIX   0
N6    3    0.744195    0.257311   -0.220015    71.00000    0.04831    0.11566 =
         0.05846   -0.03541    0.01303   -0.01140
C48   1    0.703965    0.202291   -0.247332    71.00000    0.05217    0.08960 =
         0.03849   -0.01579    0.00590    0.00404
AFIX  43
H48   2    0.726809    0.167580   -0.270720    71.00000   -1.20000
AFIX   0
PART 2
SAME C45 > C48
C45B  1    0.905869    0.392547   -0.136675   -71.00000    0.03708    0.08266 =
         0.03953    0.00158    0.00328    0.00757
AFIX  43
H45B  2    0.950381    0.379559   -0.150054   -71.00000   -1.20000
AFIX   0
N5B   3    0.848373    0.352513   -0.160927   -71.00000    0.07056    0.18787 =
         0.15778   -0.11082    0.04751   -0.04058
C46B  1    0.857521    0.289452   -0.204471   -71.00000    0.09587    0.17420 =
         0.15457   -0.10157    0.05904   -0.04538
AFIX  23
H46C  2    0.910493    0.284287   -0.206524   -71.00000   -1.20000
H46D  2    0.830370    0.301473   -0.247264   -71.00000   -1.20000
AFIX   0
C47B  1    0.828189    0.212604   -0.182686   -71.00000    0.05649    0.16706 =
         0.11942   -0.09979    0.01946   -0.02537
AFIX  23
H47C  2    0.838308    0.171782   -0.210697   -71.00000   -1.20000
H47D  2    0.853239    0.200797   -0.139202   -71.00000   -1.20000
AFIX   0
N6B   3    0.748204    0.220202   -0.185668   -71.00000    0.05733    0.13988 =
         0.08302   -0.06678    0.01858   -0.01337
C48B  1    0.705217    0.178328   -0.225174   -71.00000    0.05217    0.08960 =
         0.03849   -0.01579    0.00590    0.00404
AFIX  43
H48B  2    0.726671    0.137511   -0.243169   -71.00000   -1.20000
AFIX   0
PART 0
C49   1    0.478199    0.901365   -0.244917    11.00000    0.04599    0.05657 =
         0.04143    0.01530    0.00642    0.00211
AFIX  43
H49   2    0.475263    0.943422   -0.271946    11.00000   -1.20000
AFIX   0
PART 1
C50   1    0.381232    0.854544   -0.323175   171.00000    0.04580    0.06283 =
         0.04618    0.01869   -0.00330   -0.00002

AFIX  23
H50A  2    0.393935    0.899370   -0.345682   171.00000   -1.20000
H50B  2    0.331477    0.862222   -0.313277   171.00000   -1.20000
AFIX   0
C51   1    0.379906    0.785872   -0.365858   171.00000    0.05545    0.07010 =
         0.04168    0.01706   -0.00297   -0.00930
AFIX  23
H51A  2    0.347976    0.796198   -0.407123   171.00000   -1.20000
H51B  2    0.430472    0.775737   -0.373012   171.00000   -1.20000
AFIX   0
N8    3    0.351541    0.718857   -0.336998   171.00000    0.05550    0.05983 =
         0.04159    0.01232    0.00021   -0.00452
C52   1    0.288083    0.692887   -0.364076   171.00000    0.05068    0.05940 =
         0.03592    0.00985   -0.00073    0.00481
AFIX  43
H52   2    0.263802    0.715940   -0.401836   171.00000   -1.20000
AFIX   0
PART 2
SAME C50 > C52
C50B  1    0.403655    0.834405   -0.331398  -171.00000    0.04580    0.06283 =
         0.04618    0.01869   -0.00330   -0.00002
AFIX  23
H50C  2    0.425133    0.790229   -0.348745  -171.00000   -1.20000
H50D  2    0.411339    0.878980   -0.356422  -171.00000   -1.20000
AFIX   0
C51B  1    0.321491    0.822641   -0.330446  -171.00000    0.05545    0.07010 =
         0.04168    0.01706   -0.00297   -0.00930
AFIX  23
H51C  2    0.305779    0.858004   -0.300384  -171.00000   -1.20000
H51D  2    0.291967    0.833009   -0.372717  -171.00000   -1.20000
AFIX   0
N8B   3    0.307522    0.745210   -0.311887  -171.00000    0.05550    0.05983 =
         0.04159    0.01232    0.00021   -0.00452
C52B  1    0.251161    0.711959   -0.341990  -171.00000    0.05068    0.05940 =
         0.03592    0.00985   -0.00073    0.00481
AFIX  43
H52B  2    0.210871    0.738892   -0.365540  -171.00000   -1.20000
AFIX   0
PART -1
C53   1    0.585578    0.480692    0.000495    10.50000    0.03468    0.05038 =
         0.05159   -0.01483    0.01007    0.00044
AFIX  23
H53A  2    0.619444    0.455356    0.035098    10.50000   -1.20000
H53B  2    0.614886    0.497313   -0.030860    10.50000   -1.20000
AFIX   0
C54   1    0.524696    0.424308   -0.031146    10.50000    0.02947    0.05410 =
         0.06187   -0.01619    0.01000   -0.00090
AFIX  23
H54A  2    0.527856    0.417920   -0.075972    10.50000   -1.20000
H54B  2    0.533444    0.375074   -0.010286    10.50000   -1.20000
AFIX   0
C55   1    0.496025    0.583359   -0.023502    10.50000    0.04304    0.04489 =
         0.03875    0.00609   -0.00912   -0.00353
AFIX  23
H55A  2    0.521252    0.603524   -0.056421    10.50000   -1.20000
H55B  2    0.472534    0.625642   -0.005338    10.50000   -1.20000
AFIX   0
C56   1    0.434887    0.526945   -0.054162    10.50000    0.04673    0.04509 =
         0.04306    0.00924   -0.00824   -0.00072
AFIX  23
H56A  2    0.386014    0.544965   -0.047900    10.50000   -1.20000
H56B  2    0.433935    0.524191   -0.099970    10.50000   -1.20000
AFIX   0
C57   1    0.507871    0.515633    0.076799    10.50000    0.04399    0.06297 =
         0.02874    0.00025    0.00907   -0.01407
AFIX  23
H57A  2    0.542948    0.490382    0.110631    10.50000   -1.20000
H57B  2    0.484148    0.556993    0.095932    10.50000   -1.20000
AFIX   0
C58   1    0.447495    0.458741    0.045508    10.50000    0.05210    0.06144 =
         0.02686   -0.00418    0.00935   -0.01471
AFIX  23
H58A  2    0.398180    0.475929    0.051332    10.50000   -1.20000
H58B  2    0.457077    0.409308    0.065872    10.50000   -1.20000
AFIX   0
PART 1
C59   1    0.337380    0.761742   -0.169500    21.00000    0.05517    0.06382 =
         0.05143    0.01129    0.00982   -0.00235
AFIX  13
H59   2    0.367654    0.773751   -0.201973    21.00000   -1.20000
AFIX   0
CL1   5    0.368476    0.674801   -0.133495    21.00000    0.09693    0.07021 =
         0.05121    0.01753   -0.00398    0.00259
CL2   5    0.242181    0.755168   -0.207496    21.00000    0.05572    0.08574 =
         0.06552   -0.00180    0.00296    0.00252
CL3   5    0.349364    0.834758   -0.112186    21.00000    0.08439    0.08780 =
         0.08721   -0.02546    0.00941   -0.01409
PART 2
SAME C59 > Cl3
C59B  1    0.329388    0.759036   -0.164649   161.00000    0.05517    0.06382 =
         0.05143    0.01129    0.00982   -0.00235
AFIX  13
H59B  2    0.340360    0.755415   -0.208055   161.00000   -1.20000
AFIX   0
CL1B  5    0.383842    0.697263   -0.113131   161.00000    0.10635    0.07168 =
         0.05908    0.02376   -0.00800    0.00552
CL2B  5    0.234470    0.741794   -0.164434   161.00000    0.07173    0.12914 =
         0.16432   -0.00914    0.02299   -0.02250
CL3B  5    0.349931    0.849761   -0.132080   161.00000    0.06208    0.07137 =
         0.07013    0.01600    0.02834    0.01002
PART 1
C60   1    0.251830    0.729296    0.039560    31.00000    0.05973    0.08156 =
         0.06852   -0.02053    0.03025   -0.01656
AFIX  13
H60   2    0.224003    0.708202    0.070973    31.00000   -1.20000
AFIX   0
CL4   5    0.329428    0.670112    0.041123    31.00000    0.04922    0.11493 =
         0.07306   -0.03002    0.01345    0.00781
CL5   5    0.188726    0.729330   -0.034109    31.00000    0.07109    0.07945 =
         0.09144   -0.02315   -0.00670   -0.00831
CL6   5    0.278032    0.822242    0.065852    31.00000    0.07572    0.07033 =
         0.05928   -0.01470   -0.00097   -0.00714
PART 2
SAME C59 > Cl3
C60B  1    0.246510    0.731945    0.046759   141.00000    0.05973    0.08156 =
         0.06852   -0.02053    0.03025   -0.01656
AFIX  13
H60B  2    0.234421    0.723139    0.089291   141.00000   -1.20000
AFIX   0
CL4C  5    0.311756    0.668017    0.030937   141.00000    0.05073    0.19700 =
         0.12477   -0.06182    0.02172   -0.00391
CL5C  5    0.166551    0.725629   -0.012648   141.00000    0.09040    0.11421 =
         0.15366   -0.04805   -0.00626   -0.02071
CL6C  5    0.283387    0.823995    0.041157   141.00000    0.20043    0.15485 =
         0.11843    0.01506   -0.03135   -0.11708
PART 1
C61   1    0.148297    0.953537   -0.021060    41.00000    0.07320    0.06919 =
         0.07964   -0.00917    0.02215   -0.00682
AFIX  13
H61   2    0.146977    0.897720   -0.022163    41.00000   -1.20000
AFIX   0
CL7   5    0.224599    0.980412   -0.052218    41.00000    0.05795    0.07476 =
         0.05058   -0.00621    0.01707   -0.01599
CL8   5    0.063859    0.984824   -0.068600    41.00000    0.06381    0.09853 =
         0.06654    0.00570    0.01072    0.01031
CL9   5    0.154943    0.980311    0.060323    41.00000    0.08468    0.10209 =
         0.05016   -0.00004    0.02055    0.01554
PART 2
SAME C59 > Cl3
C61B  1    0.140955    0.929930   -0.022442   151.00000    0.07320    0.06919 =
         0.07964   -0.00917    0.02215   -0.00682
AFIX  13
H61B  2    0.164413    0.879627   -0.022906   151.00000   -1.20000
AFIX   0
CL7E  5    0.195369    0.993439   -0.052900   151.00000    0.13219    0.11136 =
         0.04408   -0.01157    0.00242   -0.04321
CL8E  5    0.051279    0.924950   -0.069780   151.00000    0.12670    0.17948 =
         0.12207   -0.02873    0.02999   -0.01657
CL9E  5    0.144218    0.955424    0.057331   151.00000    0.21660    0.15142 =
         0.08652   -0.00046    0.05891   -0.03121
PART 1
C62   1    0.687768    0.450680   -0.227895    51.00000    0.09112    0.13048 =
         0.08191    0.00729    0.01026   -0.02995
AFIX  13
H62   2    0.705197    0.403379   -0.205325    51.00000   -1.20000
AFIX   0
CL10  5    0.596089    0.437077   -0.266865    51.00000    0.10434    0.20689 =
         0.34900   -0.13383   -0.05092   -0.03389
CL11  5    0.688761    0.519694   -0.172526    51.00000    0.06993    0.09719 =
         0.05549    0.01388    0.00419   -0.00432
CL12  5    0.743225    0.467173   -0.285053    51.00000    0.25812    0.23780 =
         0.10600    0.01759    0.05726   -0.09926
PART 2
SAME C62 > Cl12
C62B  1    0.703976    0.433715   -0.227491    81.00000    0.09112    0.13048 =
         0.08191    0.00729    0.01026   -0.02995
AFIX  13
H62B  2    0.722331    0.387559   -0.203545    81.00000   -1.20000
AFIX   0
CL1C  5    0.628052    0.408506   -0.286691    81.00000    0.11338    0.15193 =
         0.06738   -0.01851    0.00778   -0.05685
CL2C  5    0.675354    0.495240   -0.175991    81.00000    0.12456    0.16386 =
         0.12827   -0.05508   -0.03511    0.06931
CL3C  5    0.774956    0.466582   -0.265577    81.00000    0.08922    0.10291 =
         0.10381    0.00939    0.03786   -0.02836
PART 4
SAME C62 > Cl12
C62C  1    0.704822    0.419103   -0.228744   181.00000    0.09112    0.13048 =
         0.08191    0.00729    0.01026   -0.02995
AFIX  13
H62C  2    0.739047    0.380547   -0.205963   181.00000   -1.20000
AFIX   0
CL1D  5    0.667138    0.375680   -0.301194   181.00000    0.24711    0.20683 =
         0.10388   -0.00284   -0.00098   -0.01347
CL2D  5    0.642518    0.434199   -0.180180   181.00000    0.18540    0.17467 =
         0.19491    0.01855    0.08981    0.00144
CL3D  5    0.763378    0.496097   -0.235049   181.00000    0.17850    0.19189 =
         0.09393    0.01185    0.01577   -0.07060
PART 1
C63   1    0.446568    0.663099    0.463789    61.00000    0.14033    0.09161 =
         0.11021    0.02440   -0.01569   -0.01082
AFIX  13
H63   2    0.449428    0.609011    0.453013    61.00000   -1.20000
AFIX   0
CL13  5    0.472515    0.717189    0.400806    61.00000    0.15827    0.07311 =
         0.05925   -0.00262    0.01827   -0.01607
CL14  5    0.510903    0.679978    0.533180    61.00000    0.09057    0.14254 =
         0.06683   -0.01525    0.00068    0.02058
CL15  5    0.355717    0.681306    0.478361    61.00000    0.06140    0.08552 =
         0.18768   -0.02159   -0.00008    0.00696
PART 2
SAME C63 > Cl15
C63B  1    0.438459    0.664468    0.470084   101.00000    0.14033    0.09161 =
         0.11021    0.02440   -0.01569   -0.01082
AFIX  13
H63B  2    0.456031    0.611892    0.467750   101.00000   -1.20000
AFIX   0
CL4B  5    0.419855    0.701725    0.390481   101.00000    0.19248    0.16244 =
         0.09397    0.04422    0.01946    0.06441
CL5B  5    0.512049    0.716679    0.512578   101.00000    0.10380    0.13420 =
         0.15333    0.01029    0.00848    0.01692
CL6B  5    0.353349    0.661460    0.498224   101.00000    0.17421    0.43971 =
         0.15417    0.16291    0.03677    0.02652
PART 1
SAME C59 > Cl3
C64   1    0.501310    0.622386   -0.258220    91.00000    0.17774    0.16257 =
         0.12157   -0.00304    0.03113   -0.04741
AFIX  13
H64   2    0.456715    0.655188   -0.268274    91.00000   -1.20000
AFIX   0
CL16  5    0.561966    0.660359   -0.194288    91.00000    0.07790    0.08060 =
         0.06583    0.00143    0.01764    0.00777
CL17  5    0.472600    0.531224   -0.242357    91.00000    0.07985    0.11394 =
         0.14685    0.00917    0.02206   -0.02354
CL18  5    0.542444    0.615748   -0.325992    91.00000    0.33137    0.24140 =
         0.10789   -0.06720    0.10069   -0.18766
PART 3
SAME C59 > Cl3
C64B  1    0.538891    0.559173   -0.254550   111.00000    0.17774    0.16257 =
         0.12157   -0.00304    0.03113   -0.04741
AFIX  13
H64B  2    0.520239    0.508953   -0.244704   111.00000   -1.20000
AFIX   0
CL7B  5    0.513300    0.621887   -0.201989   111.00000    0.13883    0.26057 =
         0.16314   -0.03289    0.00586   -0.02713
CL8B  5    0.635693    0.551752   -0.247707   111.00000    0.20011    0.47857 =
         0.27363   -0.03182    0.02653   -0.00618
CL9B  5    0.490436    0.584765   -0.331133   111.00000    0.22316    0.23433 =
         0.16647    0.01905    0.03506   -0.04883
PART 4
SAME C59 > Cl3
C64C  1    0.527161    0.647511   -0.257773   121.00000    0.17774    0.16257 =
         0.12157   -0.00304    0.03113   -0.04741
AFIX  13
H64C  2    0.480362    0.675214   -0.256433   121.00000   -1.20000
AFIX   0
CL7C  5    0.566811    0.611109   -0.183878   121.00000    0.20026    0.08166 =
         0.09476   -0.02640    0.04149   -0.04297
CL8C  5    0.597468    0.707752   -0.273996   121.00000    0.12320    0.14352 =
         0.12099    0.00412    0.01691   -0.01668
CL9C  5    0.512855    0.573624   -0.314303   121.00000    0.10522    0.19470 =
         0.10430   -0.02220    0.03427   -0.05967
PART 5
SAME C59 > Cl3
C64D  1    0.535330    0.554204   -0.254922   131.00000    0.17774    0.16257 =
         0.12157   -0.00304    0.03113   -0.04741
AFIX  13
H64D  2    0.500681    0.510985   -0.264621   131.00000   -1.20000
AFIX   0
CL7D  5    0.481304    0.633085   -0.271246   131.00000    0.19736    0.18802 =
         0.18365    0.02874    0.11239   -0.04430
CL8D  5    0.588051    0.535931   -0.180257   131.00000    0.35191    0.51430 =
         0.15751    0.01591    0.04290    0.12454
CL9D  5    0.594532    0.549620   -0.311125   131.00000    0.24473    0.37062 =
         0.11330   -0.00324    0.04237    0.03249
PART 0
N1    3    0.727596    0.554277    0.094207    11.00000    0.03023    0.05324 =
         0.03057    0.00238    0.00349    0.00001
N2    3    0.683301    0.665724   -0.006524    11.00000    0.03554    0.05250 =
         0.03250    0.00434    0.00384    0.00269
N3    3    0.574656    0.729486    0.062663    11.00000    0.03680    0.04419 =
         0.03017    0.00062    0.00149   -0.00128
N4    3    0.623313    0.621538    0.166263    11.00000    0.04035    0.04689 =
         0.03217    0.00160    0.00331    0.00436
N7    3    0.436459    0.845275   -0.263086    11.00000    0.04735    0.06245 =
         0.04115    0.01541   -0.00050   -0.00063
N9    3    0.551320    0.548195    0.026360    11.00000    0.03208    0.04239 =
         0.02980   -0.00076    0.00270    0.00190
ZN1   4    0.637879    0.629747    0.071780    11.00000    0.03149    0.04473 =
         0.02802    0.00194    0.00230    0.00077
HKLF 4

REM  cage_MZ in P2(1)/n
REM R1 =  0.0524 for    9725 Fo > 4sig(Fo)  and  0.0607 for all   11629 data
REM   1171 parameters refined using    496 restraints

END

WGHT      0.0965      3.7711

REM Instructions for potential hydrogen bonds
HTAB C2 Cl2B_$1
EQIV $2 -x+3/2, y-1/2, -z+1/2
HTAB C46 Cl14_$2
EQIV $3 -x+3/2, y-1/2, -z-1/2
HTAB C47 Cl16_$3
EQIV $4 x-1/2, -y+3/2, z-1/2
HTAB C51B N1_$4
HTAB C52B N3_$4
HTAB C59 N7
HTAB C59B N8B
HTAB C60 N5_$1
HTAB C60B N5B_$1
HTAB C60B N6B_$1
HTAB C61B Cl5C
HTAB C61B Cl6C
HTAB C62 N6
HTAB C62B N5B
EQIV $5 x+1/2, -y+3/2, z+1/2
HTAB C63 Cl8_$5
EQIV $6 -x+1/2, y-1/2, -z+1/2
HTAB C63 Cl9_$6
HTAB C63B Cl8E_$5
HTAB C64 N8

REM Highest difference peak  0.616,  deepest hole -0.399,  1-sigma level  0.067
Q1    1   0.3216  0.6197  0.4949  11.00000  0.05    0.62
Q2    1   0.4452  0.6607  0.5204  11.00000  0.05    0.51
Q3    1   0.4507  0.5637 -0.3908  11.00000  0.05    0.46
Q4    1   0.1405  1.0032 -0.0520  11.00000  0.05    0.43
Q5    1   0.3428  0.7054  0.5254  11.00000  0.05    0.41
Q6    1  -0.0014  0.9161 -0.0794  11.00000  0.05    0.38
Q7    1   0.3010  0.7946  0.0132  11.00000  0.05    0.37
Q8    1   0.4253  0.6648 -0.1580  11.00000  0.05    0.36
Q9    1   0.0065  0.8823 -0.0848  11.00000  0.05    0.34
Q10   1   0.6513  0.6264  0.1415  11.00000  0.05    0.34
Q11   1   0.5019  0.6541  0.4198  11.00000  0.05    0.33
Q12   1   0.5828  0.6355  0.0969  11.00000  0.05    0.33
Q13   1   0.5789  0.5776  0.0552  11.00000  0.05    0.33
Q14   1   0.6909  0.6333  0.0498  11.00000  0.05    0.32
Q15   1   0.1021  0.9586  0.1120  11.00000  0.05    0.32
Q16   1   0.2518  0.8603  0.0254  11.00000  0.05    0.31
Q17   1   0.2422  0.8462  0.0343  11.00000  0.05    0.31
Q18   1   0.6156  0.5912  0.0445  11.00000  0.05    0.30
Q19   1   0.6646  0.5801  0.1067  11.00000  0.05    0.30
Q20   1   0.4477  0.6343 -0.2882  11.00000  0.05    0.30
;
_shelx_res_checksum              53338
_shelx_hkl_file
;
   0   0   3    0.45    0.21
   0   0   5    0.33    0.41
   0   0   6  833.15   15.01
   0   0   7    0.04    0.38
   0   0   8  690.17   12.73
   0   0   9    0.17    0.43
   0   0  10  207.11    4.38
   0   0  11    0.11    0.42
   0   0  12    1.71    0.44
   0   0  13   -0.14    0.40
   0   0  14  133.42    2.96
   0   0  15   -0.18    0.49
   0   0  16    6.08    0.59
   0   0  17    0.36    0.48
   0   0  18    9.54    0.71
   0   0  19   -0.13    0.47
   0   0  20   18.37    0.93
   0   0  21    0.02    0.53
   0   0  22   53.68    1.71
   0   0  23   -0.11    0.55
   0   0  24   10.60    0.85
   1   0 -25    5.84    1.79
   1   0 -24    0.38    0.67
   1   0 -23   31.10    1.25
   1   0 -22    0.06    0.60
   1   0 -21    3.00    0.53
   1   0 -20   -0.33    0.67
   1   0 -19    0.39    0.50
   1   0 -18    0.05    0.53
   1   0 -17   58.15    1.47
   1   0 -16    0.62    0.40
   1   0 -15  318.24    6.60
   1   0 -14   -0.20    0.42
   1   0 -13  176.69    3.76
   1   0 -12    0.07    0.45
   1   0 -11    3.15    0.42
   1   0 -10    0.01    0.40
   1   0  -9  360.00    7.25
   1   0  -8   -0.28    0.45
   1   0  -7   53.58    1.39
   1   0  -6    2.01    0.61
   1   0  -4    0.00    0.33
   1   0  -3   36.16    1.08
   1   0  -2    1.15    0.61
   1   0   2    0.60    0.19
   1   0   4   -1.22    0.33
   1   0   5 1214.71   42.38
   1   0   6   -0.84    0.45
   1   0   7   99.59    2.38
   1   0   8   -0.37    0.42
   1   0   9   33.77    1.07
   1   0  10    0.12    0.30
   1   0  11  414.59    8.05
   1   0  12   -0.77    0.50
   1   0  13  218.02    4.57
   1   0  14    0.18    0.43
   1   0  15    0.61    0.47
   1   0  16    0.48    0.52
   1   0  17   85.53    2.15
   1   0  18    0.26    0.55
   1   0  19   38.45    1.32
   1   0  20    0.15    0.50
   1   0  21   59.88    1.83
   1   0  22    0.08    0.55
   1   0  23    0.98    0.82
   1   0  24    0.03    0.59
   2   0 -25    0.76    0.68
   2   0 -24   27.70    1.27
   2   0 -23    0.06    0.55
   2   0 -22   59.75    1.84
   2   0 -21   -0.50    0.51
   2   0 -20   55.10    1.69
   2   0 -19    0.39    0.59
   2   0 -18    1.89    0.47
   2   0 -17   -0.35    0.55
   2   0 -16  282.51    5.87
   2   0 -15    0.00    0.46
   2   0 -14  405.27    8.11
   2   0 -13    0.01    0.42
   2   0 -12   33.85    1.13
   2   0 -11   -0.03    0.45
   2   0 -10   25.68    1.00
   2   0  -9    0.44    0.40
   2   0  -8  111.16    2.44
   2   0  -7    0.49    0.54
   2   0  -6  289.97    5.91
   2   0  -5   -0.99    0.47
   2   0  -4  100.55    2.63
   2   0  -3    0.49    0.33
   2   0  -1    1.13    0.41
   2   0   1    1.04    0.27
   2   0   3   -0.66    0.34
   2   0   4   88.11    2.01
   2   0   5    0.71    0.40
   2   0   6  220.65    4.47
   2   0   7    0.10    0.36
   2   0   8  383.91    7.59
   2   0   9   -0.02    0.32
   2   0  10   94.80    2.34
   2   0  11    0.12    0.34
   2   0  12  251.51    4.74
   2   0  13   -0.04    0.45
   2   0  14   15.12    0.77
   2   0  15    0.09    0.39
   2   0  16  158.10    3.32
   2   0  17    0.39    0.65
   2   0  18  144.99    3.25
   2   0  19   -0.54    0.42
   2   0  20  155.43    3.25
   2   0  21    0.18    0.59
   2   0  22    0.53    0.63
   2   0  23   -0.11    0.57
   2   0  24    7.01    0.95
   3   0 -25   47.91    1.66
   3   0 -24   -0.54    0.68
   3   0 -23    1.86    0.65
   3   0 -22    0.11    0.55
   3   0 -21    8.11    0.71
   3   0 -20   -0.32    0.61
   3   0 -19  179.82    3.92
   3   0 -18    0.57    0.50
   3   0 -17  101.76    2.45
   3   0 -16   -0.52    0.56
   3   0 -15    8.91    0.78
   3   0 -14   -0.28    0.41
   3   0 -13   20.79    0.81
   3   0 -12   -0.21    0.47
   3   0 -11  478.31    9.38
   3   0 -10   -0.18    0.46
   3   0  -9  115.12    2.83
   3   0  -8   -0.02    0.46
   3   0  -7    9.12    0.60
   3   0  -6   -0.16    0.48
   3   0  -4    5.03    0.68
   3   0  -3  255.49    5.30
   3   0  -2   -0.21    0.35
   3   0  -1  494.78    9.24
   3   0   0    0.51    0.26
   3   0   1    8.25    0.42
   3   0   2   -0.50    0.37
   3   0   3  186.70    3.93
   3   0   4    1.51    0.42
   3   0   5   77.15    1.87
   3   0   6   -0.10    0.44
   3   0   7  710.36   12.90
   3   0   8    0.19    0.33
   3   0   9   51.95    1.49
   3   0  10    0.00    0.36
   3   0  11  262.72    5.37
   3   0  12   -0.01    0.39
   3   0  13  103.96    2.33
   3   0  14    0.06    0.39
   3   0  15    6.94    0.49
   3   0  16   -0.35    0.44
   3   0  17  214.06    4.78
   3   0  18   -0.01    0.50
   3   0  19   88.07    2.02
   3   0  20   -0.04    0.57
   3   0  21   21.80    0.98
   3   0  22    0.23    0.53
   3   0  23    0.60    0.61
   4   0 -25   -1.03    0.61
   4   0 -24   21.82    1.04
   4   0 -23    0.53    0.81
   4   0 -22   28.67    1.14
   4   0 -21    0.46    0.56
   4   0 -20  133.98    3.34
   4   0 -19   -0.29    0.57
   4   0 -18   49.74    1.47
   4   0 -17   -0.41    0.52
   4   0 -16  435.69    8.08
   4   0 -15   -0.41    0.57
   4   0 -14   14.70    0.85
   4   0 -13    0.39    0.58
   4   0 -12   72.45    2.06
   4   0 -11   -0.25    0.53
   4   0 -10  444.36    8.51
   4   0  -9    0.29    0.38
   4   0  -8  739.47   13.72
   4   0  -7    0.37    0.59
   4   0  -6  123.62    2.92
   4   0  -5   -0.92    0.53
   4   0  -3   -0.35    0.49
   4   0  -2   74.64    1.90
   4   0  -1    1.45    0.50
   4   0   0   87.57    2.14
   4   0   1    0.99    0.41
   4   0   2  642.63   11.83
   4   0   3   -0.52    0.48
   4   0   4  101.16    2.23
   4   0   5   -0.27    0.40
   4   0   6  333.23    6.77
   4   0   7    0.15    0.36
   4   0   8  248.75    5.14
   4   0   9   -0.18    0.37
   4   0  10   10.71    0.58
   4   0  11   -0.44    0.38
   4   0  12  200.60    4.49
   4   0  13    0.22    0.40
   4   0  14  179.91    4.00
   4   0  15    0.08    0.47
   4   0  16   39.65    1.27
   4   0  17    0.52    0.59
   4   0  18    2.34    0.56
   4   0  19    0.42    0.48
   4   0  20   94.94    2.23
   4   0  21   -0.15    0.71
   4   0  22    1.85    0.69
   4   0  23   -0.38    0.63
   5   0 -25    8.23    0.78
   5   0 -24    0.31    0.68
   5   0 -23   16.86    0.97
   5   0 -22   -0.04    0.66
   5   0 -21   87.82    2.01
   5   0 -20    0.02    0.59
   5   0 -19   60.40    1.87
   5   0 -18    0.12    0.57
   5   0 -17   58.72    1.83
   5   0 -16    0.80    0.51
   5   0 -15  427.74    8.41
   5   0 -14    0.08    0.45
   5   0 -13    1.32    0.45
   5   0 -12   -0.16    0.43
   5   0 -11    6.21    0.67
   5   0 -10   -0.15    0.49
   5   0  -9 1140.43   20.66
   5   0  -8    0.10    0.42
   5   0  -7  125.57    3.00
   5   0  -6    0.16    0.52
   5   0  -5 1049.27   19.12
   5   0  -4   -1.19    0.56
   5   0  -3 1247.48   25.18
   5   0  -2    1.73    0.63
   5   0  -1  252.57    5.26
   5   0   0    1.40    0.46
   5   0   1    9.27    0.57
   5   0   2   -0.16    0.38
   5   0   3  260.30    5.21
   5   0   4   -0.19    0.34
   5   0   5  113.62    2.84
   5   0   6    0.04    0.37
   5   0   7   15.85    0.64
   5   0   8   -0.08    0.38
   5   0   9    2.83    0.44
   5   0  10    0.67    0.35
   5   0  11    3.89    0.50
   5   0  12   -0.14    0.40
   5   0  13   32.04    1.10
   5   0  14    0.09    0.41
   5   0  15    1.14    0.42
   5   0  16   -0.06    0.46
   5   0  17   35.19    1.10
   5   0  18    0.23    0.56
   5   0  19   11.10    0.79
   5   0  20    0.42    0.49
   5   0  21   75.20    1.75
   5   0  22   -0.70    0.62
   5   0  23   12.67    1.32
   6   0 -25    0.66    0.79
   6   0 -24   11.35    0.82
   6   0 -23    0.17    0.56
   6   0 -22    0.79    0.69
   6   0 -21    0.59    0.74
   6   0 -20   67.44    1.91
   6   0 -19   -0.02    0.53
   6   0 -18   62.75    1.83
   6   0 -17   -0.36    0.55
   6   0 -16   26.57    1.10
   6   0 -15   -0.31    0.53
   6   0 -14   92.84    2.47
   6   0 -13   -0.23    0.49
   6   0 -12  686.09   12.78
   6   0 -11   -0.20    0.48
   6   0 -10    3.49    0.53
   6   0  -9   -0.02    0.43
   6   0  -8   16.28    0.81
   6   0  -7   -0.25    0.50
   6   0  -6   35.71    1.20
   6   0  -5    0.02    0.55
   6   0  -4  211.54    4.81
   6   0  -3    0.26    0.52
   6   0  -2  186.95    4.29
   6   0  -1   -0.16    0.47
   6   0   0  448.12    8.89
   6   0   1    0.13    0.46
   6   0   3   -0.08    0.43
   6   0   4   49.79    1.43
   6   0   5    0.43    0.35
   6   0   6  331.11    6.59
   6   0   7    0.42    0.39
   6   0   8    0.99    0.36
   6   0   9   -0.24    0.31
   6   0  10   55.31    1.54
   6   0  11   -0.11    0.35
   6   0  12  271.60    5.33
   6   0  13    0.20    0.37
   6   0  14   47.48    1.45
   6   0  15    0.09    0.42
   6   0  16   94.42    2.31
   6   0  17    0.10    0.47
   6   0  18   31.44    1.11
   6   0  19    0.61    0.55
   6   0  20   13.61    0.79
   6   0  21   -0.42    0.55
   6   0  22   25.96    1.06
   7   0 -25   10.85    1.34
   7   0 -24   -0.23    0.55
   7   0 -23   24.14    1.05
   7   0 -22   -0.33    0.74
   7   0 -21   51.52    1.73
   7   0 -20   -0.29    0.60
   7   0 -19   35.61    1.25
   7   0 -18    0.42    0.57
   7   0 -17   12.42    0.78
   7   0 -16   -0.41    0.57
   7   0 -15  154.04    3.78
   7   0 -14   -0.79    0.58
   7   0 -13  261.85    6.30
   7   0 -12   -0.32    0.55
   7   0 -11   12.24    0.77
   7   0 -10   -0.01    0.51
   7   0  -9   14.46    0.71
   7   0  -8    0.06    0.43
   7   0  -7  571.42   10.52
   7   0  -6    0.13    0.45
   7   0  -5  272.35    5.70
   7   0  -4    0.08    0.50
   7   0  -3  205.17    4.41
   7   0  -2    0.35    0.52
   7   0  -1  118.55    2.95
   7   0   0    0.04    0.42
   7   0   1  120.16    2.84
   7   0   2    0.98    0.48
   7   0   3   20.59    0.87
   7   0   4   -0.09    0.43
   7   0   5 1067.01   18.87
   7   0   6    0.47    0.37
   7   0   7   14.04    0.63
   7   0   8    0.12    0.36
   7   0   9   31.93    1.14
   7   0  10   -0.28    0.50
   7   0  11  163.62    3.69
   7   0  12   -0.16    0.55
   7   0  13    9.20    0.64
   7   0  14   -0.26    0.43
   7   0  15   49.31    1.24
   7   0  16    0.10    0.49
   7   0  17    4.89    0.64
   7   0  18    0.03    0.53
   7   0  19   18.10    0.93
   7   0  20   -0.12    0.58
   7   0  21   21.41    1.11
   8   0 -24    0.13    0.57
   8   0 -23   -0.36    0.59
   8   0 -22   40.87    1.80
   8   0 -21    0.19    0.80
   8   0 -20    2.12    0.63
   8   0 -19    0.41    0.61
   8   0 -18   19.99    0.95
   8   0 -17   -0.09    0.54
   8   0 -16    4.36    0.67
   8   0 -15    0.03    0.70
   8   0 -14   81.71    2.49
   8   0 -13    0.34    0.58
   8   0 -12  110.89    2.88
   8   0 -11    0.24    0.66
   8   0 -10   43.10    1.47
   8   0  -9    0.28    0.53
   8   0  -8  151.29    3.61
   8   0  -7    0.56    0.47
   8   0  -6   14.46    0.75
   8   0  -5    0.00    0.47
   8   0  -4   54.38    1.72
   8   0  -3    0.58    0.48
   8   0  -2  430.14    8.88
   8   0  -1   -0.61    0.47
   8   0   0  781.71   14.38
   8   0   1    0.10    0.43
   8   0   2 1266.77   22.96
   8   0   3   -0.19    0.41
   8   0   4  696.34   13.24
   8   0   5    0.82    0.54
   8   0   6  430.45    8.40
   8   0   7    0.06    0.49
   8   0   8    4.12    0.47
   8   0   9    0.20    0.38
   8   0  10    9.22    0.64
   8   0  11   -0.31    0.37
   8   0  12  191.60    4.15
   8   0  13    0.04    0.41
   8   0  14  139.12    3.08
   8   0  15    0.18    0.55
   8   0  16    8.83    0.70
   8   0  17   -0.09    0.61
   8   0  18   33.34    1.14
   8   0  19    0.21    0.54
   8   0  20   71.74    1.76
   8   0  21   -0.20    0.52
   9   0 -24   -0.05    0.70
   9   0 -23  111.26    2.84
   9   0 -22    0.96    0.76
   9   0 -21    0.86    0.63
   9   0 -20    0.73    0.61
   9   0 -19    0.81    0.58
   9   0 -18    0.22    0.55
   9   0 -17    5.28    0.78
   9   0 -16   -0.90    0.60
   9   0 -15   16.93    1.07
   9   0 -14    0.18    0.62
   9   0 -13  284.51    5.70
   9   0 -12   -0.25    0.45
   9   0 -11    7.64    0.61
   9   0 -10    0.38    0.57
   9   0  -9   15.03    0.82
   9   0  -8    0.15    0.52
   9   0  -7  479.84    9.48
   9   0  -6   -0.09    0.44
   9   0  -5  393.75    8.17
   9   0  -4   -0.36    0.53
   9   0  -3  138.74    3.16
   9   0  -2    0.12    0.61
   9   0  -1  291.77    6.08
   9   0   0    0.35    0.47
   9   0   1  518.81   10.39
   9   0   2   -0.05    0.47
   9   0   3   32.32    1.05
   9   0   4   -0.43    0.40
   9   0   5   62.46    1.54
   9   0   6    0.03    0.38
   9   0   7    0.19    0.44
   9   0   8    0.03    0.43
   9   0   9   12.66    0.68
   9   0  10   -0.34    0.47
   9   0  11  146.15    3.31
   9   0  12   -0.08    0.44
   9   0  13    4.28    0.52
   9   0  14    0.23    0.54
   9   0  15   44.75    1.53
   9   0  16    0.33    0.48
   9   0  17   16.57    0.79
   9   0  18    0.10    0.48
   9   0  19   87.89    1.96
   9   0  20    0.06    0.65
  10   0 -24    0.07    0.84
  10   0 -23   -0.09    0.79
  10   0 -22    5.27    0.70
  10   0 -21    0.46    0.63
  10   0 -20    7.92    0.76
  10   0 -19    0.73    0.66
  10   0 -18    1.08    0.69
  10   0 -17    0.75    0.59
  10   0 -16    0.66    0.56
  10   0 -15    0.31    0.61
  10   0 -14   19.34    0.83
  10   0 -13    0.38    0.56
  10   0 -12    5.89    0.68
  10   0 -11    0.66    0.52
  10   0 -10    0.73    0.58
  10   0  -9   -0.21    0.52
  10   0  -8  231.88    5.56
  10   0  -7   -0.17    0.52
  10   0  -6    0.90    0.68
  10   0  -5   -0.68    0.67
  10   0  -4  326.99    6.97
  10   0  -3   -0.61    0.47
  10   0  -2   19.70    0.84
  10   0  -1   -0.31    0.57
  10   0   0  690.22   12.65
  10   0   1   -0.45    0.42
  10   0   2  190.88    4.04
  10   0   3   -0.40    0.44
  10   0   4   10.77    0.61
  10   0   5    0.36    0.45
  10   0   6   99.77    2.41
  10   0   7    0.29    0.48
  10   0   8   31.68    1.20
  10   0   9   -0.19    0.45
  10   0  10  232.81    5.01
  10   0  11   -0.31    0.49
  10   0  12   10.93    0.71
  10   0  13   -0.54    0.42
  10   0  14  183.70    3.92
  10   0  15   -0.08    0.44
  10   0  16   24.96    1.08
  10   0  17    0.38    0.51
  10   0  18   15.14    0.87
  10   0  19   -0.51    0.57
  11   0 -23   23.02    0.96
  11   0 -22   -0.13    0.59
  11   0 -21    2.85    0.73
  11   0 -20   -0.68    0.64
  11   0 -19   45.81    1.49
  11   0 -18   -0.49    0.57
  11   0 -17    0.75    0.63
  11   0 -16   -0.52    0.61
  11   0 -15   25.66    1.11
  11   0 -14    1.12    0.62
  11   0 -13   94.44    2.64
  11   0 -12   -0.64    0.79
  11   0 -11    4.11    0.69
  11   0 -10    0.23    0.70
  11   0  -9   79.07    2.12
  11   0  -8    0.30    0.58
  11   0  -7  147.31    3.98
  11   0  -6    0.05    0.70
  11   0  -5  214.50    4.48
  11   0  -4   -0.28    0.57
  11   0  -3   30.92    1.10
  11   0  -2    0.25    0.49
  11   0  -1  267.40    5.82
  11   0   0   -0.31    0.48
  11   0   1    0.57    0.41
  11   0   2    0.61    0.44
  11   0   3   21.14    0.88
  11   0   4    0.56    0.45
  11   0   5  405.13    7.81
  11   0   6   -0.28    0.51
  11   0   7    7.06    0.64
  11   0   8    0.26    0.46
  11   0   9    3.89    0.59
  11   0  10    0.37    0.45
  11   0  11    7.79    0.73
  11   0  12   -0.24    0.46
  11   0  13   21.10    0.95
  11   0  14   -0.40    0.53
  11   0  15    5.57    0.60
  11   0  16    0.12    0.58
  11   0  17    9.80    0.71
  11   0  18   -0.63    0.46
  12   0 -23   -0.13    0.74
  12   0 -22    5.55    0.90
  12   0 -21    0.07    0.61
  12   0 -20    0.99    0.62
  12   0 -19   -0.37    0.63
  12   0 -18   22.15    1.06
  12   0 -17    1.16    0.79
  12   0 -16  283.79    5.27
  12   0 -15   -0.59    0.68
  12   0 -14    9.08    0.77
  12   0 -13   -0.22    0.58
  12   0 -12   80.38    2.22
  12   0 -11   -0.51    0.55
  12   0 -10  174.68    3.95
  12   0  -9    0.38    0.52
  12   0  -8   24.17    0.94
  12   0  -7    0.02    0.63
  12   0  -6   26.16    1.10
  12   0  -5   -0.26    0.57
  12   0  -4    1.61    0.53
  12   0  -3   -0.11    0.58
  12   0  -2  198.02    4.25
  12   0  -1   -0.12    0.57
  12   0   0   26.59    0.97
  12   0   1    0.17    0.68
  12   0   2  145.33    3.31
  12   0   3    0.21    0.53
  12   0   4  541.08   10.52
  12   0   5   -0.04    0.52
  12   0   6   19.63    0.84
  12   0   7   -0.12    0.53
  12   0   8    0.33    0.48
  12   0   9   -0.20    0.59
  12   0  10    4.16    0.53
  12   0  11    0.33    0.51
  12   0  12   16.31    0.88
  12   0  13   -0.25    0.44
  12   0  14    1.57    0.60
  12   0  15   -0.13    0.54
  12   0  16    0.61    0.58
  12   0  17    0.64    0.73
  13   0 -22   -0.60    0.72
  13   0 -21   12.58    1.03
  13   0 -20    0.82    0.89
  13   0 -19   35.27    1.47
  13   0 -18   -0.11    0.65
  13   0 -17   52.15    1.65
  13   0 -16    0.45    0.68
  13   0 -15    5.72    0.76
  13   0 -14    0.18    0.88
  13   0 -13  101.58    2.72
  13   0 -12    0.16    0.66
  13   0 -11   25.96    0.99
  13   0 -10   -0.21    0.66
  13   0  -9   42.97    1.42
  13   0  -8    0.05    0.53
  13   0  -7  185.37    3.89
  13   0  -6   -0.38    0.63
  13   0  -5  513.83    9.55
  13   0  -4   -0.58    0.60
  13   0  -3  560.11   10.29
  13   0  -2   -0.59    0.53
  13   0  -1   79.47    2.30
  13   0   0    0.14    0.54
  13   0   1   57.66    1.85
  13   0   2    0.49    0.55
  13   0   3  272.35    5.64
  13   0   4   -0.56    0.50
  13   0   5   31.32    1.20
  13   0   6    0.10    0.53
  13   0   7    3.33    0.58
  13   0   8    0.27    0.52
  13   0   9   50.56    1.67
  13   0  10    0.14    0.58
  13   0  11    1.29    0.45
  13   0  12    0.35    0.61
  13   0  13    5.81    0.67
  13   0  14   -0.32    0.51
  13   0  15   48.86    1.59
  13   0  16    0.12    0.54
  14   0 -21    0.38    0.68
  14   0 -20   30.61    1.33
  14   0 -19    0.22    0.74
  14   0 -18    0.60    0.95
  14   0 -17    0.73    0.72
  14   0 -16   56.57    1.62
  14   0 -15   -0.11    0.66
  14   0 -14  247.34    5.20
  14   0 -13    0.70    0.72
  14   0 -12   40.75    1.61
  14   0 -11    0.67    0.60
  14   0 -10   16.60    0.81
  14   0  -9    0.56    0.60
  14   0  -8  105.51    2.89
  14   0  -7   -0.84    0.56
  14   0  -6  289.87    6.27
  14   0  -5    0.38    0.64
  14   0  -4   10.26    0.79
  14   0  -3    0.05    0.52
  14   0  -2  155.92    3.99
  14   0  -1   -0.14    0.56
  14   0   0  139.51    3.33
  14   0   1   -0.18    0.66
  14   0   2   41.11    1.38
  14   0   3    0.50    0.52
  14   0   4   -0.24    0.63
  14   0   5   -0.40    0.52
  14   0   6   25.43    0.99
  14   0   7    0.42    0.53
  14   0   8   24.58    0.94
  14   0   9    0.02    0.51
  14   0  10   24.76    1.25
  14   0  11   -0.50    0.51
  14   0  12    0.07    0.45
  14   0  13   -0.02    0.72
  14   0  14   46.03    1.51
  14   0  15   -0.32    0.50
  15   0 -21    5.73    1.14
  15   0 -20    0.04    0.81
  15   0 -19    1.57    0.75
  15   0 -18   -0.01    0.76
  15   0 -17    4.00    0.77
  15   0 -16   -0.56    0.71
  15   0 -15   40.53    1.45
  15   0 -14    0.10    0.67
  15   0 -13   51.90    1.75
  15   0 -12   -0.84    0.67
  15   0 -11    7.06    0.82
  15   0 -10   -0.07    0.57
  15   0  -9   25.20    1.04
  15   0  -8    0.34    0.74
  15   0  -7  152.04    3.30
  15   0  -6   -0.73    0.69
  15   0  -5    9.37    0.77
  15   0  -4    0.06    0.65
  15   0  -3   26.89    1.18
  15   0  -2    0.29    0.77
  15   0  -1   36.55    1.38
  15   0   0   -0.02    0.57
  15   0   1   60.40    1.77
  15   0   2    0.20    0.60
  15   0   3   10.17    0.73
  15   0   4    0.68    0.69
  15   0   5   22.29    0.99
  15   0   6   -0.50    0.52
  15   0   7   43.46    1.59
  15   0   8   -0.25    0.52
  15   0   9    6.13    0.67
  15   0  10    1.07    0.72
  15   0  11   37.98    1.24
  15   0  12    0.00    0.52
  15   0  13   25.85    1.04
  15   0  14   -0.82    0.79
  16   0 -20    4.57    0.82
  16   0 -19    0.45    0.76
  16   0 -18    0.58    0.66
  16   0 -17   -0.72    0.77
  16   0 -16    9.43    0.88
  16   0 -15   -0.43    0.82
  16   0 -14    1.18    0.65
  16   0 -13    0.21    0.78
  16   0 -12    6.21    0.74
  16   0 -11    0.20    0.82
  16   0 -10   26.33    1.18
  16   0  -9    0.35    0.75
  16   0  -8    0.39    0.64
  16   0  -7    0.17    0.72
  16   0  -6  155.31    3.80
  16   0  -5    0.05    0.67
  16   0  -4  193.24    4.47
  16   0  -3   -0.12    0.70
  16   0  -2   86.23    2.42
  16   0  -1    0.36    0.54
  16   0   0   12.29    0.84
  16   0   1    0.49    0.60
  16   0   2  171.76    3.73
  16   0   3   -0.26    0.61
  16   0   4   93.12    2.28
  16   0   5    0.10    0.61
  16   0   6   22.24    1.07
  16   0   7   -0.10    0.65
  16   0   8   -0.06    0.56
  16   0   9    0.29    0.51
  16   0  10    5.26    0.81
  16   0  11    0.27    0.64
  16   0  12   16.57    0.83
  16   0  13    1.14    0.86
  17   0 -18    0.09    0.80
  17   0 -17   14.49    0.91
  17   0 -16    0.14    0.74
  17   0 -15    3.03    0.81
  17   0 -14   -0.19    0.64
  17   0 -13   57.31    1.68
  17   0 -12   -0.04    0.62
  17   0 -11  178.28    4.18
  17   0 -10   -0.41    0.62
  17   0  -9    0.02    0.67
  17   0  -8    0.49    0.62
  17   0  -7   61.45    1.84
  17   0  -6    0.27    0.80
  17   0  -5   83.92    2.24
  17   0  -4    0.56    0.72
  17   0  -3  115.58    2.78
  17   0  -2   -0.05    0.54
  17   0  -1   38.78    1.42
  17   0   0    0.23    0.58
  17   0   1    6.88    0.73
  17   0   2    0.53    0.60
  17   0   3    0.56    0.62
  17   0   4   -0.13    0.59
  17   0   5    6.20    0.83
  17   0   6   -0.51    0.67
  17   0   7   38.00    1.33
  17   0   8   -0.08    0.57
  17   0   9    0.49    0.57
  17   0  10    0.73    0.78
  17   0  11   19.44    1.05
  18   0 -17    0.56    0.65
  18   0 -16   -0.40    0.62
  18   0 -15    1.14    0.83
  18   0 -14   18.27    1.11
  18   0 -13    0.19    0.66
  18   0 -12   47.50    1.50
  18   0 -11   -0.38    0.78
  18   0 -10    1.71    0.69
  18   0  -9   -0.15    0.62
  18   0  -8    8.93    0.89
  18   0  -7    0.04    0.74
  18   0  -6    1.82    0.59
  18   0  -5   -0.93    0.74
  18   0  -4    7.58    0.71
  18   0  -3   -0.51    0.65
  18   0  -2    0.58    0.79
  18   0  -1   -0.69    0.65
  18   0   0  128.23    3.00
  18   0   1   -0.45    0.61
  18   0   2    2.01    0.74
  18   0   3    0.23    0.73
  18   0   4   23.43    1.26
  18   0   5   -0.11    0.65
  18   0   6   64.93    1.72
  18   0   7    0.24    0.66
  18   0   8    0.35    0.54
  18   0   9    0.26    0.78
  19   0 -15   26.47    1.38
  19   0 -14    0.01    0.72
  19   0 -13    7.07    0.75
  19   0 -12    0.63    0.77
  19   0 -11    1.01    0.76
  19   0 -10    0.68    0.71
  19   0  -9   22.50    1.11
  19   0  -8   -0.07    0.71
  19   0  -7    2.02    0.72
  19   0  -6   -0.10    0.70
  19   0  -5    5.19    0.82
  19   0  -4   -0.46    0.64
  19   0  -3    0.15    0.66
  19   0  -2   -0.66    0.64
  19   0  -1   21.47    1.12
  19   0   0    0.31    0.63
  19   0   1   12.77    0.96
  19   0   2    0.17    0.52
  19   0   3    1.27    0.63
  19   0   4   -0.13    0.61
  19   0   5    0.39    0.60
  19   0   6   -0.78    0.66
  19   0   7    0.28    0.58
  20   0 -13   -0.20    1.00
  20   0 -12    4.58    0.88
  20   0 -11   -0.35    0.62
  20   0 -10   24.78    1.03
  20   0  -9   -0.31    0.78
  20   0  -8   17.12    0.93
  20   0  -7    0.11    0.70
  20   0  -6   18.97    1.07
  20   0  -5    0.59    0.65
  20   0  -4   43.22    1.44
  20   0  -3    0.20    0.63
  20   0  -2   20.61    1.17
  20   0  -1    0.42    0.69
  20   0   0    3.58    0.94
  20   0   1   -0.39    0.64
  20   0   2   40.50    1.28
  20   0   3   -0.15    0.63
  20   0   4   21.69    1.01
  21   0  -9    7.97    0.97
  21   0  -8   -0.29    0.63
  21   0  -7    1.74    0.92
  21   0  -6    0.01    0.66
  21   0  -5   51.48    1.69
  21   0  -4   -0.69    0.71
  21   0  -3    6.48    1.06
  21   0  -2   -0.30    0.64
  21   0  -1    7.54    0.88
  21   0   0    0.39    0.64
 -21  -1   0    4.82    0.87
 -21  -1   1    5.41    0.90
 -21  -1   2    0.67    0.59
 -21  -1   3    0.33    0.68
 -21  -1   4    2.41    0.71
 -21  -1   5    0.23    0.77
 -21  -1   6    3.72    0.70
 -21  -1   7    2.00    0.77
 -21  -1   8    0.70    0.71
 -21  -1   9   11.81    0.98
 -20  -1  -4    0.46    0.61
 -20  -1  -3   11.00    0.79
 -20  -1  -2    8.20    0.76
 -20  -1  -1    0.64    0.61
 -20  -1   0   48.35    1.70
 -20  -1   1    4.50    0.73
 -20  -1   2   15.79    1.01
 -20  -1   3   17.12    0.98
 -20  -1   4   17.12    1.20
 -20  -1   5    0.58    0.66
 -20  -1   6   23.19    1.09
 -20  -1   7    0.72    0.70
 -20  -1   8    4.09    0.74
 -20  -1   9    1.77    0.70
 -20  -1  10    1.44    0.78
 -20  -1  11    0.46    0.77
 -20  -1  12    2.69    0.81
 -20  -1  13   -0.27    0.67
 -19  -1  -7    0.88    0.62
 -19  -1  -6    0.04    0.75
 -19  -1  -5    1.14    0.64
 -19  -1  -4    0.58    0.67
 -19  -1  -3   21.77    1.12
 -19  -1  -2    9.27    0.82
 -19  -1  -1   66.43    2.09
 -19  -1   0    0.94    0.63
 -19  -1   1    1.60    0.90
 -19  -1   2    2.14    0.74
 -19  -1   3    3.12    0.91
 -19  -1   4    0.65    0.61
 -19  -1   5   50.86    1.52
 -19  -1   6    2.00    0.68
 -19  -1   7   16.38    0.97
 -19  -1   8   -0.36    0.78
 -19  -1   9    2.06    0.69
 -19  -1  10    6.23    0.80
 -19  -1  11   17.24    1.16
 -19  -1  12   -0.33    0.65
 -19  -1  13   27.35    1.25
 -19  -1  14    1.21    0.71
 -19  -1  15    0.98    0.82
 -18  -1  -9    5.65    0.74
 -18  -1  -8    0.26    0.60
 -18  -1  -7   29.68    1.17
 -18  -1  -6    7.10    0.83
 -18  -1  -5   38.71    1.36
 -18  -1  -4    0.93    0.75
 -18  -1  -3    2.07    0.59
 -18  -1  -2    0.70    0.65
 -18  -1  -1   26.84    1.06
 -18  -1   0   15.60    0.92
 -18  -1   1   38.89    1.26
 -18  -1   2   15.69    0.99
 -18  -1   3    0.05    0.59
 -18  -1   4   23.06    1.00
 -18  -1   5   13.32    0.90
 -18  -1   6   11.55    0.92
 -18  -1   7    1.47    0.66
 -18  -1   8    0.25    0.67
 -18  -1   9    2.56    0.73
 -18  -1  10   10.13    0.82
 -18  -1  11   18.57    1.02
 -18  -1  12    4.14    0.78
 -18  -1  13   22.14    1.14
 -18  -1  14   -0.41    0.74
 -18  -1  15   32.14    1.24
 -18  -1  16    2.85    0.76
 -18  -1  17    0.38    0.86
 -17  -1 -11   39.82    1.44
 -17  -1 -10    1.47    0.75
 -17  -1  -9   11.17    0.75
 -17  -1  -8    1.04    0.56
 -17  -1  -7   13.32    1.02
 -17  -1  -6    4.11    0.65
 -17  -1  -5   30.31    1.43
 -17  -1  -4   23.73    1.02
 -17  -1  -3    3.46    0.84
 -17  -1  -2   -0.11    0.61
 -17  -1  -1    3.84    0.73
 -17  -1   0   15.33    0.85
 -17  -1   1    2.41    0.66
 -17  -1   2   32.67    1.08
 -17  -1   3    2.85    0.63
 -17  -1   4    5.14    0.84
 -17  -1   5    1.90    0.69
 -17  -1   6    1.68    0.63
 -17  -1   7   10.08    0.98
 -17  -1   8    5.12    0.68
 -17  -1   9   20.12    1.10
 -17  -1  10   59.47    1.85
 -17  -1  11    3.14    0.86
 -17  -1  12   17.04    0.98
 -17  -1  13   35.54    1.37
 -17  -1  14   37.47    1.45
 -17  -1  15   10.67    0.81
 -17  -1  16    0.30    0.67
 -17  -1  17   18.75    1.22
 -17  -1  18    0.33    0.78
 -16  -1 -12    8.97    0.81
 -16  -1 -11    5.31    0.77
 -16  -1 -10    9.60    0.84
 -16  -1  -9   10.25    0.71
 -16  -1  -8   11.15    0.80
 -16  -1  -7    0.87    0.65
 -16  -1  -6   15.12    0.84
 -16  -1  -5   40.94    1.40
 -16  -1  -4    0.80    0.66
 -16  -1  -3   55.41    1.78
 -16  -1  -2   50.52    1.58
 -16  -1  -1    8.85    0.69
 -16  -1   0    2.23    0.77
 -16  -1   1   22.59    1.14
 -16  -1   2   15.97    0.96
 -16  -1   3   12.07    1.00
 -16  -1   4   39.98    1.43
 -16  -1   5   26.11    1.01
 -16  -1   6   53.80    1.69
 -16  -1   7    9.92    0.92
 -16  -1   8  119.05    3.12
 -16  -1   9  114.27    3.02
 -16  -1  10    6.52    0.78
 -16  -1  11   10.93    0.78
 -16  -1  12   34.02    1.24
 -16  -1  13   15.66    1.01
 -16  -1  14    0.84    0.88
 -16  -1  15    5.31    0.72
 -16  -1  16   32.79    1.32
 -16  -1  17   20.14    0.96
 -16  -1  18    8.79    1.09
 -16  -1  19    0.51    0.71
 -16  -1  20    3.19    0.86
 -15  -1 -14   18.85    0.98
 -15  -1 -13    0.62    0.64
 -15  -1 -12   15.03    0.87
 -15  -1 -11   32.53    1.12
 -15  -1 -10   14.46    0.86
 -15  -1  -9   15.41    0.76
 -15  -1  -8    5.86    0.76
 -15  -1  -7    7.20    0.62
 -15  -1  -6   95.74    2.51
 -15  -1  -5   94.93    2.37
 -15  -1  -4    1.06    0.61
 -15  -1  -3   35.37    1.14
 -15  -1  -2   20.35    1.05
 -15  -1  -1    6.78    0.70
 -15  -1   0   77.86    1.94
 -15  -1   1    4.74    0.59
 -15  -1   2    9.22    0.78
 -15  -1   3    4.07    0.68
 -15  -1   4    0.49    0.57
 -15  -1   5   28.14    1.25
 -15  -1   6    6.12    0.75
 -15  -1   7   91.72    2.20
 -15  -1   8  137.59    3.10
 -15  -1   9    1.75    0.62
 -15  -1  10   28.58    1.17
 -15  -1  11   26.55    1.15
 -15  -1  12    2.81    0.79
 -15  -1  13    1.10    0.63
 -15  -1  14    4.64    0.79
 -15  -1  15    2.92    0.81
 -15  -1  16   26.21    1.08
 -15  -1  17   41.90    1.66
 -15  -1  18   -0.24    0.71
 -15  -1  19    3.27    1.00
 -15  -1  20    7.47    0.93
 -15  -1  21    1.91    1.12
 -14  -1 -15    8.33    0.95
 -14  -1 -14    7.78    0.82
 -14  -1 -13    0.11    0.56
 -14  -1 -12   40.29    1.31
 -14  -1 -11    5.74    0.58
 -14  -1 -10   30.72    1.30
 -14  -1  -9   11.61    0.68
 -14  -1  -8    2.03    0.72
 -14  -1  -7   25.65    1.06
 -14  -1  -6   66.52    1.93
 -14  -1  -5   -0.01    0.49
 -14  -1  -4   89.66    2.38
 -14  -1  -3    0.90    0.67
 -14  -1  -2    9.66    0.68
 -14  -1  -1    2.26    0.54
 -14  -1   0    6.25    0.69
 -14  -1   1    5.06    0.64
 -14  -1   2  121.24    2.95
 -14  -1   3   25.32    1.10
 -14  -1   4   16.96    0.79
 -14  -1   5   10.12    0.79
 -14  -1   6   48.70    1.69
 -14  -1   7   52.05    1.66
 -14  -1   8   72.49    2.14
 -14  -1   9    1.32    0.58
 -14  -1  10   48.97    1.55
 -14  -1  11   23.34    1.12
 -14  -1  12    5.00    0.92
 -14  -1  13    6.37    0.71
 -14  -1  14   10.96    0.84
 -14  -1  15   86.60    2.33
 -14  -1  16   64.28    1.91
 -14  -1  17    3.40    0.73
 -14  -1  18   42.49    1.40
 -14  -1  19   26.68    1.19
 -14  -1  20    0.11    0.98
 -14  -1  21    6.90    0.94
 -13  -1 -16    8.32    0.73
 -13  -1 -15    0.27    0.52
 -13  -1 -14    2.85    0.66
 -13  -1 -13   96.92    2.20
 -13  -1 -12    1.22    0.53
 -13  -1 -11    0.17    0.50
 -13  -1 -10    5.09    0.68
 -13  -1  -9   30.74    1.18
 -13  -1  -8   14.12    0.81
 -13  -1  -7  138.01    3.25
 -13  -1  -6    3.36    0.65
 -13  -1  -5    5.33    0.60
 -13  -1  -4   21.33    1.03
 -13  -1  -3    9.77    0.64
 -13  -1  -2  101.23    2.62
 -13  -1  -1   36.70    1.31
 -13  -1   0   10.06    0.67
 -13  -1   1  158.87    3.62
 -13  -1   2   66.15    1.94
 -13  -1   3    3.85    0.59
 -13  -1   4  100.25    2.50
 -13  -1   5   65.77    1.93
 -13  -1   6  108.50    2.98
 -13  -1   7   77.46    2.17
 -13  -1   8   23.18    1.01
 -13  -1   9  107.02    2.64
 -13  -1  10   -0.18    0.63
 -13  -1  11    2.33    0.57
 -13  -1  12   20.20    1.05
 -13  -1  13   11.11    0.90
 -13  -1  14    2.42    0.64
 -13  -1  15  102.69    2.63
 -13  -1  16    1.83    0.74
 -13  -1  17   12.82    0.92
 -13  -1  18   34.27    1.43
 -13  -1  19    0.49    0.66
 -13  -1  20    3.28    0.68
 -13  -1  21    4.41    0.75
 -13  -1  22    2.83    0.94
 -12  -1 -17    4.91    0.69
 -12  -1 -16   11.09    0.78
 -12  -1 -15    0.20    0.51
 -12  -1 -14   72.93    2.06
 -12  -1 -13   18.01    0.87
 -12  -1 -12    0.48    0.49
 -12  -1 -11   27.70    1.11
 -12  -1 -10   11.00    0.71
 -12  -1  -9    1.25    0.51
 -12  -1  -8  138.43    3.01
 -12  -1  -7    5.31    0.57
 -12  -1  -6   26.57    1.06
 -12  -1  -5   96.81    2.54
 -12  -1  -4    7.22    0.74
 -12  -1  -3   57.15    1.75
 -12  -1  -2   13.54    0.74
 -12  -1  -1   77.18    1.89
 -12  -1   0    5.32    0.62
 -12  -1   1  206.96    4.26
 -12  -1   2   15.42    0.82
 -12  -1   3   37.97    1.33
 -12  -1   4    0.83    0.56
 -12  -1   5   36.99    1.29
 -12  -1   6   70.27    1.84
 -12  -1   7    6.75    0.89
 -12  -1   8  112.18    2.97
 -12  -1   9   34.94    1.21
 -12  -1  10   30.56    1.20
 -12  -1  11    7.47    0.67
 -12  -1  12    1.10    0.66
 -12  -1  13    4.16    0.64
 -12  -1  14   10.88    0.80
 -12  -1  15   57.00    1.91
 -12  -1  16    0.99    0.71
 -12  -1  17   72.17    1.83
 -12  -1  18   37.35    1.15
 -12  -1  19   -0.28    0.60
 -12  -1  20   17.82    0.96
 -12  -1  21    4.00    0.69
 -12  -1  22    1.87    0.64
 -12  -1  23   14.26    0.80
 -11  -1 -18    9.46    0.89
 -11  -1 -17    1.37    0.57
 -11  -1 -16   15.44    0.78
 -11  -1 -15    7.72    0.72
 -11  -1 -14   44.60    1.48
 -11  -1 -13   39.81    1.22
 -11  -1 -12    0.09    0.49
 -11  -1 -11  118.35    2.88
 -11  -1 -10    7.36    0.64
 -11  -1  -9  168.34    3.52
 -11  -1  -8   25.80    0.97
 -11  -1  -7    0.90    0.45
 -11  -1  -6  116.87    3.13
 -11  -1  -5  124.86    2.68
 -11  -1  -4   34.77    1.13
 -11  -1  -3  189.34    4.17
 -11  -1  -2  133.93    3.08
 -11  -1  -1    1.56    0.51
 -11  -1   0  216.93    4.57
 -11  -1   1    0.53    0.51
 -11  -1   2    1.76    0.60
 -11  -1   3   27.81    1.11
 -11  -1   4    8.52    0.66
 -11  -1   5   99.67    2.52
 -11  -1   6   53.65    1.60
 -11  -1   7    0.51    0.60
 -11  -1   8  128.30    3.36
 -11  -1   9   63.78    1.83
 -11  -1  10    3.19    0.68
 -11  -1  11   96.63    2.39
 -11  -1  12   13.14    1.00
 -11  -1  13    0.72    0.66
 -11  -1  14   50.72    1.49
 -11  -1  15    5.26    0.74
 -11  -1  16    4.59    0.63
 -11  -1  17   13.77    0.90
 -11  -1  18   26.84    1.13
 -11  -1  19   87.20    1.99
 -11  -1  20    7.80    0.75
 -11  -1  21    0.74    0.60
 -11  -1  22    4.70    0.76
 -11  -1  23    0.27    0.78
 -10  -1 -19    0.06    0.57
 -10  -1 -18    2.49    0.63
 -10  -1 -17    1.75    0.52
 -10  -1 -16   16.06    0.82
 -10  -1 -15   16.85    0.82
 -10  -1 -14   47.40    1.40
 -10  -1 -13    3.23    0.61
 -10  -1 -12   47.60    1.38
 -10  -1 -11   55.42    1.61
 -10  -1 -10   52.00    1.47
 -10  -1  -9   90.64    2.12
 -10  -1  -8   64.33    1.66
 -10  -1  -7   89.06    2.25
 -10  -1  -6    3.35    0.50
 -10  -1  -5    0.24    0.49
 -10  -1  -4  124.20    2.87
 -10  -1  -3  284.52    5.90
 -10  -1  -2    1.14    0.55
 -10  -1  -1  285.43    5.67
 -10  -1   0    5.21    0.53
 -10  -1   1  183.34    4.17
 -10  -1   2    0.83    0.50
 -10  -1   3   19.88    0.98
 -10  -1   4   17.90    0.82
 -10  -1   5  107.24    2.79
 -10  -1   6    1.32    0.50
 -10  -1   7   47.42    1.43
 -10  -1   8   81.40    2.24
 -10  -1   9    1.70    0.54
 -10  -1  10  131.45    3.40
 -10  -1  11   21.77    1.03
 -10  -1  12    6.31    0.63
 -10  -1  13   15.05    0.84
 -10  -1  14    6.76    0.66
 -10  -1  15    0.09    0.60
 -10  -1  16   50.93    1.64
 -10  -1  17   41.11    1.37
 -10  -1  18   12.49    0.77
 -10  -1  19   43.90    1.41
 -10  -1  20    1.32    0.64
 -10  -1  21    1.44    0.70
 -10  -1  22   18.67    1.11
 -10  -1  23    1.01    0.70
 -10  -1  24    2.97    0.70
  -9  -1 -20    7.96    0.76
  -9  -1 -19    0.16    0.46
  -9  -1 -18   38.46    1.31
  -9  -1 -17    1.17    0.47
  -9  -1 -16   74.34    2.30
  -9  -1 -15    7.91    0.66
  -9  -1 -14   10.19    0.68
  -9  -1 -13   28.94    1.03
  -9  -1 -12    8.97    0.58
  -9  -1 -11    1.16    0.56
  -9  -1 -10   87.54    2.24
  -9  -1  -9  469.69    8.59
  -9  -1  -8   52.38    1.43
  -9  -1  -7   99.42    2.61
  -9  -1  -6   15.20    0.78
  -9  -1  -5   28.73    1.05
  -9  -1  -4  200.95    4.18
  -9  -1  -3    5.30    0.49
  -9  -1  -2  369.81    7.18
  -9  -1  -1  266.81    5.61
  -9  -1   0   12.52    0.73
  -9  -1   1    1.73    0.48
  -9  -1   2    1.96    0.52
  -9  -1   3  332.09    6.85
  -9  -1   4   19.39    0.87
  -9  -1   5   63.39    1.88
  -9  -1   6   24.26    0.95
  -9  -1   7    1.35    0.55
  -9  -1   8    1.53    0.48
  -9  -1   9   32.07    1.46
  -9  -1  10   22.53    0.96
  -9  -1  11   99.32    2.71
  -9  -1  12   49.66    1.67
  -9  -1  13  105.41    2.68
  -9  -1  14    5.28    0.80
  -9  -1  15   15.65    0.98
  -9  -1  16    0.79    0.57
  -9  -1  17    1.53    0.57
  -9  -1  18   19.70    0.97
  -9  -1  19   25.61    1.10
  -9  -1  20   14.72    0.98
  -9  -1  21   49.72    1.54
  -9  -1  22    3.90    0.76
  -9  -1  23    5.80    0.78
  -9  -1  24   -0.23    0.71
  -8  -1 -21    2.94    0.59
  -8  -1 -20    0.38    0.54
  -8  -1 -19   31.87    1.23
  -8  -1 -18    8.42    0.73
  -8  -1 -17   31.03    1.25
  -8  -1 -16   21.82    0.90
  -8  -1 -15   30.89    1.12
  -8  -1 -14  161.43    3.47
  -8  -1 -13   46.65    1.41
  -8  -1 -12    0.13    0.43
  -8  -1 -11   37.69    1.22
  -8  -1 -10  341.13    6.99
  -8  -1  -9   20.93    0.80
  -8  -1  -8    5.94    0.45
  -8  -1  -7   42.33    1.20
  -8  -1  -6    4.05    0.40
  -8  -1  -5  126.88    2.85
  -8  -1  -4  171.80    3.85
  -8  -1  -3   39.03    1.32
  -8  -1  -2   88.37    2.32
  -8  -1  -1  145.49    3.34
  -8  -1   0   66.69    1.98
  -8  -1   1   91.75    2.23
  -8  -1   2   85.00    2.13
  -8  -1   3    8.26    0.63
  -8  -1   4   -0.10    0.47
  -8  -1   5  287.32    5.77
  -8  -1   6    3.29    0.56
  -8  -1   7    3.47    0.53
  -8  -1   8   86.28    2.45
  -8  -1   9  204.83    4.74
  -8  -1  10  130.18    3.13
  -8  -1  11    4.75    0.61
  -8  -1  12   51.62    1.56
  -8  -1  13    6.96    0.82
  -8  -1  14    7.56    0.88
  -8  -1  15  202.32    4.44
  -8  -1  16   17.09    0.81
  -8  -1  17   16.25    0.85
  -8  -1  18   13.19    0.84
  -8  -1  19    0.85    0.64
  -8  -1  20   32.12    1.32
  -8  -1  21   66.15    1.91
  -8  -1  22    0.34    0.57
  -8  -1  23    4.19    0.68
  -8  -1  24    2.05    0.70
  -7  -1 -21    0.90    0.58
  -7  -1 -20    6.83    0.77
  -7  -1 -19   30.34    1.14
  -7  -1 -18    0.34    0.60
  -7  -1 -17   18.01    0.93
  -7  -1 -16    7.23    0.61
  -7  -1 -15  153.25    3.19
  -7  -1 -14   21.17    0.80
  -7  -1 -13    0.26    0.42
  -7  -1 -12   25.06    0.97
  -7  -1 -11   70.51    1.82
  -7  -1 -10   67.92    1.79
  -7  -1  -9   10.16    0.57
  -7  -1  -8    5.91    0.45
  -7  -1  -7    9.71    0.52
  -7  -1  -6    3.16    0.44
  -7  -1  -5  149.62    3.34
  -7  -1  -4   30.55    0.99
  -7  -1  -3  207.27    4.71
  -7  -1  -2  244.34    5.01
  -7  -1  -1  185.27    4.02
  -7  -1   0   44.51    1.30
  -7  -1   1    6.61    0.50
  -7  -1   2   91.44    2.22
  -7  -1   3  317.12    6.70
  -7  -1   4    5.50    0.62
  -7  -1   5   16.99    0.82
  -7  -1   6   25.05    0.87
  -7  -1   7   29.18    1.10
  -7  -1   8    2.86    0.53
  -7  -1   9  676.09   13.02
  -7  -1  10    0.37    0.53
  -7  -1  11   78.99    2.07
  -7  -1  12  144.92    3.43
  -7  -1  13    7.39    0.72
  -7  -1  14  191.76    4.35
  -7  -1  15    4.63    0.58
  -7  -1  16    4.50    0.59
  -7  -1  17    3.29    0.57
  -7  -1  18    0.71    0.53
  -7  -1  19   12.51    0.87
  -7  -1  20   84.43    2.24
  -7  -1  21   25.12    1.16
  -7  -1  22    2.30    0.64
  -7  -1  23    5.25    0.79
  -7  -1  24    1.27    0.68
  -6  -1 -22    1.96    0.65
  -6  -1 -21   24.66    1.01
  -6  -1 -20    8.07    0.72
  -6  -1 -19    0.38    0.50
  -6  -1 -18    8.15    0.70
  -6  -1 -17   63.37    1.68
  -6  -1 -16    6.26    0.56
  -6  -1 -15    6.06    0.52
  -6  -1 -14   36.60    1.07
  -6  -1 -13   57.57    1.56
  -6  -1 -12   65.12    1.81
  -6  -1 -11   31.38    1.01
  -6  -1 -10   16.70    0.69
  -6  -1  -9   53.81    1.42
  -6  -1  -8  133.63    3.06
  -6  -1  -7  181.17    3.81
  -6  -1  -6  904.35   16.08
  -6  -1  -5    4.00    0.45
  -6  -1  -4   13.26    0.62
  -6  -1  -3   63.27    1.75
  -6  -1  -2   62.41    1.60
  -6  -1  -1    0.68    0.39
  -6  -1   0   56.61    1.63
  -6  -1   1    1.90    0.44
  -6  -1   2  105.10    2.51
  -6  -1   3   40.63    1.28
  -6  -1   4   94.03    2.65
  -6  -1   5   16.67    0.91
  -6  -1   6  193.23    4.64
  -6  -1   7  150.64    4.22
  -6  -1   8  498.64    9.99
  -6  -1   9  185.30    3.97
  -6  -1  10  114.69    2.97
  -6  -1  11   30.17    1.06
  -6  -1  12    8.34    0.65
  -6  -1  13   34.14    1.16
  -6  -1  14  193.82    4.53
  -6  -1  15    0.35    0.63
  -6  -1  16   60.55    1.91
  -6  -1  17   16.35    0.80
  -6  -1  18    0.39    0.51
  -6  -1  19   27.88    1.15
  -6  -1  20   29.69    1.45
  -6  -1  21    1.11    0.60
  -6  -1  22   90.23    2.31
  -6  -1  23   15.01    0.91
  -6  -1  24    8.88    0.93
  -6  -1  25   22.24    1.11
  -5  -1 -22    3.62    0.57
  -5  -1 -21   11.84    0.78
  -5  -1 -20   12.67    0.71
  -5  -1 -19   11.51    0.72
  -5  -1 -18   57.43    1.55
  -5  -1 -17    0.44    0.49
  -5  -1 -16    0.42    0.55
  -5  -1 -15  133.46    3.10
  -5  -1 -14   86.53    2.31
  -5  -1 -13  102.54    2.34
  -5  -1 -12  201.11    4.17
  -5  -1 -11   11.99    0.63
  -5  -1 -10   49.26    1.44
  -5  -1  -9  229.00    4.67
  -5  -1  -8  241.46    4.81
  -5  -1  -7  532.51    9.90
  -5  -1  -6  259.02    5.04
  -5  -1  -5   95.46    2.26
  -5  -1  -4  378.63    7.18
  -5  -1  -3   36.05    1.11
  -5  -1  -2   52.04    1.40
  -5  -1  -1  211.43    4.50
  -5  -1   0    4.38    0.42
  -5  -1   1   23.69    0.86
  -5  -1   2    1.94    0.44
  -5  -1   3  939.67   17.34
  -5  -1   4  865.92   15.92
  -5  -1   5   64.69    1.88
  -5  -1   6   11.77    0.68
  -5  -1   7  461.28    9.54
  -5  -1   8  199.38    4.50
  -5  -1   9   47.90    1.43
  -5  -1  10  312.67    6.27
  -5  -1  11   57.87    1.62
  -5  -1  12   72.76    1.96
  -5  -1  13   56.29    1.77
  -5  -1  14   42.50    1.48
  -5  -1  15  106.46    2.58
  -5  -1  16  235.37    5.15
  -5  -1  17   11.69    0.74
  -5  -1  18   26.13    1.00
  -5  -1  19   13.23    0.77
  -5  -1  20    5.24    0.86
  -5  -1  21   81.72    1.95
  -5  -1  22    8.89    0.75
  -5  -1  23    1.09    0.73
  -5  -1  24    7.52    0.82
  -5  -1  25   17.88    0.94
  -4  -1 -23    1.30    0.83
  -4  -1 -22    0.50    0.54
  -4  -1 -21   37.94    1.24
  -4  -1 -20    4.32    0.63
  -4  -1 -19   32.30    1.06
  -4  -1 -18   11.74    0.66
  -4  -1 -17   12.79    0.76
  -4  -1 -16    9.30    0.70
  -4  -1 -15   35.44    1.25
  -4  -1 -14   23.75    0.90
  -4  -1 -13   47.94    1.35
  -4  -1 -12   74.36    1.79
  -4  -1 -11    2.29    0.36
  -4  -1 -10  185.42    3.97
  -4  -1  -9  242.88    5.23
  -4  -1  -8   40.20    1.20
  -4  -1  -7   17.52    0.71
  -4  -1  -6   72.17    1.68
  -4  -1  -5   53.53    1.31
  -4  -1  -4   56.11    1.52
  -4  -1  -3  249.99    4.82
  -4  -1  -2   15.69    0.61
  -4  -1  -1  383.36    7.38
  -4  -1   0  264.67    5.37
  -4  -1   1  254.35    5.42
  -4  -1   2    2.44    0.58
  -4  -1   3  904.03   15.82
  -4  -1   4  380.09    8.08
  -4  -1   5  168.47    3.81
  -4  -1   6  159.31    3.43
  -4  -1   7  172.55    3.72
  -4  -1   8  144.69    3.23
  -4  -1   9  195.95    4.53
  -4  -1  10  816.88   15.15
  -4  -1  11    1.42    0.45
  -4  -1  12   39.00    1.24
  -4  -1  13    7.79    0.63
  -4  -1  14   58.81    1.83
  -4  -1  15    4.11    0.57
  -4  -1  16  116.75    2.77
  -4  -1  17   15.74    0.96
  -4  -1  18    5.76    0.66
  -4  -1  19   44.75    1.43
  -4  -1  20    8.70    0.73
  -4  -1  21   16.99    0.96
  -4  -1  22    0.39    0.54
  -4  -1  23    0.91    0.66
  -4  -1  24   12.18    0.86
  -4  -1  25    0.60    0.62
  -3  -1 -23    1.40    0.56
  -3  -1 -22   11.06    0.91
  -3  -1 -21    7.16    0.65
  -3  -1 -20   -0.48    0.54
  -3  -1 -19    1.02    0.53
  -3  -1 -18   50.90    1.64
  -3  -1 -17   44.41    1.49
  -3  -1 -16    3.54    0.52
  -3  -1 -15    0.65    0.38
  -3  -1 -14   86.42    2.12
  -3  -1 -13    3.34    0.42
  -3  -1 -12    9.81    0.53
  -3  -1 -11   59.19    1.46
  -3  -1 -10   16.16    0.62
  -3  -1  -9  170.03    3.63
  -3  -1  -8  115.12    2.78
  -3  -1  -7 1448.59   34.80
  -3  -1  -6   22.51    0.77
  -3  -1  -5  153.25    3.08
  -3  -1  -4   67.20    1.51
  -3  -1  -3  414.43    7.62
  -3  -1  -2   11.95    0.46
  -3  -1   0  260.57    5.32
  -3  -1   1  538.80    9.98
  -3  -1   2  304.45    5.65
  -3  -1   3   19.80    0.69
  -3  -1   4  448.14    8.81
  -3  -1   6   97.12    2.36
  -3  -1   7   44.42    1.33
  -3  -1   8  541.95   10.39
  -3  -1   9  136.50    3.14
  -3  -1  10   21.99    0.92
  -3  -1  11  114.54    2.84
  -3  -1  12   24.32    1.02
  -3  -1  13    3.90    0.53
  -3  -1  14   78.07    2.17
  -3  -1  15   52.97    1.51
  -3  -1  16   32.59    1.17
  -3  -1  17   47.80    1.61
  -3  -1  18    3.27    0.66
  -3  -1  19    2.21    0.60
  -3  -1  20    8.15    0.68
  -3  -1  21   36.86    1.18
  -3  -1  22   -0.15    0.60
  -3  -1  23   34.44    1.17
  -3  -1  24    3.19    0.71
  -3  -1  25   25.70    1.08
  -2  -1 -24    3.34    0.78
  -2  -1 -23   14.82    0.80
  -2  -1 -22   13.44    0.83
  -2  -1 -21    0.73    0.63
  -2  -1 -20    2.18    0.53
  -2  -1 -19    5.67    0.63
  -2  -1 -18    4.03    0.59
  -2  -1 -17   19.33    0.81
  -2  -1 -16   55.42    1.46
  -2  -1 -15   44.18    1.34
  -2  -1 -14  180.90    3.91
  -2  -1 -13    0.18    0.39
  -2  -1 -12  699.16   12.25
  -2  -1 -11    1.53    0.37
  -2  -1 -10   10.20    0.54
  -2  -1  -9  121.79    2.64
  -2  -1  -8  530.02    9.71
  -2  -1  -7   33.61    0.97
  -2  -1  -6   93.99    2.29
  -2  -1  -5  446.55    8.04
  -2  -1  -4    2.64    0.28
  -2  -1  -3  655.12   16.24
  -2  -1  -1  452.34    9.29
  -2  -1   0  133.82    2.70
  -2  -1   1    2.30    0.28
  -2  -1   2  473.20    8.67
  -2  -1   4   18.92    0.78
  -2  -1   5  864.10   15.56
  -2  -1   6  259.87    5.52
  -2  -1   7  230.32    4.97
  -2  -1   8  628.71   11.94
  -2  -1   9   17.23    0.74
  -2  -1  10   96.61    2.34
  -2  -1  11  537.91   10.77
  -2  -1  12    0.90    0.44
  -2  -1  13   77.04    2.03
  -2  -1  14   34.99    1.08
  -2  -1  15   60.49    1.70
  -2  -1  16    0.46    0.47
  -2  -1  17   85.59    2.35
  -2  -1  18    0.10    0.53
  -2  -1  19   51.82    1.65
  -2  -1  20   37.90    1.39
  -2  -1  21    5.44    0.63
  -2  -1  22    5.15    0.81
  -2  -1  23   25.35    1.03
  -2  -1  24    1.21    0.69
  -2  -1  25   10.01    1.00
  -1  -1 -24   -0.42    0.59
  -1  -1 -23   18.28    1.15
  -1  -1 -22    7.20    0.68
  -1  -1 -21   14.49    0.98
  -1  -1 -20   30.41    1.10
  -1  -1 -19    4.90    0.65
  -1  -1 -18    0.68    0.51
  -1  -1 -17    3.52    0.53
  -1  -1 -16   45.54    1.33
  -1  -1 -15  102.95    2.31
  -1  -1 -14   53.43    1.41
  -1  -1 -13  183.95    3.84
  -1  -1 -12   48.97    1.38
  -1  -1 -11  255.91    5.01
  -1  -1 -10  162.36    3.61
  -1  -1  -9  552.86   10.35
  -1  -1  -8   32.41    1.00
  -1  -1  -7   41.81    1.20
  -1  -1  -6   36.90    0.93
  -1  -1  -5  984.53   33.60
  -1  -1  -4  278.48    5.33
  -1  -1  -3  112.59    2.23
  -1  -1  -2   27.87    0.93
  -1  -1   2  483.38   10.28
  -1  -1   3    9.39    0.42
  -1  -1   6    2.93    0.50
  -1  -1   7   11.09    0.65
  -1  -1   8  850.29   15.56
  -1  -1   9  107.62    2.70
  -1  -1  10  456.52    8.70
  -1  -1  11  338.68    6.70
  -1  -1  12   62.37    1.71
  -1  -1  13  170.74    3.66
  -1  -1  14    3.53    0.59
  -1  -1  15   21.47    0.93
  -1  -1  16  227.31    5.07
  -1  -1  17    8.07    0.61
  -1  -1  18   12.62    0.78
  -1  -1  19   24.36    1.03
  -1  -1  20    3.39    0.63
  -1  -1  21   66.72    1.91
  -1  -1  22    7.64    0.83
  -1  -1  23   14.76    0.94
  -1  -1  24    7.97    0.76
   0  -1 -24   19.20    1.06
   0  -1 -23    8.55    0.73
   0  -1 -22    5.72    0.63
   0  -1 -21    9.49    0.76
   0  -1 -20   42.61    1.31
   0  -1 -19   31.66    1.22
   0  -1 -18  119.36    2.78
   0  -1 -17   54.24    1.63
   0  -1 -16    9.14    0.58
   0  -1 -15   18.82    0.86
   0  -1 -14   29.45    0.94
   0  -1 -13   11.51    0.62
   0  -1 -12  309.06    6.01
   0  -1 -11  109.23    2.56
   0  -1 -10  464.45    8.50
   0  -1  -9   87.09    1.85
   0  -1  -8   69.84    1.86
   0  -1  -7   13.18    0.71
   0  -1  -6  183.76    3.73
   0  -1  -5   12.04    0.51
   0  -1  -4   29.70    0.89
   0  -1  -3   99.74    2.02
   0  -1   2  335.79    8.90
   0  -1   3   94.93    2.02
   0  -1   4   28.16    0.83
   0  -1   5   10.26    0.67
   0  -1   6  179.27    3.93
   0  -1   7   12.68    0.64
   0  -1   8   71.09    1.88
   0  -1   9   85.06    2.14
   0  -1  10  467.10    8.90
   0  -1  11  107.13    2.56
   0  -1  12  315.48    6.27
   0  -1  13   13.21    0.68
   0  -1  14   29.76    1.06
   0  -1  15   18.24    0.80
   0  -1  16    8.97    0.77
   0  -1  17   54.27    1.51
   0  -1  18  122.19    3.10
   0  -1  19   33.68    1.19
   0  -1  20   40.83    1.45
   0  -1  21    9.62    0.72
   0  -1  22    6.58    0.78
   0  -1  23    7.41    0.75
   0  -1  24   21.45    1.06
   1  -1 -24    8.01    0.72
   1  -1 -23   14.39    1.07
   1  -1 -22    8.75    0.73
   1  -1 -21   64.12    1.69
   1  -1 -20    2.65    0.67
   1  -1 -19   23.56    0.95
   1  -1 -18   11.47    0.70
   1  -1 -17    7.86    0.70
   1  -1 -16  228.93    4.73
   1  -1 -15   21.34    0.90
   1  -1 -14    3.92    0.58
   1  -1 -13  166.93    3.62
   1  -1 -12   60.23    1.57
   1  -1 -11  334.32    6.61
   1  -1 -10  459.64    8.81
   1  -1  -9  108.41    2.56
   1  -1  -8  849.48   15.39
   1  -1  -7   11.59    0.58
   1  -1  -6    3.58    0.50
   1  -1  -3    9.73    0.40
   1  -1   2   25.72    0.75
   1  -1   3  107.10    2.22
   1  -1   4  277.00    5.39
   1  -1   5 1006.42   20.11
   1  -1   6   35.00    1.17
   1  -1   7   40.92    1.20
   1  -1   8   31.81    1.04
   1  -1   9  552.33   10.04
   1  -1  10  165.38    3.75
   1  -1  11  251.19    5.09
   1  -1  12   48.26    1.33
   1  -1  13  184.42    4.12
   1  -1  14   53.49    1.41
   1  -1  15  105.96    2.67
   1  -1  16   46.18    1.39
   1  -1  17    3.14    0.50
   1  -1  18    1.41    0.68
   1  -1  19    4.55    0.64
   1  -1  20   30.59    1.26
   1  -1  21   14.98    0.89
   1  -1  22    8.20    0.70
   1  -1  23   19.41    1.19
   1  -1  24    0.07    0.57
   2  -1 -25    9.78    0.90
   2  -1 -24    1.44    0.86
   2  -1 -23   25.28    1.03
   2  -1 -22    5.75    0.75
   2  -1 -21    6.12    0.73
   2  -1 -20   38.00    1.27
   2  -1 -19   49.35    1.73
   2  -1 -18    0.36    0.54
   2  -1 -17   83.91    2.06
   2  -1 -16   -0.03    0.44
   2  -1 -15   61.02    1.86
   2  -1 -14   34.12    1.17
   2  -1 -13   73.77    1.87
   2  -1 -12    0.69    0.44
   2  -1 -11  533.33   10.21
   2  -1 -10   96.41    2.53
   2  -1  -9   16.01    0.64
   2  -1  -8  632.02   11.55
   2  -1  -7  242.40    5.16
   2  -1  -6  254.53    5.12
   2  -1  -5  846.10   15.34
   2  -1  -4   19.10    0.84
   2  -1  -2  472.99    8.69
   2  -1  -1    2.36    0.29
   2  -1   0  133.89    2.64
   2  -1   1  439.59    7.86
   2  -1   2  574.81   10.00
   2  -1   3  626.97   11.09
   2  -1   4    1.00    0.45
   2  -1   5  438.03    8.35
   2  -1   6   87.26    2.22
   2  -1   7   32.68    0.95
   2  -1   8  531.00   10.05
   2  -1   9  120.88    2.90
   2  -1  10    9.61    0.55
   2  -1  11    1.65    0.37
   2  -1  12  710.34   12.98
   2  -1  13    0.03    0.56
   2  -1  14  180.40    3.99
   2  -1  15   44.14    1.40
   2  -1  16   57.53    1.65
   2  -1  17   21.16    0.99
   2  -1  18    3.81    0.61
   2  -1  19    6.61    0.62
   2  -1  20    2.80    0.64
   2  -1  21    0.45    0.55
   2  -1  22   13.87    0.85
   2  -1  23   14.75    0.87
   2  -1  24    1.96    0.80
   3  -1 -25   25.87    1.20
   3  -1 -24    3.20    0.70
   3  -1 -23   34.80    1.23
   3  -1 -22    0.49    0.55
   3  -1 -21   38.05    1.16
   3  -1 -20    8.85    0.72
   3  -1 -19    1.90    0.69
   3  -1 -18    2.97    0.58
   3  -1 -17   45.03    1.39
   3  -1 -16   31.79    1.13
   3  -1 -15   51.71    1.57
   3  -1 -14   76.29    2.13
   3  -1 -13    4.05    0.59
   3  -1 -12   23.28    0.93
   3  -1 -11  117.67    2.69
   3  -1 -10   22.96    0.86
   3  -1  -9  138.45    3.23
   3  -1  -8  555.19   10.95
   3  -1  -7   44.91    1.32
   3  -1  -6   95.85    2.42
   3  -1  -4  432.16    8.14
   3  -1  -3   18.77    0.77
   3  -1  -2  296.71    5.75
   3  -1  -1  531.79   10.17
   3  -1   0  254.07    5.26
   3  -1   2   11.24    0.60
   3  -1   3  396.37    7.62
   3  -1   4   66.19    1.68
   3  -1   5  155.32    3.37
   3  -1   6   21.39    0.83
   3  -1   7 1451.28   24.34
   3  -1   8  111.25    2.81
   3  -1   9  174.80    4.07
   3  -1  10   16.96    0.69
   3  -1  11   58.50    1.46
   3  -1  12   10.45    0.60
   3  -1  13    3.39    0.54
   3  -1  14   86.58    2.29
   3  -1  15    0.26    0.43
   3  -1  16    3.77    0.51
   3  -1  17   43.37    1.41
   3  -1  18   49.63    1.57
   3  -1  19    1.48    0.50
   3  -1  20    0.15    0.50
   3  -1  21    6.34    0.85
   3  -1  22   10.87    0.81
   3  -1  23    0.80    0.56
   4  -1 -25   -0.67    0.72
   4  -1 -24   12.91    0.81
   4  -1 -23   -0.11    0.65
   4  -1 -22    0.84    0.67
   4  -1 -21   15.52    0.85
   4  -1 -20    8.07    0.69
   4  -1 -19   42.67    1.36
   4  -1 -18    6.83    0.59
   4  -1 -17   14.66    0.84
   4  -1 -16  117.66    2.75
   4  -1 -15    3.69    0.54
   4  -1 -14   59.70    1.63
   4  -1 -13    6.45    0.56
   4  -1 -12   37.82    1.35
   4  -1 -11    1.76    0.50
   4  -1 -10  841.12   16.37
   4  -1  -9  196.69    4.14
   4  -1  -8  147.66    3.59
   4  -1  -7  172.29    3.83
   4  -1  -6  157.76    3.67
   4  -1  -5  164.83    3.69
   4  -1  -4  370.61    6.91
   4  -1  -3  913.23   16.84
   4  -1  -2    3.94    0.59
   4  -1  -1  254.73    4.92
   4  -1   0  266.16    5.29
   4  -1   1  395.88    7.70
   4  -1   2   18.14    0.77
   4  -1   3  245.29    4.93
   4  -1   4   56.40    1.63
   4  -1   5   52.96    1.36
   4  -1   6   72.42    1.70
   4  -1   7   17.58    0.68
   4  -1   8   38.83    1.20
   4  -1   9  240.91    5.44
   4  -1  10  187.35    3.86
   4  -1  11    2.29    0.46
   4  -1  12   74.25    1.79
   4  -1  13   47.99    1.39
   4  -1  14   24.75    0.95
   4  -1  15   35.12    1.27
   4  -1  16    9.84    0.64
   4  -1  17   13.63    0.73
   4  -1  18   12.13    0.74
   4  -1  19   32.17    1.25
   4  -1  20    2.96    0.63
   4  -1  21   40.21    1.22
   4  -1  22   -0.40    0.72
   4  -1  23    0.06    0.62
   5  -1 -25   20.45    1.13
   5  -1 -24    7.22    0.72
   5  -1 -23    1.34    0.65
   5  -1 -22    9.54    0.73
   5  -1 -21   78.22    2.05
   5  -1 -20    6.19    0.83
   5  -1 -19   12.64    0.91
   5  -1 -18   23.89    0.92
   5  -1 -17   11.49    0.74
   5  -1 -16  224.79    5.14
   5  -1 -15  108.36    2.73
   5  -1 -14   41.35    1.33
   5  -1 -13   54.15    1.61
   5  -1 -12   72.65    2.12
   5  -1 -11   60.60    2.12
   5  -1 -10  316.39    6.54
   5  -1  -9   45.94    1.43
   5  -1  -8  200.56    4.28
   5  -1  -7  460.51    9.06
   5  -1  -6   11.57    0.66
   5  -1  -5   63.26    1.91
   5  -1  -4  871.83   16.16
   5  -1  -3  937.69   17.36
   5  -1  -2    2.83    0.57
   5  -1  -1   22.71    0.92
   5  -1   0    4.25    0.56
   5  -1   1  206.97    4.62
   5  -1   2   52.25    1.56
   5  -1   3   38.44    1.16
   5  -1   4  379.37    7.48
   5  -1   5   95.55    2.31
   5  -1   6  254.30    5.15
   5  -1   7  538.85   10.36
   5  -1   8  243.45    5.04
   5  -1   9  231.15    4.83
   5  -1  10   48.85    1.47
   5  -1  11   12.83    0.61
   5  -1  12  204.58    4.23
   5  -1  13  103.44    2.51
   5  -1  14   84.74    2.25
   5  -1  15  134.50    3.11
   5  -1  16   -0.13    0.53
   5  -1  17    0.31    0.53
   5  -1  18   59.46    1.62
   5  -1  19   12.11    0.71
   5  -1  20   12.86    0.82
   5  -1  21   11.08    0.75
   5  -1  22    3.29    0.61
   6  -1 -25   20.61    1.26
   6  -1 -24    8.50    0.94
   6  -1 -23   13.66    0.78
   6  -1 -22   86.87    2.27
   6  -1 -21    0.64    0.59
   6  -1 -20   27.40    1.23
   6  -1 -19   28.52    1.23
   6  -1 -18    0.62    0.59
   6  -1 -17   15.57    0.85
   6  -1 -16   57.59    1.74
   6  -1 -15    0.03    0.48
   6  -1 -14  194.73    4.39
   6  -1 -13   33.39    1.24
   6  -1 -12    8.72    0.69
   6  -1 -11   29.63    1.04
   6  -1 -10  112.78    2.69
   6  -1  -9  179.04    3.91
   6  -1  -8  499.03    9.43
   6  -1  -7  152.25    3.73
   6  -1  -6  195.53    4.38
   6  -1  -5   18.25    0.85
   6  -1  -4   91.12    2.56
   6  -1  -3   40.73    1.48
   6  -1  -2  105.00    2.80
   6  -1  -1    2.49    0.44
   6  -1   0   56.69    1.62
   6  -1   1    0.77    0.53
   6  -1   2   63.91    1.64
   6  -1   3   59.72    1.58
   6  -1   4   13.37    0.67
   6  -1   5    3.87    0.57
   6  -1   6  905.48   16.15
   6  -1   7  182.37    3.93
   6  -1   8  134.85    3.10
   6  -1   9   55.01    1.49
   6  -1  10   18.17    0.83
   6  -1  11   32.24    1.03
   6  -1  12   65.73    1.66
   6  -1  13   57.90    1.79
   6  -1  14   37.95    1.26
   6  -1  15    6.95    0.74
   6  -1  16    7.51    0.73
   6  -1  17   61.68    1.81
   6  -1  18    8.96    0.76
   6  -1  19    0.75    0.60
   6  -1  20    8.65    0.73
   6  -1  21   26.86    1.04
   6  -1  22    2.74    0.76
   7  -1 -24    0.61    0.70
   7  -1 -23    6.08    0.67
   7  -1 -22    1.11    0.62
   7  -1 -21   26.52    1.14
   7  -1 -20   82.95    2.12
   7  -1 -19   12.26    0.93
   7  -1 -18    0.96    0.58
   7  -1 -17    3.51    0.68
   7  -1 -16    5.01    0.79
   7  -1 -15    4.61    0.74
   7  -1 -14  194.58    4.10
   7  -1 -13    6.32    0.63
   7  -1 -12  145.37    3.49
   7  -1 -11   79.08    2.16
   7  -1 -10    1.40    0.44
   7  -1  -9  677.29   12.95
   7  -1  -8    3.28    0.56
   7  -1  -7   28.12    1.03
   7  -1  -6   26.10    1.02
   7  -1  -5   16.80    0.77
   7  -1  -4    5.15    0.54
   7  -1  -3  328.14    6.86
   7  -1  -2   87.34    2.23
   7  -1  -1    5.58    0.55
   7  -1   0   44.11    1.25
   7  -1   1  181.63    4.03
   7  -1   2  242.14    4.84
   7  -1   3  212.98    4.85
   7  -1   4   30.81    1.01
   7  -1   5  151.99    3.43
   7  -1   6    3.11    0.58
   7  -1   7   10.09    0.61
   7  -1   8    6.80    0.46
   7  -1   9    9.64    0.57
   7  -1  10   67.42    1.81
   7  -1  11   71.49    1.90
   7  -1  12   25.43    0.90
   7  -1  13    0.30    0.48
   7  -1  14   21.42    0.95
   7  -1  15  161.42    3.77
   7  -1  16    7.62    0.59
   7  -1  17   18.69    0.85
   7  -1  18    0.29    0.55
   7  -1  19   28.98    1.14
   7  -1  20    7.20    0.72
   7  -1  21    0.27    0.62
   8  -1 -24    1.72    0.68
   8  -1 -23    4.67    0.69
   8  -1 -22    0.19    0.61
   8  -1 -21   67.85    1.77
   8  -1 -20   32.05    1.17
   8  -1 -19   -0.14    0.62
   8  -1 -18   14.40    0.89
   8  -1 -17   15.90    0.87
   8  -1 -16   16.01    0.94
   8  -1 -15  202.58    5.17
   8  -1 -14    8.52    0.73
   8  -1 -13    6.16    0.66
   8  -1 -12   50.10    1.66
   8  -1 -11    4.42    0.58
   8  -1 -10  129.45    2.99
   8  -1  -9  208.07    4.59
   8  -1  -8   86.92    2.48
   8  -1  -7    2.28    0.47
   8  -1  -6    2.94    0.49
   8  -1  -5  289.94    6.01
   8  -1  -4    0.99    0.48
   8  -1  -3    7.26    0.57
   8  -1  -2   80.38    2.24
   8  -1  -1   93.43    2.27
   8  -1   0   68.79    1.76
   8  -1   1  141.50    3.13
   8  -1   2   89.05    2.36
   8  -1   3   39.86    1.31
   8  -1   4  175.26    3.85
   8  -1   5  129.61    3.34
   8  -1   6    3.94    0.45
   8  -1   7   39.91    1.31
   8  -1   8    6.02    0.56
   8  -1   9   21.77    0.84
   8  -1  10  339.35    7.04
   8  -1  11   37.06    1.26
   8  -1  12   -0.04    0.53
   8  -1  13   48.83    1.36
   8  -1  14  167.21    3.72
   8  -1  15   30.85    1.05
   8  -1  16   20.87    0.88
   8  -1  17   29.91    1.05
   8  -1  18    8.41    0.64
   8  -1  19   30.00    1.04
   8  -1  20    0.95    0.50
   8  -1  21    3.98    0.66
   9  -1 -24    0.10    0.79
   9  -1 -23    6.00    0.77
   9  -1 -22    3.00    0.64
   9  -1 -21   49.68    1.40
   9  -1 -20   14.14    0.97
   9  -1 -19   25.39    1.09
   9  -1 -18   18.66    0.95
   9  -1 -17    0.94    0.52
   9  -1 -16    1.37    0.58
   9  -1 -15   16.67    1.08
   9  -1 -14    4.97    0.63
   9  -1 -13  109.47    2.71
   9  -1 -12   49.16    1.65
   9  -1 -11   95.79    2.61
   9  -1 -10   23.33    1.15
   9  -1  -9   33.52    1.28
   9  -1  -8    2.08    0.50
   9  -1  -7    1.36    0.49
   9  -1  -6   23.47    0.99
   9  -1  -5   63.42    1.88
   9  -1  -4   17.75    0.78
   9  -1  -3  323.46    6.88
   9  -1  -2    1.76    0.45
   9  -1  -1    1.25    0.54
   9  -1   0   13.37    0.79
   9  -1   1  270.53    5.56
   9  -1   2  366.94    7.39
   9  -1   3    4.63    0.57
   9  -1   4  201.01    4.46
   9  -1   5   31.34    1.18
   9  -1   6   15.60    0.73
   9  -1   7   98.94    2.46
   9  -1   8   52.40    1.68
   9  -1   9  479.58    9.07
   9  -1  10   88.31    2.53
   9  -1  11    0.48    0.50
   9  -1  12    9.25    0.67
   9  -1  13   30.99    1.17
   9  -1  14   11.47    0.69
   9  -1  15    8.52    0.64
   9  -1  16   72.96    2.06
   9  -1  17    1.61    0.59
   9  -1  18   38.97    1.44
   9  -1  19    1.04    0.70
   9  -1  20    8.21    0.88
  10  -1 -24    3.43    0.65
  10  -1 -23    0.66    0.62
  10  -1 -22   19.21    0.93
  10  -1 -21    2.46    0.69
  10  -1 -20    1.00    0.67
  10  -1 -19   43.28    1.23
  10  -1 -18   11.97    0.92
  10  -1 -17   41.30    1.32
  10  -1 -16   51.97    1.68
  10  -1 -15    0.15    0.62
  10  -1 -14    7.31    0.64
  10  -1 -13   15.12    0.80
  10  -1 -12    6.58    0.69
  10  -1 -11   22.37    0.97
  10  -1 -10  136.15    3.18
  10  -1  -9    1.61    0.50
  10  -1  -8   77.58    2.09
  10  -1  -7   47.67    1.57
  10  -1  -6    0.98    0.49
  10  -1  -5  109.30    2.93
  10  -1  -4   17.24    0.83
  10  -1  -3   19.53    0.99
  10  -1  -2    0.51    0.70
  10  -1  -1  184.13    4.11
  10  -1   0    4.56    0.57
  10  -1   1  278.19    5.64
  10  -1   2    0.98    0.50
  10  -1   3  293.02    6.15
  10  -1   4  124.11    2.94
  10  -1   5    0.13    0.42
  10  -1   6    2.82    0.51
  10  -1   7   89.26    2.34
  10  -1   8   63.80    2.07
  10  -1   9   91.04    2.31
  10  -1  10   54.28    1.67
  10  -1  11   55.49    1.54
  10  -1  12   48.13    1.54
  10  -1  13    4.62    0.55
  10  -1  14   48.21    1.47
  10  -1  15   16.86    0.83
  10  -1  16   17.39    0.95
  10  -1  17    2.51    0.55
  10  -1  18    2.43    0.52
  10  -1  19    0.83    0.51
  11  -1 -23    0.91    0.83
  11  -1 -22    3.88    0.79
  11  -1 -21    1.47    0.61
  11  -1 -20    6.95    0.74
  11  -1 -19   87.91    2.46
  11  -1 -18   24.69    1.16
  11  -1 -17   14.01    0.85
  11  -1 -16    5.15    0.75
  11  -1 -15    4.89    0.89
  11  -1 -14   52.93    1.81
  11  -1 -13   -0.15    0.68
  11  -1 -12   12.38    0.92
  11  -1 -11   93.54    2.61
  11  -1 -10    2.26    0.75
  11  -1  -9   66.58    1.93
  11  -1  -8  128.36    3.04
  11  -1  -7    1.27    0.51
  11  -1  -6   53.60    1.68
  11  -1  -5   98.53    2.48
  11  -1  -4    7.38    0.58
  11  -1  -3   27.14    1.07
  11  -1  -2    1.77    0.50
  11  -1  -1    0.42    0.52
  11  -1   0  219.00    4.71
  11  -1   1    1.21    0.55
  11  -1   2  139.22    3.26
  11  -1   3  196.89    4.20
  11  -1   4   34.77    1.11
  11  -1   5  124.60    3.15
  11  -1   6  118.97    2.92
  11  -1   7    0.95    0.51
  11  -1   8   28.01    1.10
  11  -1   9  168.37    3.73
  11  -1  10    7.36    0.65
  11  -1  11  119.36    3.08
  11  -1  12    0.19    0.47
  11  -1  13   42.66    1.36
  11  -1  14   44.82    1.46
  11  -1  15    7.42    0.66
  11  -1  16   14.92    0.85
  11  -1  17    1.54    0.58
  11  -1  18    9.61    0.82
  12  -1 -23   13.08    0.92
  12  -1 -22    0.85    0.73
  12  -1 -21    3.66    0.71
  12  -1 -20   17.20    1.05
  12  -1 -19   -1.06    0.80
  12  -1 -18   34.60    1.32
  12  -1 -17   69.54    1.85
  12  -1 -16    0.85    0.65
  12  -1 -15   58.01    1.64
  12  -1 -14    9.80    0.80
  12  -1 -13    4.53    0.63
  12  -1 -12    1.64    0.71
  12  -1 -11    7.24    0.70
  12  -1 -10   29.03    1.16
  12  -1  -9   33.96    1.29
  12  -1  -8  114.44    2.84
  12  -1  -7    6.65    0.72
  12  -1  -6   73.56    2.06
  12  -1  -5   38.82    1.39
  12  -1  -4    1.02    0.62
  12  -1  -3   37.64    1.35
  12  -1  -2   15.14    0.85
  12  -1  -1  207.58    4.59
  12  -1   0    4.57    0.57
  12  -1   1   78.06    2.09
  12  -1   2   15.38    0.83
  12  -1   3   59.06    1.71
  12  -1   4    6.80    0.71
  12  -1   5   96.55    2.48
  12  -1   6   26.85    1.10
  12  -1   7    4.76    0.61
  12  -1   8  138.53    3.17
  12  -1   9    1.71    0.66
  12  -1  10   12.03    0.74
  12  -1  11   29.17    1.06
  12  -1  12    0.58    0.56
  12  -1  13   18.70    0.82
  12  -1  14   71.79    2.01
  12  -1  15    0.52    0.56
  12  -1  16   11.86    0.82
  12  -1  17    4.87    0.64
  13  -1 -22    3.00    0.92
  13  -1 -21    4.32    0.80
  13  -1 -20    3.97    0.76
  13  -1 -19    1.16    0.72
  13  -1 -18   35.13    1.41
  13  -1 -17   11.13    0.85
  13  -1 -16    1.44    0.80
  13  -1 -15   97.33    2.36
  13  -1 -14    1.90    0.72
  13  -1 -13    9.83    0.80
  13  -1 -12   18.67    0.99
  13  -1 -11    2.96    0.64
  13  -1 -10    0.70    0.65
  13  -1  -9  105.90    2.49
  13  -1  -8   21.65    0.98
  13  -1  -7   75.91    2.02
  13  -1  -6  111.74    2.95
  13  -1  -5   65.48    1.77
  13  -1  -4  101.40    2.48
  13  -1  -3    3.62    0.75
  13  -1  -2   64.89    2.03
  13  -1  -1  162.11    3.65
  13  -1   0   10.23    0.81
  13  -1   1   35.46    1.24
  13  -1   2  103.62    2.52
  13  -1   3    9.60    0.79
  13  -1   4   20.65    0.93
  13  -1   5    5.68    0.57
  13  -1   6    3.39    0.69
  13  -1   7  138.69    3.18
  13  -1   8   14.40    0.71
  13  -1   9   30.17    1.15
  13  -1  10    4.97    0.60
  13  -1  11    0.47    0.52
  13  -1  12    1.26    0.55
  13  -1  13   97.56    2.59
  13  -1  14    3.10    0.60
  13  -1  15    0.53    0.52
  13  -1  16    8.87    0.74
  14  -1 -21    7.33    0.82
  14  -1 -20    1.27    0.80
  14  -1 -19   24.84    1.30
  14  -1 -18   41.55    1.56
  14  -1 -17    2.77    0.79
  14  -1 -16   64.22    1.71
  14  -1 -15   88.86    2.27
  14  -1 -14   11.78    1.02
  14  -1 -13    5.23    0.79
  14  -1 -12    4.75    0.66
  14  -1 -11   23.53    1.01
  14  -1 -10   50.04    1.53
  14  -1  -9    0.30    0.58
  14  -1  -8   74.55    2.17
  14  -1  -7   55.20    1.78
  14  -1  -6   49.72    1.58
  14  -1  -5    9.47    0.85
  14  -1  -4   17.75    0.89
  14  -1  -3   25.84    1.14
  14  -1  -2  123.80    2.72
  14  -1  -1    4.44    0.63
  14  -1   0    5.85    0.70
  14  -1   1    2.22    0.58
  14  -1   2    8.56    0.70
  14  -1   3    0.95    0.59
  14  -1   4   90.18    2.53
  14  -1   5    0.91    0.53
  14  -1   6   70.00    2.12
  14  -1   7   25.74    1.12
  14  -1   8    1.74    0.55
  14  -1   9   11.31    0.80
  14  -1  10   30.99    1.28
  14  -1  11    5.29    0.62
  14  -1  12   41.46    1.30
  14  -1  13   -0.63    0.67
  14  -1  14    8.25    0.86
  14  -1  15    7.24    0.71
  15  -1 -21    2.14    0.81
  15  -1 -20    9.38    0.86
  15  -1 -19    3.88    0.71
  15  -1 -18    0.62    0.80
  15  -1 -17   42.10    1.63
  15  -1 -16   25.57    1.12
  15  -1 -15    3.38    0.72
  15  -1 -14    4.69    0.73
  15  -1 -13    1.86    0.84
  15  -1 -12    3.07    0.73
  15  -1 -11   24.89    1.25
  15  -1 -10   26.78    1.11
  15  -1  -9    2.17    0.75
  15  -1  -8  136.22    3.15
  15  -1  -7   92.26    2.55
  15  -1  -6    6.91    0.76
  15  -1  -5   25.73    1.18
  15  -1  -4    1.26    0.66
  15  -1  -3    3.73    0.67
  15  -1  -2    8.51    0.80
  15  -1  -1    5.71    0.71
  15  -1   0   77.65    1.96
  15  -1   1    7.23    0.80
  15  -1   2   20.27    1.10
  15  -1   3   36.75    1.36
  15  -1   4    1.04    0.56
  15  -1   5   96.68    2.43
  15  -1   6   95.69    2.63
  15  -1   7    7.14    0.63
  15  -1   8    6.86    0.67
  15  -1   9   16.15    0.75
  15  -1  10   13.73    0.95
  15  -1  11   34.61    1.45
  15  -1  12   14.88    0.81
  15  -1  13    0.44    0.54
  15  -1  14   15.99    1.05
  16  -1 -20    3.43    0.82
  16  -1 -19    1.41    0.69
  16  -1 -18   10.25    0.89
  16  -1 -17   22.45    1.14
  16  -1 -16   32.77    1.42
  16  -1 -15    6.85    0.76
  16  -1 -14    0.37    0.68
  16  -1 -13   16.98    1.09
  16  -1 -12   34.00    1.46
  16  -1 -11   11.80    0.94
  16  -1 -10    7.29    0.73
  16  -1  -9  119.06    2.89
  16  -1  -8  117.77    2.80
  16  -1  -7    9.92    0.86
  16  -1  -6   54.15    1.79
  16  -1  -5   27.05    1.12
  16  -1  -4   37.56    1.31
  16  -1  -3   12.36    0.83
  16  -1  -2   16.76    0.85
  16  -1  -1   23.71    1.00
  16  -1   0    3.25    0.74
  16  -1   1    9.40    0.74
  16  -1   2   51.91    1.61
  16  -1   3   57.68    1.85
  16  -1   4    0.90    0.59
  16  -1   5   39.21    1.54
  16  -1   6   14.59    0.83
  16  -1   7    0.32    0.56
  16  -1   8   10.53    0.76
  16  -1   9   10.09    0.76
  16  -1  10    9.25    0.94
  16  -1  11    6.06    0.72
  16  -1  12    8.83    0.72
  17  -1 -18    0.21    0.68
  17  -1 -17   18.23    0.96
  17  -1 -16   -0.24    0.78
  17  -1 -15   10.24    0.98
  17  -1 -14   35.56    1.24
  17  -1 -13   36.86    1.22
  17  -1 -12   16.04    1.13
  17  -1 -11    2.21    0.69
  17  -1 -10   57.60    1.86
  17  -1  -9   20.53    0.93
  17  -1  -8    5.57    0.85
  17  -1  -7    9.29    0.80
  17  -1  -6    1.37    0.63
  17  -1  -5    2.23    0.66
  17  -1  -4    6.80    0.75
  17  -1  -3    2.50    0.72
  17  -1  -2   32.31    1.42
  17  -1  -1    4.28    0.69
  17  -1   0   15.23    0.90
  17  -1   1    3.59    0.89
  17  -1   2    0.30    0.68
  17  -1   3    3.49    0.85
  17  -1   4   23.71    1.10
  17  -1   5   30.30    1.18
  17  -1   6    4.84    0.64
  17  -1   7   14.10    0.87
  17  -1   8    1.32    0.63
  17  -1   9   11.59    0.76
  17  -1  10    1.69    0.82
  17  -1  11   37.42    1.46
  18  -1 -17   -0.29    0.73
  18  -1 -16    3.02    0.85
  18  -1 -15   35.70    1.33
  18  -1 -14    0.56    0.74
  18  -1 -13   23.09    1.04
  18  -1 -12    4.22    1.03
  18  -1 -11   18.66    0.94
  18  -1 -10   10.09    0.86
  18  -1  -9    2.75    0.72
  18  -1  -8   -0.46    0.72
  18  -1  -7    1.74    0.64
  18  -1  -6   12.04    0.83
  18  -1  -5   14.97    1.03
  18  -1  -4   22.64    1.08
  18  -1  -3   -0.35    0.69
  18  -1  -2   16.76    0.88
  18  -1  -1   38.85    1.30
  18  -1   0   16.41    0.94
  18  -1   1   26.23    1.06
  18  -1   2    0.91    0.71
  18  -1   3    2.30    0.60
  18  -1   4    1.81    0.62
  18  -1   5   39.23    1.38
  18  -1   6    6.98    0.79
  18  -1   7   31.22    1.36
  18  -1   8    0.51    0.64
  18  -1   9    5.43    0.80
  19  -1 -15    0.56    0.68
  19  -1 -14    1.33    0.76
  19  -1 -13   29.34    1.33
  19  -1 -12    0.34    0.75
  19  -1 -11   16.31    1.12
  19  -1 -10    7.11    0.82
  19  -1  -9    3.12    0.91
  19  -1  -8    0.70    0.69
  19  -1  -7   16.05    0.95
  19  -1  -6    2.03    0.94
  19  -1  -5   49.99    1.63
  19  -1  -4    1.18    0.80
  19  -1  -3    2.32    0.67
  19  -1  -2    3.77    0.75
  19  -1  -1    0.40    0.73
  19  -1   0    1.09    0.59
  19  -1   1   68.33    1.84
  19  -1   2   10.64    0.82
  19  -1   3   22.10    1.00
  19  -1   4    0.91    0.68
  19  -1   5    1.11    0.69
  19  -1   6   -0.48    0.81
  19  -1   7    2.20    0.86
  20  -1 -13    1.61    1.53
  20  -1 -12    2.62    0.71
  20  -1 -11    0.54    0.64
  20  -1 -10    1.89    0.84
  20  -1  -9    1.47    0.70
  20  -1  -8    5.42    0.78
  20  -1  -7    0.67    0.97
  20  -1  -6   21.52    1.04
  20  -1  -5    0.01    0.80
  20  -1  -4   19.17    1.09
  20  -1  -3   17.70    0.97
  20  -1  -2   15.83    0.89
  20  -1  -1    4.81    0.67
  20  -1   0   46.40    1.50
  20  -1   1   -0.15    0.64
  20  -1   2    7.19    0.76
  20  -1   3   11.99    1.05
  20  -1   4    0.43    0.68
  21  -1  -9   10.10    0.86
  21  -1  -8    0.09    1.07
  21  -1  -7    1.79    0.66
  21  -1  -6    4.43    0.76
  21  -1  -5    0.17    0.78
  21  -1  -4    2.59    0.69
  21  -1  -3   -0.07    0.65
  21  -1  -2    1.21    0.59
  21  -1  -1    6.90    0.87
  21  -1   0    3.71    0.93
 -21  -2   0    0.39    0.75
 -21  -2   1    5.27    0.80
 -21  -2   2   14.59    0.98
 -21  -2   3   -0.36    0.70
 -21  -2   4   15.42    0.92
 -21  -2   5    0.34    0.57
 -21  -2   6   -0.40    0.59
 -21  -2   7    1.60    0.78
 -21  -2   8   21.23    1.08
 -21  -2   9    1.06    0.82
 -20  -2  -4    0.74    0.65
 -20  -2  -3    4.12    0.73
 -20  -2  -2    0.02    0.78
 -20  -2  -1   50.54    1.54
 -20  -2   0    0.16    0.84
 -20  -2   1    9.02    0.87
 -20  -2   2   -0.12    0.78
 -20  -2   3   12.10    0.86
 -20  -2   4    0.25    0.72
 -20  -2   5    8.90    0.79
 -20  -2   6    3.43    0.98
 -20  -2   7   18.38    0.94
 -20  -2   8    1.19    0.74
 -20  -2   9    3.51    0.78
 -20  -2  10    8.43    0.84
 -20  -2  11    6.32    0.89
 -20  -2  12    0.14    0.63
 -20  -2  13    2.51    1.03
 -19  -2  -7    1.04    0.74
 -19  -2  -6    0.85    0.67
 -19  -2  -5   28.13    1.03
 -19  -2  -4   26.16    1.09
 -19  -2  -3    4.04    0.71
 -19  -2  -2   42.58    1.35
 -19  -2  -1    5.75    0.87
 -19  -2   0    1.05    0.65
 -19  -2   1    0.89    0.75
 -19  -2   2    6.67    0.70
 -19  -2   3   13.13    0.93
 -19  -2   4   25.62    1.04
 -19  -2   5    4.25    0.85
 -19  -2   6   50.20    1.77
 -19  -2   7    0.49    0.66
 -19  -2   8    3.04    0.76
 -19  -2   9   11.16    0.84
 -19  -2  10   68.47    1.90
 -19  -2  11   -0.01    0.72
 -19  -2  12    1.22    0.66
 -19  -2  13    0.99    0.87
 -19  -2  14    0.22    0.82
 -19  -2  15    0.81    0.71
 -18  -2  -9    8.72    0.81
 -18  -2  -8    0.13    0.64
 -18  -2  -7    0.53    0.90
 -18  -2  -6   -0.05    0.58
 -18  -2  -5   16.02    0.88
 -18  -2  -4   16.73    0.92
 -18  -2  -3   18.28    0.90
 -18  -2  -2    6.84    0.91
 -18  -2  -1    6.99    0.76
 -18  -2   0   11.16    0.86
 -18  -2   1    5.54    0.68
 -18  -2   2    2.36    0.66
 -18  -2   3   48.23    1.69
 -18  -2   4   11.51    0.88
 -18  -2   5   17.08    1.08
 -18  -2   6   18.28    0.89
 -18  -2   7    1.87    0.72
 -18  -2   8   18.52    1.13
 -18  -2   9   67.85    1.94
 -18  -2  10   17.04    1.01
 -18  -2  11    1.02    0.62
 -18  -2  12    1.17    0.68
 -18  -2  13    0.88    0.81
 -18  -2  14   -0.48    0.72
 -18  -2  15    3.15    0.75
 -18  -2  16    1.78    0.86
 -18  -2  17   24.43    1.28
 -17  -2 -11    2.17    0.69
 -17  -2 -10   -0.53    0.66
 -17  -2  -9    1.14    0.52
 -17  -2  -8    9.95    0.88
 -17  -2  -7    0.79    0.67
 -17  -2  -6   82.62    2.08
 -17  -2  -5    0.33    0.76
 -17  -2  -4    3.47    0.64
 -17  -2  -3    0.33    0.59
 -17  -2  -2   38.07    1.25
 -17  -2  -1   13.32    0.83
 -17  -2   0   32.12    1.07
 -17  -2   1   20.19    1.07
 -17  -2   2   22.51    1.19
 -17  -2   3   29.30    1.23
 -17  -2   4   13.87    0.98
 -17  -2   5   20.37    1.02
 -17  -2   6    8.85    0.76
 -17  -2   7   32.90    1.38
 -17  -2   8   52.13    1.66
 -17  -2   9    5.96    0.72
 -17  -2  10    4.81    0.93
 -17  -2  11    4.31    0.74
 -17  -2  12    5.79    0.76
 -17  -2  13    3.13    0.86
 -17  -2  14   12.51    0.84
 -17  -2  15   -0.45    0.80
 -17  -2  16   26.33    1.26
 -17  -2  17    0.31    0.71
 -17  -2  18    2.20    0.68
 -16  -2 -12    7.32    0.92
 -16  -2 -11    8.41    0.68
 -16  -2 -10    2.46    0.64
 -16  -2  -9   23.81    0.98
 -16  -2  -8    5.87    0.83
 -16  -2  -7   22.64    0.96
 -16  -2  -6    2.39    0.60
 -16  -2  -5   10.37    0.82
 -16  -2  -4   31.97    1.12
 -16  -2  -3    9.47    0.73
 -16  -2  -2   -0.43    0.70
 -16  -2  -1   30.36    1.16
 -16  -2   0   30.86    1.15
 -16  -2   1   66.77    1.99
 -16  -2   2   18.15    0.88
 -16  -2   3    2.95    0.63
 -16  -2   4   34.19    1.23
 -16  -2   5  136.92    3.17
 -16  -2   6    0.94    0.57
 -16  -2   7   94.15    2.44
 -16  -2   8    3.57    0.66
 -16  -2   9   18.90    1.02
 -16  -2  10   41.19    1.86
 -16  -2  11   19.54    0.96
 -16  -2  12    2.59    0.80
 -16  -2  13   33.75    1.29
 -16  -2  14    0.45    0.64
 -16  -2  15   69.35    2.06
 -16  -2  16    8.66    0.88
 -16  -2  17    5.64    0.83
 -16  -2  18    0.24    0.69
 -16  -2  19   18.95    1.02
 -15  -2 -14   -0.37    0.64
 -15  -2 -13   -0.14    0.52
 -15  -2 -12   25.95    1.19
 -15  -2 -11   22.08    0.97
 -15  -2 -10   70.98    1.95
 -15  -2  -9    4.51    0.63
 -15  -2  -8   39.08    1.30
 -15  -2  -7    0.64    0.53
 -15  -2  -6   12.48    0.87
 -15  -2  -5    1.00    0.51
 -15  -2  -4   38.85    1.36
 -15  -2  -3   25.73    1.07
 -15  -2  -2   28.86    1.05
 -15  -2  -1    8.17    0.71
 -15  -2   0   50.40    1.55
 -15  -2   1    3.74    0.61
 -15  -2   2   -0.06    0.56
 -15  -2   3    1.65    0.61
 -15  -2   4   46.68    1.46
 -15  -2   5    6.79    0.67
 -15  -2   6   71.74    1.97
 -15  -2   7    7.33    0.91
 -15  -2   8    1.56    0.59
 -15  -2   9  119.98    2.70
 -15  -2  10   53.70    1.78
 -15  -2  11    6.15    0.70
 -15  -2  12    2.76    0.73
 -15  -2  13   48.87    1.63
 -15  -2  14   27.35    1.20
 -15  -2  15   18.11    1.12
 -15  -2  16    7.86    0.84
 -15  -2  17   -0.04    0.69
 -15  -2  18   11.21    0.97
 -15  -2  19    0.45    0.67
 -15  -2  20    9.42    0.82
 -14  -2 -15    0.22    0.61
 -14  -2 -14   -0.42    0.54
 -14  -2 -13    3.55    0.59
 -14  -2 -12    0.48    0.57
 -14  -2 -11   45.01    1.44
 -14  -2 -10    1.21    0.54
 -14  -2  -9    3.39    0.58
 -14  -2  -8    2.11    0.58
 -14  -2  -7    7.99    0.68
 -14  -2  -6    0.04    0.51
 -14  -2  -5   11.32    0.75
 -14  -2  -4   16.50    0.83
 -14  -2  -3    9.42    0.68
 -14  -2  -2   18.90    1.06
 -14  -2  -1    0.26    0.50
 -14  -2   0   14.51    0.79
 -14  -2   1   84.17    2.34
 -14  -2   2   78.17    2.36
 -14  -2   3  202.37    4.15
 -14  -2   4   18.06    0.84
 -14  -2   5  127.15    3.14
 -14  -2   6   17.09    0.97
 -14  -2   7  100.68    2.68
 -14  -2   8   54.02    1.63
 -14  -2   9  136.34    2.90
 -14  -2  10   12.54    0.93
 -14  -2  11   58.44    1.97
 -14  -2  12   48.68    1.58
 -14  -2  13    1.07    0.67
 -14  -2  14    1.07    0.66
 -14  -2  15    1.37    0.78
 -14  -2  16    1.70    0.73
 -14  -2  17   32.06    1.30
 -14  -2  18    3.31    0.72
 -14  -2  19   10.59    0.99
 -14  -2  20    2.52    0.67
 -14  -2  21    0.79    0.69
 -13  -2 -16    6.24    0.72
 -13  -2 -15    7.70    0.79
 -13  -2 -14    6.58    0.66
 -13  -2 -13   21.19    0.96
 -13  -2 -12   46.86    1.35
 -13  -2 -11    4.52    0.72
 -13  -2 -10    1.36    0.45
 -13  -2  -9    4.65    0.61
 -13  -2  -8    2.80    0.56
 -13  -2  -7   73.76    1.99
 -13  -2  -6   85.08    2.06
 -13  -2  -5    0.07    0.50
 -13  -2  -4    3.94    0.59
 -13  -2  -3   26.01    1.04
 -13  -2  -2   24.91    0.97
 -13  -2  -1   18.02    0.92
 -13  -2   0  152.81    3.71
 -13  -2   1   20.87    0.96
 -13  -2   2   94.20    2.38
 -13  -2   3   54.44    1.71
 -13  -2   4    7.94    0.64
 -13  -2   5    0.97    0.51
 -13  -2   6  166.51    3.98
 -13  -2   7   14.23    0.98
 -13  -2   8  297.85    6.59
 -13  -2   9  117.04    3.06
 -13  -2  10   17.00    0.96
 -13  -2  11   20.65    1.06
 -13  -2  12   55.78    1.70
 -13  -2  13   11.91    0.91
 -13  -2  14    2.94    0.66
 -13  -2  15    4.30    0.69
 -13  -2  16   38.10    1.31
 -13  -2  17   12.61    0.91
 -13  -2  18   -0.12    0.59
 -13  -2  19    0.25    0.57
 -13  -2  20    4.19    0.69
 -13  -2  21    1.75    0.74
 -13  -2  22   17.26    0.93
 -12  -2 -17    0.13    0.51
 -12  -2 -16   -0.10    0.55
 -12  -2 -15   62.63    1.63
 -12  -2 -14    0.67    0.63
 -12  -2 -13    1.47    0.50
 -12  -2 -12   30.79    1.08
 -12  -2 -11    5.01    0.62
 -12  -2 -10   34.35    1.09
 -12  -2  -9   76.37    2.04
 -12  -2  -8   32.90    1.10
 -12  -2  -7    1.43    0.52
 -12  -2  -6   14.45    0.69
 -12  -2  -5    1.31    0.49
 -12  -2  -4  305.57    6.21
 -12  -2  -3   54.96    1.62
 -12  -2  -2    2.81    0.69
 -12  -2  -1  403.14    8.22
 -12  -2   0   38.91    1.31
 -12  -2   1  120.40    2.79
 -12  -2   2    5.66    1.06
 -12  -2   3   10.93    0.79
 -12  -2   4    8.80    0.64
 -12  -2   5   90.95    2.29
 -12  -2   6    5.57    0.60
 -12  -2   7  353.79    7.40
 -12  -2   8   91.85    2.44
 -12  -2   9    0.89    0.61
 -12  -2  10   12.97    0.93
 -12  -2  11   21.42    1.03
 -12  -2  12   49.05    1.59
 -12  -2  13   15.43    0.89
 -12  -2  14   22.75    1.14
 -12  -2  15    3.89    0.72
 -12  -2  16   10.03    1.04
 -12  -2  17   23.26    1.09
 -12  -2  18    0.79    0.69
 -12  -2  19   72.40    2.20
 -12  -2  20    1.49    0.67
 -12  -2  21   17.42    0.96
 -12  -2  22   -0.33    0.65
 -12  -2  23    1.87    0.88
 -11  -2 -18    6.47    0.82
 -11  -2 -17   26.88    1.22
 -11  -2 -16   18.90    0.87
 -11  -2 -15   -0.35    0.54
 -11  -2 -14   11.05    0.64
 -11  -2 -13    0.22    0.51
 -11  -2 -12   76.06    2.14
 -11  -2 -11    4.50    0.52
 -11  -2 -10   55.01    1.66
 -11  -2  -9    0.43    0.45
 -11  -2  -8   39.14    1.20
 -11  -2  -7    5.09    0.58
 -11  -2  -6   67.55    1.96
 -11  -2  -5    8.91    0.64
 -11  -2  -4   51.81    1.52
 -11  -2  -3   45.66    1.35
 -11  -2  -2   54.22    1.58
 -11  -2  -1   12.33    0.68
 -11  -2   0   31.20    1.07
 -11  -2   1   19.81    0.84
 -11  -2   2   89.84    2.34
 -11  -2   3    4.03    0.60
 -11  -2   4   53.15    1.60
 -11  -2   5    2.77    0.52
 -11  -2   6    0.31    0.50
 -11  -2   7    0.76    0.49
 -11  -2   8   67.25    1.88
 -11  -2   9   27.19    1.12
 -11  -2  10  281.47    5.96
 -11  -2  11   15.78    0.87
 -11  -2  12    6.39    0.97
 -11  -2  13    0.48    0.52
 -11  -2  14    4.71    0.64
 -11  -2  15    5.68    0.79
 -11  -2  16   37.18    1.43
 -11  -2  17   69.61    1.99
 -11  -2  18  184.62    4.02
 -11  -2  19    6.52    0.68
 -11  -2  20   35.03    1.28
 -11  -2  21   11.15    1.03
 -11  -2  22    0.82    0.71
 -11  -2  23    1.45    0.74
 -10  -2 -19   32.53    1.28
 -10  -2 -18    0.37    0.56
 -10  -2 -17   33.72    1.10
 -10  -2 -16    9.62    0.60
 -10  -2 -15   18.60    0.90
 -10  -2 -14    0.48    0.48
 -10  -2 -13  134.46    3.00
 -10  -2 -12   11.73    0.68
 -10  -2 -11    1.83    0.44
 -10  -2 -10  222.75    4.64
 -10  -2  -9    2.13    0.47
 -10  -2  -8   38.61    1.35
 -10  -2  -7  165.72    3.66
 -10  -2  -6   27.90    1.04
 -10  -2  -5  259.18    5.44
 -10  -2  -4    3.59    0.59
 -10  -2  -3   53.52    1.53
 -10  -2  -2   82.90    2.25
 -10  -2  -1   25.84    0.90
 -10  -2   0    0.66    0.42
 -10  -2   1  322.38    6.96
 -10  -2   2   42.66    1.25
 -10  -2   3  110.22    2.84
 -10  -2   4  205.87    4.69
 -10  -2   5    1.60    0.55
 -10  -2   6   13.65    0.77
 -10  -2   7  160.38    4.12
 -10  -2   8   28.71    1.05
 -10  -2   9   89.52    2.38
 -10  -2  10    0.50    0.54
 -10  -2  11    1.10    0.51
 -10  -2  12   14.88    0.78
 -10  -2  13    8.09    0.65
 -10  -2  14   20.68    0.96
 -10  -2  15   20.56    1.14
 -10  -2  16   25.93    1.18
 -10  -2  17   33.21    1.28
 -10  -2  18   15.40    0.86
 -10  -2  19    6.15    0.71
 -10  -2  20    0.84    0.89
 -10  -2  21   27.12    1.19
 -10  -2  22    0.48    0.63
 -10  -2  23   14.88    0.96
 -10  -2  24    4.34    1.01
  -9  -2 -20   28.32    1.25
  -9  -2 -19    0.58    0.56
  -9  -2 -18    3.74    0.56
  -9  -2 -17    0.80    0.53
  -9  -2 -16    1.99    0.52
  -9  -2 -15    2.42    0.46
  -9  -2 -14   48.78    1.59
  -9  -2 -13   21.12    0.84
  -9  -2 -12   11.54    0.70
  -9  -2 -11   55.45    1.56
  -9  -2 -10    8.34    0.53
  -9  -2  -9   58.02    1.68
  -9  -2  -8  248.31    5.06
  -9  -2  -7    3.97    0.44
  -9  -2  -6  362.76    7.39
  -9  -2  -5   88.06    2.28
  -9  -2  -4  131.63    2.99
  -9  -2  -3   14.52    0.65
  -9  -2  -2  124.87    2.77
  -9  -2  -1   65.88    1.95
  -9  -2   0  210.26    4.52
  -9  -2   1   10.29    0.60
  -9  -2   2  408.81    7.87
  -9  -2   3   39.12    1.36
  -9  -2   4    8.77    0.59
  -9  -2   5   69.68    2.00
  -9  -2   6  464.80    9.15
  -9  -2   7   15.76    0.81
  -9  -2   8   56.11    1.71
  -9  -2   9   49.05    1.47
  -9  -2  10    2.49    0.52
  -9  -2  11    0.79    0.57
  -9  -2  12   25.33    1.05
  -9  -2  13   44.81    1.48
  -9  -2  14   14.58    1.00
  -9  -2  15    5.54    0.77
  -9  -2  16    0.40    0.63
  -9  -2  17    1.24    0.58
  -9  -2  18    2.30    0.63
  -9  -2  19    8.83    1.03
  -9  -2  20   68.86    1.90
  -9  -2  21    4.81    0.81
  -9  -2  22   17.41    0.98
  -9  -2  23   -0.50    0.70
  -9  -2  24    0.61    0.65
  -8  -2 -21    8.56    1.02
  -8  -2 -20   -0.19    0.56
  -8  -2 -19   33.03    1.20
  -8  -2 -18    0.45    0.58
  -8  -2 -17   42.04    1.53
  -8  -2 -16    1.72    0.57
  -8  -2 -15   22.48    0.85
  -8  -2 -14    0.58    0.44
  -8  -2 -13    8.74    0.52
  -8  -2 -12  174.78    3.69
  -8  -2 -11    7.18    0.48
  -8  -2 -10    2.34    0.37
  -8  -2  -9  124.15    2.87
  -8  -2  -8    0.52    0.32
  -8  -2  -7   91.58    2.32
  -8  -2  -6  161.16    3.53
  -8  -2  -5    8.00    0.49
  -8  -2  -4    0.79    0.40
  -8  -2  -3  196.73    4.24
  -8  -2  -2  174.65    3.74
  -8  -2  -1   71.69    1.91
  -8  -2   0   96.69    2.41
  -8  -2   1   22.24    0.93
  -8  -2   2    7.41    0.67
  -8  -2   3   23.59    0.82
  -8  -2   4  396.27    8.40
  -8  -2   5    2.18    0.55
  -8  -2   6   41.43    1.32
  -8  -2   7   33.17    1.16
  -8  -2   8  284.28    6.13
  -8  -2   9  387.52    8.18
  -8  -2  10   39.67    1.35
  -8  -2  11  167.70    3.78
  -8  -2  12   96.11    2.66
  -8  -2  13  205.79    4.43
  -8  -2  14  111.29    2.86
  -8  -2  15    0.79    0.52
  -8  -2  16    2.11    0.62
  -8  -2  17    2.01    0.56
  -8  -2  18   13.50    0.88
  -8  -2  19   77.87    2.11
  -8  -2  20   25.34    1.23
  -8  -2  21   20.40    0.94
  -8  -2  22   10.98    0.89
  -8  -2  23   -0.71    0.61
  -8  -2  24   12.70    0.91
  -7  -2 -21   -0.23    0.46
  -7  -2 -20   43.94    1.44
  -7  -2 -19   11.92    0.79
  -7  -2 -18  103.15    2.67
  -7  -2 -17    3.82    0.64
  -7  -2 -16    2.02    0.55
  -7  -2 -15    2.06    0.42
  -7  -2 -14    0.66    0.37
  -7  -2 -13  140.69    3.04
  -7  -2 -12   77.08    2.00
  -7  -2 -11   31.97    1.08
  -7  -2 -10  154.67    3.57
  -7  -2  -9    0.37    0.36
  -7  -2  -8    0.57    0.33
  -7  -2  -7   94.35    2.28
  -7  -2  -6   46.74    1.28
  -7  -2  -5    0.29    0.32
  -7  -2  -4  400.58    8.11
  -7  -2  -3  204.80    4.62
  -7  -2  -2   67.25    1.85
  -7  -2  -1   27.42    0.95
  -7  -2   0  145.63    3.36
  -7  -2   1   81.31    2.04
  -7  -2   2  333.07    6.35
  -7  -2   3    3.89    0.56
  -7  -2   4  665.02   12.29
  -7  -2   5    1.96    0.58
  -7  -2   6  143.27    3.63
  -7  -2   7   44.79    1.50
  -7  -2   8  118.70    3.17
  -7  -2   9   54.57    1.72
  -7  -2  10  562.86   11.13
  -7  -2  11  275.99    5.36
  -7  -2  12   69.83    1.96
  -7  -2  13    7.76    0.66
  -7  -2  14   22.62    1.10
  -7  -2  15  108.54    2.76
  -7  -2  16   12.89    0.81
  -7  -2  17   19.51    0.94
  -7  -2  18   17.27    1.08
  -7  -2  19    0.14    0.62
  -7  -2  20    9.71    0.84
  -7  -2  21    0.50    0.62
  -7  -2  22    2.14    0.67
  -7  -2  23    3.63    0.64
  -7  -2  24   63.18    1.95
  -6  -2 -22    1.42    0.77
  -6  -2 -21   29.59    1.06
  -6  -2 -20    1.12    0.48
  -6  -2 -19   15.88    0.82
  -6  -2 -18    4.21    0.66
  -6  -2 -17   17.81    0.85
  -6  -2 -16   10.62    0.68
  -6  -2 -15   17.10    0.78
  -6  -2 -14   56.22    1.66
  -6  -2 -13  135.49    3.14
  -6  -2 -12   73.39    1.99
  -6  -2 -11   29.40    0.95
  -6  -2 -10    5.95    0.47
  -6  -2  -9    1.12    0.34
  -6  -2  -8   39.31    1.11
  -6  -2  -7  200.23    4.20
  -6  -2  -6    2.40    0.35
  -6  -2  -5   31.22    1.01
  -6  -2  -4    0.81    0.37
  -6  -2  -3    4.94    0.43
  -6  -2  -2  267.15    5.48
  -6  -2  -1  116.21    2.88
  -6  -2   0   35.01    1.07
  -6  -2   1   42.69    1.45
  -6  -2   2  113.74    2.66
  -6  -2   3  151.19    3.29
  -6  -2   4   30.61    1.32
  -6  -2   5    0.98    0.47
  -6  -2   6  171.35    4.02
  -6  -2   7   14.27    0.72
  -6  -2   8  703.15   12.74
  -6  -2   9  161.94    3.88
  -6  -2  10  210.22    4.50
  -6  -2  11    8.67    0.59
  -6  -2  12    2.21    0.50
  -6  -2  13   71.84    1.90
  -6  -2  14   80.45    2.28
  -6  -2  15   59.37    1.79
  -6  -2  16  118.19    2.80
  -6  -2  17   38.23    1.29
  -6  -2  18    3.16    0.67
  -6  -2  19    2.76    0.64
  -6  -2  20   13.23    0.88
  -6  -2  21   39.27    1.35
  -6  -2  22   10.22    0.83
  -6  -2  23   25.57    1.16
  -6  -2  24    2.05    0.66
  -6  -2  25    1.65    1.30
  -5  -2 -22   27.04    1.14
  -5  -2 -21    1.52    0.60
  -5  -2 -20    3.01    0.54
  -5  -2 -19   34.49    1.25
  -5  -2 -18   30.03    1.07
  -5  -2 -17   36.47    1.20
  -5  -2 -16   63.47    1.75
  -5  -2 -15    5.11    0.54
  -5  -2 -14   34.67    1.05
  -5  -2 -13    5.84    0.46
  -5  -2 -12  126.98    2.67
  -5  -2 -11   21.54    0.78
  -5  -2 -10  202.32    4.24
  -5  -2  -9   28.96    0.89
  -5  -2  -8   26.91    0.85
  -5  -2  -7   53.07    1.48
  -5  -2  -6   13.03    0.55
  -5  -2  -5   82.73    1.84
  -5  -2  -4   49.13    1.28
  -5  -2  -3 1174.48   22.92
  -5  -2  -2   61.70    1.61
  -5  -2  -1   99.44    2.38
  -5  -2   0   20.59    0.80
  -5  -2   1   36.85    1.09
  -5  -2   2    6.18    0.50
  -5  -2   3  822.37   15.50
  -5  -2   4 1083.72   19.38
  -5  -2   5  283.64    5.94
  -5  -2   6  238.84    5.24
  -5  -2   7   40.33    1.34
  -5  -2   8    8.38    0.63
  -5  -2   9   51.99    1.65
  -5  -2  10  300.56    6.31
  -5  -2  11   38.06    1.40
  -5  -2  12  103.01    2.55
  -5  -2  13   52.81    1.73
  -5  -2  14   38.58    1.37
  -5  -2  15    9.65    0.87
  -5  -2  16    4.82    0.62
  -5  -2  17   14.90    0.85
  -5  -2  18    0.30    0.64
  -5  -2  19   10.87    0.85
  -5  -2  20  122.28    3.19
  -5  -2  21    1.46    0.57
  -5  -2  22   19.71    0.99
  -5  -2  23   -0.50    0.58
  -5  -2  24    2.39    0.69
  -5  -2  25    1.84    1.01
  -4  -2 -23   45.69    1.42
  -4  -2 -22   27.02    1.05
  -4  -2 -21    4.63    0.62
  -4  -2 -20   24.92    0.97
  -4  -2 -19   61.51    1.79
  -4  -2 -18   10.23    0.74
  -4  -2 -17   46.00    1.27
  -4  -2 -16   42.35    1.27
  -4  -2 -15   81.74    2.01
  -4  -2 -14   16.22    0.64
  -4  -2 -13   95.89    2.16
  -4  -2 -12   36.65    0.97
  -4  -2 -11   52.65    1.35
  -4  -2 -10  114.32    2.80
  -4  -2  -9  119.95    2.66
  -4  -2  -8  282.22    5.68
  -4  -2  -7    1.21    0.34
  -4  -2  -6  145.11    2.96
  -4  -2  -5  656.11   11.42
  -4  -2  -4  101.00    2.26
  -4  -2  -3  560.30    9.80
  -4  -2  -2  112.66    2.59
  -4  -2   0   17.21    0.60
  -4  -2   1  490.76    9.32
  -4  -2   2  249.63    5.22
  -4  -2   3  886.95   16.32
  -4  -2   4  323.70    6.51
  -4  -2   5  458.97    9.05
  -4  -2   6  105.00    2.54
  -4  -2   7  202.95    4.51
  -4  -2   8   52.96    1.54
  -4  -2   9  339.00    6.96
  -4  -2  10  185.40    4.11
  -4  -2  11  144.65    3.41
  -4  -2  12   -0.04    0.46
  -4  -2  13  189.05    4.25
  -4  -2  14    1.29    0.48
  -4  -2  15   18.91    0.88
  -4  -2  16   19.06    1.04
  -4  -2  17   31.87    1.13
  -4  -2  18    1.56    0.52
  -4  -2  19  133.45    3.13
  -4  -2  20   26.65    1.04
  -4  -2  21    5.66    0.66
  -4  -2  22    3.04    0.70
  -4  -2  23   44.61    1.52
  -4  -2  24    2.37    0.60
  -4  -2  25    6.44    1.02
  -3  -2 -23   13.35    1.02
  -3  -2 -22    0.57    0.59
  -3  -2 -21   22.86    0.99
  -3  -2 -20   81.65    1.94
  -3  -2 -19    1.14    0.63
  -3  -2 -18   11.98    0.67
  -3  -2 -17   16.10    0.68
  -3  -2 -16    7.15    0.55
  -3  -2 -15   12.87    0.70
  -3  -2 -14    4.09    0.46
  -3  -2 -13   13.73    0.62
  -3  -2 -12   53.97    1.41
  -3  -2 -11  326.15    6.22
  -3  -2 -10   46.47    1.28
  -3  -2  -9   48.96    1.35
  -3  -2  -8    3.22    0.30
  -3  -2  -7   48.61    1.24
  -3  -2  -6  156.60    3.15
  -3  -2  -5  109.90    2.39
  -3  -2  -4  227.56    4.28
  -3  -2   0  104.70    2.54
  -3  -2   1   10.83    0.58
  -3  -2   2  514.14    9.80
  -3  -2   3   76.50    1.93
  -3  -2   5  373.54    7.50
  -3  -2   6    6.11    0.68
  -3  -2   7   27.11    1.10
  -3  -2   8  778.12   14.53
  -3  -2   9   33.55    1.23
  -3  -2  10  525.53   10.55
  -3  -2  11    2.16    0.42
  -3  -2  12    0.33    0.51
  -3  -2  13   31.20    1.15
  -3  -2  14   31.19    1.22
  -3  -2  15   15.94    0.80
  -3  -2  16   51.77    1.64
  -3  -2  17   14.85    0.91
  -3  -2  18    9.47    0.72
  -3  -2  19    4.17    0.61
  -3  -2  20   -0.19    0.66
  -3  -2  21    2.89    0.55
  -3  -2  22   73.44    2.16
  -3  -2  23   20.18    0.94
  -3  -2  24   45.70    1.42
  -3  -2  25    4.62    0.81
  -2  -2 -24    3.01    0.61
  -2  -2 -23    7.63    0.79
  -2  -2 -22    1.00    0.57
  -2  -2 -21  100.55    2.43
  -2  -2 -20    1.48    0.45
  -2  -2 -19    0.65    0.59
  -2  -2 -18   17.22    0.73
  -2  -2 -17   11.76    0.67
  -2  -2 -16   19.49    0.82
  -2  -2 -15   89.35    1.98
  -2  -2 -14    1.93    0.43
  -2  -2 -13  124.05    2.70
  -2  -2 -12    2.21    0.37
  -2  -2 -11   37.03    1.03
  -2  -2 -10   49.43    1.24
  -2  -2  -9   62.58    1.55
  -2  -2  -8   93.87    2.05
  -2  -2  -7  560.26    9.82
  -2  -2  -6  429.79    7.45
  -2  -2  -5  679.18   11.56
  -2  -2  -4   81.18    1.73
  -2  -2  -3   64.59    1.38
  -2  -2  -2  508.37   16.58
  -2  -2  -1  525.79   18.45
  -2  -2   0   95.73    2.08
  -2  -2   1  289.15    5.76
  -2  -2   2   84.87    2.00
  -2  -2   3  123.55    2.92
  -2  -2   4   96.15    2.30
  -2  -2   5   17.25    0.73
  -2  -2   6  582.23   11.06
  -2  -2   7   77.99    2.03
  -2  -2   8    1.05    0.47
  -2  -2   9   90.12    2.18
  -2  -2  10   76.62    1.91
  -2  -2  11  499.55    9.71
  -2  -2  12    3.10    0.50
  -2  -2  13   12.31    0.70
  -2  -2  14   17.52    0.85
  -2  -2  15  121.78    2.83
  -2  -2  16   16.31    0.92
  -2  -2  17    0.66    0.59
  -2  -2  18  126.53    3.03
  -2  -2  19    6.65    0.64
  -2  -2  20   53.39    1.60
  -2  -2  21   55.37    1.53
  -2  -2  22    0.71    0.67
  -2  -2  23   21.87    1.13
  -2  -2  24    1.26    0.69
  -2  -2  25    5.01    1.09
  -1  -2 -24   21.38    1.31
  -1  -2 -23    2.31    0.59
  -1  -2 -22   85.01    2.32
  -1  -2 -21    2.40    0.70
  -1  -2 -20    1.13    0.50
  -1  -2 -19   38.04    1.22
  -1  -2 -18    3.87    0.49
  -1  -2 -17    5.31    0.65
  -1  -2 -16   90.07    2.13
  -1  -2 -15  110.28    2.66
  -1  -2 -14    8.20    0.53
  -1  -2 -13    2.56    0.51
  -1  -2 -12   87.22    2.07
  -1  -2 -11    8.45    0.52
  -1  -2 -10  120.15    2.76
  -1  -2  -9    8.07    0.44
  -1  -2  -8  280.61    5.42
  -1  -2  -7  507.57    9.02
  -1  -2  -6    7.54    0.39
  -1  -2  -5   83.41    1.81
  -1  -2  -4  401.38    9.75
  -1  -2   0  260.96    5.44
  -1  -2   1  344.73    6.33
  -1  -2   2    4.14    0.33
  -1  -2   3   31.61    0.91
  -1  -2   4   28.95    0.93
  -1  -2   5 1719.52   58.19
  -1  -2   6 1589.24   30.94
  -1  -2   7  359.72    7.53
  -1  -2   8  579.99   11.21
  -1  -2   9  117.76    2.55
  -1  -2  10  473.50    8.97
  -1  -2  11    1.08    0.42
  -1  -2  12  247.64    5.20
  -1  -2  13   30.82    1.03
  -1  -2  14    6.46    0.54
  -1  -2  15   50.26    1.60
  -1  -2  16   10.89    0.75
  -1  -2  17   17.14    0.92
  -1  -2  18    1.68    0.56
  -1  -2  19   67.77    2.05
  -1  -2  20   47.41    1.39
  -1  -2  21    0.12    0.54
  -1  -2  22    0.93    0.57
  -1  -2  23    3.56    0.62
  -1  -2  24    3.59    0.67
   0  -2 -24    9.13    0.77
   0  -2 -23   12.16    0.84
   0  -2 -22    1.75    0.60
   0  -2 -21    0.56    0.54
   0  -2 -20    0.38    0.49
   0  -2 -19   45.93    1.40
   0  -2 -18    8.52    0.69
   0  -2 -17   14.34    0.74
   0  -2 -16   14.27    0.76
   0  -2 -15    4.13    0.47
   0  -2 -14   34.71    1.16
   0  -2 -13    0.68    0.37
   0  -2 -12   64.49    1.70
   0  -2 -11  187.25    3.77
   0  -2 -10  131.48    3.25
   0  -2  -9  512.38    9.27
   0  -2  -8  454.96    8.38
   0  -2  -7  122.93    2.58
   0  -2  -6  394.12    7.07
   0  -2  -5  147.70    3.20
   0  -2  -4   14.16    0.50
   0  -2  -3  468.81   11.59
   0  -2  -2   30.67    0.84
   0  -2   0  290.24    7.41
   0  -2   1  561.62    9.56
   0  -2   2   28.59    0.86
   0  -2   3  452.29    8.43
   0  -2   4   14.22    0.58
   0  -2   5  138.80    3.01
   0  -2   6  379.71    7.60
   0  -2   7  123.84    2.95
   0  -2   8  456.87    9.26
   0  -2   9  500.05    9.37
   0  -2  10  133.88    3.29
   0  -2  11  189.03    4.13
   0  -2  12   68.01    1.75
   0  -2  13    1.19    0.49
   0  -2  14   34.16    1.23
   0  -2  15    4.94    0.59
   0  -2  16   15.30    0.83
   0  -2  17   16.12    0.79
   0  -2  18    9.26    0.75
   0  -2  19   48.60    1.48
   0  -2  20    0.48    0.57
   0  -2  21    0.66    0.59
   0  -2  22    0.92    0.67
   0  -2  23   12.65    0.96
   0  -2  24    8.58    0.81
   1  -2 -24    4.47    0.68
   1  -2 -23    3.09    0.78
   1  -2 -22    1.66    0.57
   1  -2 -21   -0.65    0.58
   1  -2 -20   45.53    1.34
   1  -2 -19   65.15    1.72
   1  -2 -18    1.12    0.49
   1  -2 -17   14.94    0.75
   1  -2 -16   11.59    0.70
   1  -2 -15   50.23    1.62
   1  -2 -14    5.27    0.47
   1  -2 -13   30.21    1.01
   1  -2 -12  235.60    4.58
   1  -2 -11    1.54    0.37
   1  -2 -10  467.66    8.84
   1  -2  -9  122.46    3.12
   1  -2  -8  577.83   10.39
   1  -2  -7  377.27    7.10
   1  -2  -6 1585.90   51.46
   1  -2  -4   30.22    0.86
   1  -2  -3   30.71    0.94
   1  -2  -2    4.24    0.29
   1  -2  -1  360.05    6.51
   1  -2   0  265.67    4.83
   1  -2   1  362.52    6.69
   1  -2   2  962.16   32.70
   1  -2   3  225.07    4.66
   1  -2   4  380.78    7.08
   1  -2   5   84.13    1.98
   1  -2   6    7.02    0.52
   1  -2   7  495.20    9.59
   1  -2   8  272.72    5.52
   1  -2   9    7.56    0.49
   1  -2  10  119.39    2.76
   1  -2  11    7.96    0.53
   1  -2  12   90.35    2.17
   1  -2  13    2.85    0.49
   1  -2  14    8.25    0.56
   1  -2  15  111.65    2.83
   1  -2  16   89.93    2.53
   1  -2  17    5.23    0.62
   1  -2  18    3.65    0.61
   1  -2  19   37.65    1.23
   1  -2  20    0.09    0.52
   1  -2  21    2.31    0.77
   1  -2  22   86.39    2.28
   1  -2  23    2.75    0.67
   1  -2  24   22.17    1.07
   2  -2 -25    5.10    1.00
   2  -2 -24    1.60    0.79
   2  -2 -23   21.70    0.94
   2  -2 -22    0.81    0.57
   2  -2 -21   53.94    1.48
   2  -2 -20   51.00    1.50
   2  -2 -19    7.39    0.66
   2  -2 -18  123.18    2.91
   2  -2 -17    0.61    0.44
   2  -2 -16   13.97    0.71
   2  -2 -15  118.01    3.10
   2  -2 -14   17.76    0.80
   2  -2 -13   11.61    0.63
   2  -2 -12    3.40    0.48
   2  -2 -11  502.55    9.99
   2  -2 -10   76.45    1.94
   2  -2  -9   86.26    2.12
   2  -2  -8    1.00    0.36
   2  -2  -7   75.32    1.92
   2  -2  -6  585.22   10.85
   2  -2  -5   18.51    0.74
   2  -2  -4   92.12    2.20
   2  -2  -3  123.10    2.94
   2  -2  -2   89.68    2.10
   2  -2  -1  282.76    5.55
   2  -2   0   91.16    2.08
   2  -2   1  519.40    9.16
   2  -2   2  472.00    8.80
   2  -2   3   65.39    1.60
   2  -2   4   80.12    2.09
   2  -2   5  651.49   12.23
   2  -2   6  425.03    7.69
   2  -2   7  564.73   10.87
   2  -2   8   96.97    2.15
   2  -2   9   64.89    1.76
   2  -2  10   48.72    1.40
   2  -2  11   35.67    1.17
   2  -2  12    2.41    0.51
   2  -2  13  125.75    2.95
   2  -2  14    2.08    0.52
   2  -2  15   90.67    2.56
   2  -2  16   17.51    0.80
   2  -2  17   11.14    0.74
   2  -2  18   18.23    0.92
   2  -2  19   -0.07    0.52
   2  -2  20    1.45    0.63
   2  -2  21  106.29    2.49
   2  -2  22    1.05    0.68
   2  -2  23    7.73    0.68
   2  -2  24    4.54    0.82
   3  -2 -25    4.35    0.87
   3  -2 -24   43.44    1.35
   3  -2 -23   19.20    0.97
   3  -2 -22   73.15    2.09
   3  -2 -21    3.10    0.57
   3  -2 -20    0.10    0.47
   3  -2 -19    3.65    0.55
   3  -2 -18    9.53    0.74
   3  -2 -17   14.39    0.83
   3  -2 -16   51.48    1.45
   3  -2 -15   16.18    0.75
   3  -2 -14   30.40    1.01
   3  -2 -13   30.77    1.03
   3  -2 -12    0.25    0.49
   3  -2 -11    1.89    0.39
   3  -2 -10  506.48    9.41
   3  -2  -9   33.18    1.07
   3  -2  -8  777.33   14.39
   3  -2  -7   28.38    1.09
   3  -2  -6    6.06    0.44
   3  -2  -5  376.44    7.40
   3  -2  -3   81.40    1.95
   3  -2  -2  513.54    9.35
   3  -2  -1    9.11    0.56
   3  -2   0  105.83    2.63
   3  -2   1 1100.53   18.64
   3  -2   4  219.76    4.64
   3  -2   5  107.43    2.54
   3  -2   6  153.15    3.30
   3  -2   7   45.95    1.41
   3  -2   8    3.11    0.50
   3  -2   9   50.22    1.45
   3  -2  10   47.07    1.45
   3  -2  11  328.04    6.34
   3  -2  12   53.96    1.51
   3  -2  13   13.06    0.80
   3  -2  14    2.88    0.52
   3  -2  15   13.97    0.67
   3  -2  16    8.63    0.59
   3  -2  17   17.18    0.81
   3  -2  18   11.69    0.83
   3  -2  19    1.13    0.60
   3  -2  20   81.87    2.12
   3  -2  21   23.59    1.11
   3  -2  22    0.21    0.62
   3  -2  23   11.76    0.82
   4  -2 -25    8.48    1.05
   4  -2 -24    2.95    0.61
   4  -2 -23   39.87    1.34
   4  -2 -22    3.10    0.65
   4  -2 -21    5.31    0.61
   4  -2 -20   24.50    1.16
   4  -2 -19  128.15    2.68
   4  -2 -18    0.49    0.55
   4  -2 -17   31.19    1.15
   4  -2 -16   17.72    0.91
   4  -2 -15   18.65    0.87
   4  -2 -14    0.83    0.50
   4  -2 -13  181.27    3.95
   4  -2 -12    0.34    0.43
   4  -2 -11  142.06    3.16
   4  -2 -10  178.97    4.07
   4  -2  -9  326.61    6.82
   4  -2  -8   52.47    1.57
   4  -2  -7  196.81    4.14
   4  -2  -6  105.61    2.49
   4  -2  -5  453.36    8.43
   4  -2  -4  314.70    8.12
   4  -2  -3  894.53   15.79
   4  -2  -2  240.31    4.88
   4  -2  -1  490.06    9.44
   4  -2   0   16.36    0.80
   4  -2   2  112.91    2.58
   4  -2   3  554.90   10.36
   4  -2   4   97.39    2.27
   4  -2   5  642.11   11.14
   4  -2   6  142.50    3.02
   4  -2   7    1.99    0.60
   4  -2   8  282.95    6.08
   4  -2   9  123.15    2.88
   4  -2  10  118.66    2.66
   4  -2  11   54.38    1.47
   4  -2  12   35.97    1.10
   4  -2  13   99.90    2.56
   4  -2  14   17.95    0.88
   4  -2  15   81.36    1.98
   4  -2  16   40.76    1.47
   4  -2  17   46.40    1.53
   4  -2  18   10.05    0.74
   4  -2  19   62.37    1.79
   4  -2  20   24.32    1.12
   4  -2  21    4.36    0.64
   4  -2  22   25.45    1.08
   4  -2  23   46.27    1.43
   5  -2 -25    1.56    0.77
   5  -2 -24    1.83    0.82
   5  -2 -23   -0.41    0.72
   5  -2 -22   17.24    0.84
   5  -2 -21    0.73    0.52
   5  -2 -20  118.89    2.64
   5  -2 -19   11.39    0.77
   5  -2 -18    0.48    0.60
   5  -2 -17   13.41    0.85
   5  -2 -16    5.32    0.65
   5  -2 -15    9.68    0.73
   5  -2 -14   37.43    1.21
   5  -2 -13   52.71    1.64
   5  -2 -12  106.08    2.43
   5  -2 -11   36.28    1.17
   5  -2 -10  298.24    6.52
   5  -2  -9   51.30    1.63
   5  -2  -8    9.55    0.58
   5  -2  -7   40.69    1.30
   5  -2  -6  243.24    5.07
   5  -2  -5  290.36    6.05
   5  -2  -4 1095.35   19.00
   5  -2  -3  837.77   15.44
   5  -2  -2    4.22    0.58
   5  -2  -1   36.45    1.26
   5  -2   0   20.14    0.94
   5  -2   1   99.54    2.41
   5  -2   2   61.41    1.56
   5  -2   3 1176.15   20.47
   5  -2   4   47.81    1.31
   5  -2   5   82.47    1.99
   5  -2   6   14.23    0.66
   5  -2   7   54.11    1.57
   5  -2   8   27.17    0.90
   5  -2   9   30.31    1.08
   5  -2  10  198.87    4.17
   5  -2  11   21.73    0.88
   5  -2  12  128.58    3.03
   5  -2  13    6.87    0.60
   5  -2  14   33.93    1.14
   5  -2  15    5.10    0.58
   5  -2  16   65.05    1.90
   5  -2  17   38.07    1.26
   5  -2  18   32.36    1.25
   5  -2  19   36.08    1.24
   5  -2  20    1.60    0.63
   5  -2  21    1.95    0.70
   5  -2  22   25.75    1.10
   6  -2 -25    0.40    1.06
   6  -2 -24    2.12    0.77
   6  -2 -23   26.45    1.15
   6  -2 -22    9.73    0.87
   6  -2 -21   39.40    1.29
   6  -2 -20   13.19    0.86
   6  -2 -19    4.08    0.66
   6  -2 -18    2.74    0.65
   6  -2 -17   36.03    1.32
   6  -2 -16  113.60    2.90
   6  -2 -15   57.33    1.64
   6  -2 -14   79.87    1.94
   6  -2 -13   68.43    1.88
   6  -2 -12    2.03    0.64
   6  -2 -11    7.40    0.51
   6  -2 -10  206.40    5.51
   6  -2  -9  163.00    3.75
   6  -2  -8  716.97   13.39
   6  -2  -7   14.49    0.70
   6  -2  -6  168.62    3.79
   6  -2  -5    0.43    0.55
   6  -2  -4   29.32    1.10
   6  -2  -3  152.15    3.72
   6  -2  -2  111.03    2.55
   6  -2  -1   42.44    1.41
   6  -2   0   34.20    1.25
   6  -2   1  116.93    2.65
   6  -2   2  260.68    5.47
   6  -2   3    5.09    0.66
   6  -2   4    0.81    0.50
   6  -2   5   31.69    1.00
   6  -2   6    2.01    0.42
   6  -2   7  204.48    4.39
   6  -2   8   40.22    1.17
   6  -2   9    1.40    0.53
   6  -2  10    6.25    0.49
   6  -2  11   28.65    1.05
   6  -2  12   72.13    2.06
   6  -2  13  133.63    3.14
   6  -2  14   58.02    1.58
   6  -2  15   17.28    0.81
   6  -2  16   11.77    0.65
   6  -2  17   16.96    0.81
   6  -2  18    3.83    0.56
   6  -2  19   14.75    0.87
   6  -2  20    1.35    0.66
   6  -2  21   29.82    1.07
   6  -2  22    1.15    0.68
   7  -2 -24   61.15    1.63
   7  -2 -23    4.58    0.73
   7  -2 -22    0.37    0.71
   7  -2 -21    0.21    0.71
   7  -2 -20    8.74    0.84
   7  -2 -19    0.66    0.56
   7  -2 -18   17.04    0.98
   7  -2 -17   19.10    0.99
   7  -2 -16   11.66    0.77
   7  -2 -15  106.68    2.69
   7  -2 -14   21.42    0.95
   7  -2 -13    7.77    0.70
   7  -2 -12   68.04    1.88
   7  -2 -11  269.24    5.81
   7  -2 -10  565.75   11.10
   7  -2  -9   54.24    1.65
   7  -2  -8  116.44    2.97
   7  -2  -7   46.13    1.50
   7  -2  -6  144.38    3.40
   7  -2  -5    1.72    0.47
   7  -2  -4  660.62   12.53
   7  -2  -3    4.11    0.57
   7  -2  -2  328.89    6.60
   7  -2  -1   81.12    2.30
   7  -2   0  148.83    3.53
   7  -2   1   28.72    0.99
   7  -2   2   68.61    1.88
   7  -2   3  208.28    4.62
   7  -2   4  408.57    8.60
   7  -2   5   -1.03    0.50
   7  -2   6   45.00    1.43
   7  -2   7   92.12    2.39
   7  -2   8    0.66    0.44
   7  -2   9    0.14    0.50
   7  -2  10  157.47    3.34
   7  -2  11   31.99    1.24
   7  -2  12   78.32    2.16
   7  -2  13  143.08    3.02
   7  -2  14    0.20    0.41
   7  -2  15    2.89    0.49
   7  -2  16    1.81    0.50
   7  -2  17    3.96    0.51
   7  -2  18  105.91    2.55
   7  -2  19   11.84    0.76
   7  -2  20   44.53    1.42
   7  -2  21   -0.22    0.61
   8  -2 -24   12.29    0.81
   8  -2 -23   -0.42    0.69
   8  -2 -22    9.71    1.08
   8  -2 -21   20.29    1.05
   8  -2 -20   25.67    1.02
   8  -2 -19   76.52    2.03
   8  -2 -18   12.72    0.84
   8  -2 -17    1.75    0.63
   8  -2 -16    1.29    0.66
   8  -2 -15    0.36    0.52
   8  -2 -14  108.07    2.74
   8  -2 -13  205.34    4.48
   8  -2 -12   91.82    2.67
   8  -2 -11  166.78    3.87
   8  -2 -10   42.33    1.32
   8  -2  -9  387.17    7.52
   8  -2  -8  284.15    6.05
   8  -2  -7   32.69    1.15
   8  -2  -6   40.50    1.45
   8  -2  -5    2.96    0.58
   8  -2  -4  388.43    8.35
   8  -2  -3   23.69    0.90
   8  -2  -2    8.09    0.63
   8  -2  -1   21.77    0.93
   8  -2   0   97.38    2.47
   8  -2   1   70.86    1.81
   8  -2   2  172.93    3.94
   8  -2   3  195.48    4.22
   8  -2   4    0.07    0.41
   8  -2   5    8.41    0.60
   8  -2   6  164.16    3.82
   8  -2   7   94.08    2.32
   8  -2   8   -0.23    0.45
   8  -2   9  128.10    3.00
   8  -2  10    2.89    0.67
   8  -2  11    7.53    0.68
   8  -2  12  178.87    3.96
   8  -2  13    9.06    0.66
   8  -2  14    1.01    0.53
   8  -2  15   21.12    0.94
   8  -2  16    2.59    0.62
   8  -2  17   43.95    1.46
   8  -2  18    1.19    0.71
   8  -2  19   33.55    1.37
   8  -2  20    0.20    0.73
   8  -2  21   11.61    0.98
   9  -2 -24    1.19    0.90
   9  -2 -23    0.14    0.75
   9  -2 -22   18.10    0.99
   9  -2 -21    4.37    0.67
   9  -2 -20   69.65    1.76
   9  -2 -19    8.82    0.77
   9  -2 -18    2.47    0.62
   9  -2 -17    1.30    0.63
   9  -2 -16   -0.10    0.64
   9  -2 -15    4.73    0.61
   9  -2 -14   14.39    0.84
   9  -2 -13   44.53    1.28
   9  -2 -12   23.82    0.94
   9  -2 -11   -0.23    0.57
   9  -2 -10    2.32    0.52
   9  -2  -9   48.87    1.52
   9  -2  -8   56.73    1.83
   9  -2  -7   16.25    0.81
   9  -2  -6  455.71    8.80
   9  -2  -5   70.78    2.00
   9  -2  -4    7.14    0.74
   9  -2  -3   36.18    1.36
   9  -2  -2  406.88    8.08
   9  -2  -1   11.35    0.65
   9  -2   0  216.20    4.70
   9  -2   1   66.83    1.72
   9  -2   2  131.49    3.13
   9  -2   3   13.20    0.81
   9  -2   4  131.51    3.08
   9  -2   5   91.27    2.34
   9  -2   6  378.58    7.43
   9  -2   7    4.05    0.54
   9  -2   8  255.51    5.50
   9  -2   9   59.09    1.74
   9  -2  10    7.94    0.64
   9  -2  11   59.31    1.60
   9  -2  12   11.78    0.74
   9  -2  13   20.72    1.02
   9  -2  14   50.67    1.61
   9  -2  15    2.95    0.60
   9  -2  16    2.22    0.49
   9  -2  17    1.09    0.49
   9  -2  18    3.35    0.56
   9  -2  19    0.10    0.54
   9  -2  20   28.33    1.23
  10  -2 -24    2.49    1.19
  10  -2 -23   14.99    0.96
  10  -2 -22    0.22    0.57
  10  -2 -21   27.93    1.16
  10  -2 -20    1.19    0.66
  10  -2 -19    6.11    0.72
  10  -2 -18   14.13    0.90
  10  -2 -17   33.11    1.27
  10  -2 -16   27.16    1.26
  10  -2 -15   22.84    1.08
  10  -2 -14   22.10    0.99
  10  -2 -13    7.61    0.65
  10  -2 -12   13.79    0.76
  10  -2 -11    2.22    0.51
  10  -2 -10    0.72    0.49
  10  -2  -9   93.89    2.29
  10  -2  -8   27.74    1.07
  10  -2  -7  162.44    3.93
  10  -2  -6   14.68    0.79
  10  -2  -5    1.14    0.48
  10  -2  -4  198.47    4.72
  10  -2  -3  109.05    2.76
  10  -2  -2   39.87    1.32
  10  -2  -1  324.21    6.23
  10  -2   0    1.15    0.56
  10  -2   1   25.92    1.06
  10  -2   2   87.07    2.29
  10  -2   3   53.88    1.82
  10  -2   4    4.79    0.65
  10  -2   5  267.47    5.74
  10  -2   6   28.70    1.20
  10  -2   7  169.03    3.82
  10  -2   8   37.54    1.34
  10  -2   9    3.06    0.60
  10  -2  10  230.15    5.04
  10  -2  11    1.98    0.51
  10  -2  12   12.53    0.84
  10  -2  13  139.45    3.34
  10  -2  14    0.81    0.56
  10  -2  15   18.35    0.83
  10  -2  16   10.01    0.70
  10  -2  17   35.46    1.35
  10  -2  18    0.49    0.62
  10  -2  19   34.69    1.48
  11  -2 -23    2.19    0.68
  11  -2 -22    0.86    0.61
  11  -2 -21   12.04    0.90
  11  -2 -20   33.30    1.32
  11  -2 -19    7.07    0.86
  11  -2 -18  182.84    4.16
  11  -2 -17   72.83    2.13
  11  -2 -16   38.43    1.37
  11  -2 -15    6.43    0.79
  11  -2 -14    5.87    0.75
  11  -2 -13    0.53    0.55
  11  -2 -12    5.62    0.68
  11  -2 -11   18.58    0.97
  11  -2 -10  284.05    6.28
  11  -2  -9   27.13    1.19
  11  -2  -8   70.55    1.79
  11  -2  -7    0.82    0.51
  11  -2  -6    0.27    0.50
  11  -2  -5    2.62    0.56
  11  -2  -4   56.72    1.51
  11  -2  -3    4.78    0.57
  11  -2  -2   89.00    2.10
  11  -2  -1   18.54    1.04
  11  -2   0   30.61    1.10
  11  -2   1   13.14    0.87
  11  -2   2   52.92    1.74
  11  -2   3   46.89    1.50
  11  -2   4   54.28    1.61
  11  -2   5    8.13    0.63
  11  -2   6   66.61    1.84
  11  -2   7    5.57    0.75
  11  -2   8   38.28    1.31
  11  -2   9    0.98    0.60
  11  -2  10   54.18    1.72
  11  -2  11    4.50    0.59
  11  -2  12   75.10    2.08
  11  -2  13   -0.22    0.46
  11  -2  14   10.57    0.79
  11  -2  15    0.15    0.57
  11  -2  16   18.88    0.99
  11  -2  17   27.55    1.15
  11  -2  18    5.84    0.69
  12  -2 -23    0.07    1.17
  12  -2 -22    0.90    0.93
  12  -2 -21   15.91    1.14
  12  -2 -20    1.72    0.69
  12  -2 -19   71.12    2.00
  12  -2 -18   -0.11    0.60
  12  -2 -17   22.97    1.04
  12  -2 -16   11.00    0.79
  12  -2 -15    3.45    0.76
  12  -2 -14   23.79    1.01
  12  -2 -13   14.67    0.81
  12  -2 -12   48.17    1.56
  12  -2 -11   20.75    0.99
  12  -2 -10   12.27    0.82
  12  -2  -9    0.49    0.58
  12  -2  -8   89.41    2.18
  12  -2  -7  356.62    6.78
  12  -2  -6    5.69    0.72
  12  -2  -5   89.39    2.46
  12  -2  -4    8.90    0.76
  12  -2  -3   10.62    0.76
  12  -2  -2    1.84    0.56
  12  -2  -1  122.58    2.95
  12  -2   0   38.63    1.31
  12  -2   1  414.06    7.99
  12  -2   2    3.18    0.71
  12  -2   3   57.58    1.69
  12  -2   4  310.03    6.40
  12  -2   5    1.64    0.61
  12  -2   6   15.21    0.81
  12  -2   7    2.46    0.54
  12  -2   8   33.76    1.33
  12  -2   9   78.60    2.19
  12  -2  10   36.25    1.33
  12  -2  11    5.31    0.59
  12  -2  12   31.04    1.17
  12  -2  13    0.37    0.56
  12  -2  14   -0.14    0.45
  12  -2  15   60.34    1.77
  12  -2  16    0.65    0.53
  12  -2  17    0.11    0.57
  13  -2 -22   15.60    0.94
  13  -2 -21    1.96    0.64
  13  -2 -20    4.96    0.74
  13  -2 -19    0.23    0.89
  13  -2 -18    0.26    0.95
  13  -2 -17   12.13    0.96
  13  -2 -16   38.00    1.45
  13  -2 -15    4.29    0.71
  13  -2 -14    3.26    0.77
  13  -2 -13   10.99    0.81
  13  -2 -12   54.83    1.78
  13  -2 -11   18.97    0.96
  13  -2 -10   16.73    0.90
  13  -2  -9  117.61    2.70
  13  -2  -8  298.84    6.12
  13  -2  -7   15.20    0.90
  13  -2  -6  163.27    3.60
  13  -2  -5    0.23    0.55
  13  -2  -4    7.80    0.75
  13  -2  -3   55.54    1.70
  13  -2  -2   96.00    2.51
  13  -2  -1   21.45    0.96
  13  -2   0  157.65    3.68
  13  -2   1   17.51    0.84
  13  -2   2   25.90    1.02
  13  -2   3   26.67    1.15
  13  -2   4    3.09    0.63
  13  -2   5    0.51    0.57
  13  -2   6   90.30    2.51
  13  -2   7   71.90    2.00
  13  -2   8    2.92    0.68
  13  -2   9    5.05    0.68
  13  -2  10    1.69    0.55
  13  -2  11    4.94    0.59
  13  -2  12   48.26    1.44
  13  -2  13   21.76    1.06
  13  -2  14    6.45    0.71
  13  -2  15    6.54    0.72
  13  -2  16    5.44    0.69
  14  -2 -21    0.80    0.67
  14  -2 -20    2.39    0.65
  14  -2 -19   14.12    0.90
  14  -2 -18    3.39    0.71
  14  -2 -17   32.10    1.33
  14  -2 -16    3.21    0.79
  14  -2 -15    2.32    0.84
  14  -2 -14    1.61    0.66
  14  -2 -13    0.23    0.57
  14  -2 -12   49.51    1.50
  14  -2 -11   56.93    1.57
  14  -2 -10   11.72    0.77
  14  -2  -9  137.03    3.11
  14  -2  -8   55.40    1.69
  14  -2  -7  103.68    2.54
  14  -2  -6   16.05    1.01
  14  -2  -5  126.95    3.34
  14  -2  -4   18.90    0.88
  14  -2  -3  200.10    4.32
  14  -2  -2   76.31    2.16
  14  -2  -1   86.23    2.21
  14  -2   0   14.86    0.89
  14  -2   1    0.16    0.68
  14  -2   2   17.52    0.79
  14  -2   3    9.65    0.72
  14  -2   4   16.32    1.02
  14  -2   5   11.91    0.85
  14  -2   6    0.87    0.61
  14  -2   7    7.94    0.67
  14  -2   8    2.78    0.65
  14  -2   9    3.48    0.66
  14  -2  10    0.62    0.57
  14  -2  11   47.01    1.45
  14  -2  12   -0.14    0.56
  14  -2  13    4.11    0.63
  14  -2  14   -0.22    0.66
  14  -2  15    0.12    0.77
  15  -2 -20   10.03    0.98
  15  -2 -19    0.70    0.78
  15  -2 -18   11.26    0.86
  15  -2 -17    0.09    0.70
  15  -2 -16    9.01    0.91
  15  -2 -15   18.98    0.95
  15  -2 -14   29.51    1.37
  15  -2 -13   49.89    1.87
  15  -2 -12    3.04    0.62
  15  -2 -11    5.78    0.74
  15  -2 -10   55.40    1.81
  15  -2  -9  119.73    3.07
  15  -2  -8    1.66    0.71
  15  -2  -7    6.72    0.79
  15  -2  -6   72.57    1.90
  15  -2  -5    6.89    0.76
  15  -2  -4   45.82    1.47
  15  -2  -3    1.62    0.58
  15  -2  -2    0.60    0.66
  15  -2  -1    4.06    0.64
  15  -2   0   51.05    1.60
  15  -2   1    9.08    0.72
  15  -2   2   28.71    1.20
  15  -2   3   27.73    1.26
  15  -2   4   41.17    1.45
  15  -2   5    0.95    0.61
  15  -2   6   13.93    0.80
  15  -2   7    0.23    0.53
  15  -2   8   39.66    1.50
  15  -2   9    4.56    0.70
  15  -2  10   72.99    1.98
  15  -2  11   22.40    1.05
  15  -2  12   24.74    1.01
  15  -2  13    0.45    0.57
  15  -2  14   -0.05    0.62
  16  -2 -19   17.00    1.24
  16  -2 -18    0.00    0.73
  16  -2 -17    5.49    0.76
  16  -2 -16    8.45    0.78
  16  -2 -15   71.50    2.02
  16  -2 -14    0.75    0.80
  16  -2 -13   37.25    1.37
  16  -2 -12    2.80    0.66
  16  -2 -11   18.55    1.02
  16  -2 -10   43.42    1.62
  16  -2  -9   17.99    0.93
  16  -2  -8    4.29    0.75
  16  -2  -7   92.50    2.30
  16  -2  -6    0.95    0.58
  16  -2  -5  139.68    3.16
  16  -2  -4   34.37    1.42
  16  -2  -3    3.12    0.59
  16  -2  -2   18.14    1.03
  16  -2  -1   67.54    1.88
  16  -2   0   32.41    1.42
  16  -2   1   32.50    1.23
  16  -2   2   -0.50    0.72
  16  -2   3   11.02    0.79
  16  -2   4   33.39    1.28
  16  -2   5   10.12    0.73
  16  -2   6    2.45    0.59
  16  -2   7   23.79    1.13
  16  -2   8    5.31    0.75
  16  -2   9   24.05    1.10
  16  -2  10    1.97    0.72
  16  -2  11    8.20    0.86
  16  -2  12    6.74    0.70
  17  -2 -18    2.84    0.94
  17  -2 -17    0.09    0.72
  17  -2 -16   25.29    1.14
  17  -2 -15    0.27    0.73
  17  -2 -14   13.70    1.04
  17  -2 -13    3.38    0.81
  17  -2 -12    5.87    0.73
  17  -2 -11    3.92    0.67
  17  -2 -10    4.49    0.80
  17  -2  -9    5.55    0.81
  17  -2  -8   53.22    1.69
  17  -2  -7   32.28    1.26
  17  -2  -6    8.71    0.78
  17  -2  -5   22.39    1.26
  17  -2  -4   14.00    0.97
  17  -2  -3   29.40    1.16
  17  -2  -2   22.19    1.21
  17  -2  -1   21.05    1.01
  17  -2   0   28.82    1.12
  17  -2   1   13.29    0.93
  17  -2   2   36.18    1.24
  17  -2   3    0.40    0.70
  17  -2   4    2.95    0.62
  17  -2   5    0.73    0.67
  17  -2   6   81.96    2.29
  17  -2   7    1.53    0.57
  17  -2   8   10.34    0.99
  17  -2   9   -0.16    0.70
  17  -2  10    0.85    0.67
  17  -2  11    2.63    0.74
  18  -2 -17   25.25    1.33
  18  -2 -16   -0.24    0.68
  18  -2 -15    3.84    0.72
  18  -2 -14    0.02    0.72
  18  -2 -13    0.21    0.77
  18  -2 -12    1.05    0.71
  18  -2 -11    0.68    0.73
  18  -2 -10   18.37    1.18
  18  -2  -9   67.69    1.88
  18  -2  -8   18.39    0.93
  18  -2  -7    2.86    0.64
  18  -2  -6   18.75    1.26
  18  -2  -5   16.27    0.90
  18  -2  -4   13.25    0.82
  18  -2  -3   50.29    1.58
  18  -2  -2    2.29    0.73
  18  -2  -1    5.56    0.93
  18  -2   0   11.92    0.97
  18  -2   1    6.62    0.85
  18  -2   2    7.74    0.78
  18  -2   3   19.21    1.00
  18  -2   4   16.15    0.94
  18  -2   5   18.77    1.00
  18  -2   6    0.62    0.69
  18  -2   7   -0.56    0.82
  18  -2   8   -0.53    0.71
  18  -2   9    9.37    0.83
  19  -2 -15    0.48    0.67
  19  -2 -14    0.24    0.67
  19  -2 -13    0.01    1.03
  19  -2 -12    1.04    0.64
  19  -2 -11   -0.59    0.67
  19  -2 -10   69.33    2.19
  19  -2  -9   10.49    0.81
  19  -2  -8    1.82    0.70
  19  -2  -7    1.12    0.91
  19  -2  -6   50.77    1.62
  19  -2  -5    6.10    0.78
  19  -2  -4   26.03    1.27
  19  -2  -3   15.72    0.96
  19  -2  -2    6.69    0.88
  19  -2  -1    0.97    0.65
  19  -2   0    2.38    0.82
  19  -2   1    6.36    0.77
  19  -2   2   43.08    1.59
  19  -2   3    3.21    0.74
  19  -2   4   26.12    1.23
  19  -2   5   27.16    1.16
  19  -2   6    1.26    0.66
  19  -2   7    0.68    1.08
  20  -2 -13    1.59    0.73
  20  -2 -12    0.14    0.73
  20  -2 -11    6.54    0.90
  20  -2 -10    8.49    0.99
  20  -2  -9    5.23    0.78
  20  -2  -8    1.69    1.02
  20  -2  -7   19.46    1.06
  20  -2  -6    2.84    0.77
  20  -2  -5    9.98    1.03
  20  -2  -4    0.09    0.70
  20  -2  -3   12.39    1.08
  20  -2  -2   -0.11    0.67
  20  -2  -1    8.81    1.04
  20  -2   0    0.68    0.72
  20  -2   1   51.07    1.78
  20  -2   2    0.12    0.62
  20  -2   3    3.70    0.67
  20  -2   4    0.33    0.71
  21  -2  -9    1.21    0.98
  21  -2  -8   22.15    1.17
  21  -2  -7    1.77    0.69
  21  -2  -6    0.36    0.81
  21  -2  -5    0.31    0.66
  21  -2  -4   14.82    1.09
  21  -2  -3   -0.29    0.75
  21  -2  -2   15.35    1.06
  21  -2  -1    6.29    0.71
  21  -2   0    1.73    1.02
 -21  -3   1    7.64    1.22
 -21  -3   2    3.84    0.71
 -21  -3   3    7.21    0.78
 -21  -3   4    2.83    0.71
 -21  -3   5    0.39    0.71
 -21  -3   6    4.90    0.76
 -21  -3   7    2.13    0.70
 -21  -3   8    1.16    0.93
 -20  -3  -3   17.81    1.16
 -20  -3  -2    4.04    0.64
 -20  -3  -1    1.23    0.61
 -20  -3   0   13.76    0.88
 -20  -3   1   45.99    1.41
 -20  -3   2   25.80    1.12
 -20  -3   3    5.13    0.75
 -20  -3   4    0.12    0.87
 -20  -3   5   16.42    1.04
 -20  -3   6    0.43    0.73
 -20  -3   7   11.78    0.82
 -20  -3   8    8.42    1.00
 -20  -3   9   18.68    1.01
 -20  -3  10    1.01    0.93
 -20  -3  11   19.09    1.04
 -20  -3  12    0.48    0.86
 -19  -3  -6   12.57    0.89
 -19  -3  -5    1.43    0.65
 -19  -3  -4   12.38    0.87
 -19  -3  -3   14.63    0.87
 -19  -3  -2    5.78    0.78
 -19  -3  -1    0.44    0.80
 -19  -3   0   43.80    1.46
 -19  -3   1    7.02    0.93
 -19  -3   2   21.04    1.14
 -19  -3   3    0.97    0.82
 -19  -3   4   18.39    1.00
 -19  -3   5    0.50    0.69
 -19  -3   6    0.54    0.59
 -19  -3   7    2.96    0.77
 -19  -3   8   33.25    1.16
 -19  -3   9    0.35    0.65
 -19  -3  10    1.17    1.01
 -19  -3  11    4.84    0.83
 -19  -3  12    1.15    0.97
 -19  -3  13    2.94    0.73
 -19  -3  14   15.05    0.92
 -19  -3  15    1.59    1.06
 -18  -3  -9   22.58    1.62
 -18  -3  -8    4.74    0.70
 -18  -3  -7   23.45    1.03
 -18  -3  -6    1.65    0.60
 -18  -3  -5    6.67    0.74
 -18  -3  -4   24.58    1.04
 -18  -3  -3    0.77    0.60
 -18  -3  -2   -0.12    0.56
 -18  -3  -1   27.14    1.17
 -18  -3   0    0.07    0.62
 -18  -3   1   22.41    0.99
 -18  -3   2    5.67    0.66
 -18  -3   3    9.62    0.85
 -18  -3   4    5.00    0.62
 -18  -3   5    7.77    0.88
 -18  -3   6    5.19    0.71
 -18  -3   7    1.46    0.88
 -18  -3   8    3.63    0.73
 -18  -3   9   11.94    0.84
 -18  -3  10    6.33    0.84
 -18  -3  11    0.36    0.67
 -18  -3  12    6.45    0.82
 -18  -3  13    7.58    0.84
 -18  -3  14    1.48    0.67
 -18  -3  15   16.67    1.14
 -18  -3  16    5.62    0.86
 -18  -3  17    1.15    0.79
 -17  -3 -10   24.73    1.07
 -17  -3  -9   12.02    1.02
 -17  -3  -8   34.49    1.17
 -17  -3  -7   45.97    1.31
 -17  -3  -6    0.94    0.59
 -17  -3  -5   18.25    0.92
 -17  -3  -4    0.08    0.58
 -17  -3  -3    6.13    0.63
 -17  -3  -2   39.44    1.41
 -17  -3  -1    9.16    0.70
 -17  -3   0    7.93    0.77
 -17  -3   1    6.32    0.62
 -17  -3   2    0.35    0.64
 -17  -3   3    0.30    0.58
 -17  -3   4   34.94    1.36
 -17  -3   5   11.59    0.79
 -17  -3   6   36.54    1.46
 -17  -3   7   -0.89    0.78
 -17  -3   8    0.13    0.60
 -17  -3   9   13.42    0.81
 -17  -3  10    3.56    0.76
 -17  -3  11    0.34    0.65
 -17  -3  12   49.10    1.74
 -17  -3  13    0.69    0.81
 -17  -3  14   29.36    1.28
 -17  -3  15   16.72    1.09
 -17  -3  16    0.43    0.80
 -17  -3  17    0.08    0.66
 -17  -3  18   13.91    1.10
 -16  -3 -12    4.62    0.64
 -16  -3 -11   20.79    1.02
 -16  -3 -10    4.32    0.74
 -16  -3  -9    8.85    0.73
 -16  -3  -8    8.36    0.79
 -16  -3  -7    9.94    0.74
 -16  -3  -6    7.74    0.70
 -16  -3  -5   16.99    0.91
 -16  -3  -4    7.67    0.73
 -16  -3  -3   35.94    1.13
 -16  -3  -2    0.62    0.49
 -16  -3  -1    7.76    0.78
 -16  -3   0   23.52    1.09
 -16  -3   1  170.67    4.12
 -16  -3   2    1.66    0.58
 -16  -3   3   13.43    0.83
 -16  -3   4    1.17    0.70
 -16  -3   5    1.13    0.63
 -16  -3   6    4.82    0.68
 -16  -3   7   11.01    0.89
 -16  -3   8   43.34    1.43
 -16  -3   9    1.46    0.73
 -16  -3  10    0.23    0.79
 -16  -3  11    7.98    0.76
 -16  -3  12    0.81    0.65
 -16  -3  13    3.79    0.93
 -16  -3  14   26.16    1.09
 -16  -3  15    8.43    0.82
 -16  -3  16   10.32    1.16
 -16  -3  17   12.97    1.03
 -16  -3  18    2.69    0.77
 -16  -3  19    0.27    0.80
 -15  -3 -14    0.23    1.77
 -15  -3 -13    0.42    0.65
 -15  -3 -12   12.24    0.74
 -15  -3 -11    0.63    0.54
 -15  -3 -10    4.10    0.66
 -15  -3  -9   12.76    0.79
 -15  -3  -8    6.77    0.70
 -15  -3  -7   30.75    1.08
 -15  -3  -6   21.84    0.98
 -15  -3  -5    5.92    0.63
 -15  -3  -4  226.20    4.91
 -15  -3  -3   14.20    0.79
 -15  -3  -2    0.30    0.66
 -15  -3  -1   19.95    0.85
 -15  -3   0   40.66    1.31
 -15  -3   1   60.69    1.83
 -15  -3   2   14.39    0.85
 -15  -3   3    1.12    0.68
 -15  -3   4   21.76    1.09
 -15  -3   5   -0.01    0.76
 -15  -3   6    9.74    0.82
 -15  -3   7    1.61    0.75
 -15  -3   8    4.25    0.64
 -15  -3   9   47.02    1.56
 -15  -3  10   50.17    1.69
 -15  -3  11   36.09    1.46
 -15  -3  12   14.33    0.94
 -15  -3  13   14.56    0.94
 -15  -3  14   59.26    1.76
 -15  -3  15    2.35    0.76
 -15  -3  16   73.47    2.07
 -15  -3  17   21.50    1.36
 -15  -3  18    3.93    0.75
 -15  -3  19    2.48    0.69
 -15  -3  20    1.97    0.86
 -14  -3 -15   11.70    0.82
 -14  -3 -14    0.50    0.67
 -14  -3 -13   22.19    1.01
 -14  -3 -12    3.64    0.57
 -14  -3 -11    2.70    0.64
 -14  -3 -10    1.94    0.56
 -14  -3  -9    6.03    0.58
 -14  -3  -8   24.32    1.09
 -14  -3  -7   48.16    1.35
 -14  -3  -6    0.63    0.50
 -14  -3  -5   47.41    1.42
 -14  -3  -4    0.57    0.43
 -14  -3  -3   12.28    0.73
 -14  -3  -2    0.79    0.48
 -14  -3  -1   20.30    0.94
 -14  -3   0   44.21    1.38
 -14  -3   1   14.84    0.77
 -14  -3   2   51.38    1.53
 -14  -3   3  123.14    3.10
 -14  -3   4   80.89    2.18
 -14  -3   5   60.41    1.86
 -14  -3   6    2.23    0.65
 -14  -3   7   11.12    0.89
 -14  -3   8   25.20    1.16
 -14  -3   9  149.93    3.56
 -14  -3  10  199.93    4.48
 -14  -3  11   14.15    1.01
 -14  -3  12    5.57    0.69
 -14  -3  13   26.12    1.23
 -14  -3  14    1.90    0.65
 -14  -3  15   39.91    1.56
 -14  -3  16    6.18    0.75
 -14  -3  17    0.89    0.73
 -14  -3  18    2.52    0.86
 -14  -3  19    0.91    0.61
 -14  -3  20    1.71    0.65
 -14  -3  21    1.59    0.74
 -13  -3 -16   12.96    0.76
 -13  -3 -15    3.67    0.66
 -13  -3 -14    8.92    0.78
 -13  -3 -13    0.80    0.57
 -13  -3 -12   46.74    1.43
 -13  -3 -11   27.09    1.09
 -13  -3 -10   89.49    2.33
 -13  -3  -9   20.05    0.82
 -13  -3  -8    0.74    0.58
 -13  -3  -7   12.02    0.72
 -13  -3  -6   39.05    1.15
 -13  -3  -5   77.31    2.00
 -13  -3  -4  242.93    5.02
 -13  -3  -3    5.71    0.54
 -13  -3  -2   15.45    0.91
 -13  -3  -1   20.06    0.94
 -13  -3   0    0.77    0.47
 -13  -3   1    7.80    0.60
 -13  -3   2  165.31    3.92
 -13  -3   3   26.05    1.13
 -13  -3   4   35.51    1.23
 -13  -3   5  108.07    2.59
 -13  -3   6   11.40    0.80
 -13  -3   7    3.00    0.60
 -13  -3   8    6.88    0.75
 -13  -3   9   32.97    1.22
 -13  -3  10    7.92    0.76
 -13  -3  11    9.01    0.72
 -13  -3  12  140.18    3.34
 -13  -3  13  106.75    2.64
 -13  -3  14   27.14    1.35
 -13  -3  15    0.73    0.60
 -13  -3  16    4.25    0.75
 -13  -3  17    0.62    0.60
 -13  -3  18   65.18    2.32
 -13  -3  19    7.05    0.97
 -13  -3  20    3.59    0.68
 -13  -3  21    1.89    0.68
 -13  -3  22    0.57    0.73
 -12  -3 -17   11.61    0.95
 -12  -3 -16    2.14    0.66
 -12  -3 -15    0.48    0.46
 -12  -3 -14    1.91    0.52
 -12  -3 -13   47.91    1.56
 -12  -3 -12   19.80    0.81
 -12  -3 -11  113.40    2.72
 -12  -3 -10   39.00    1.39
 -12  -3  -9    3.45    0.51
 -12  -3  -8   25.34    0.97
 -12  -3  -7    3.09    0.46
 -12  -3  -6    1.95    0.44
 -12  -3  -5  133.49    3.08
 -12  -3  -4   60.33    1.62
 -12  -3  -3  128.15    3.22
 -12  -3  -2   31.10    1.11
 -12  -3  -1   33.83    1.18
 -12  -3   0  173.43    4.13
 -12  -3   1   10.86    0.71
 -12  -3   2   65.13    1.80
 -12  -3   3   10.61    0.75
 -12  -3   4   25.20    1.08
 -12  -3   5   22.57    0.98
 -12  -3   6  262.71    5.38
 -12  -3   7   10.53    0.78
 -12  -3   8    7.11    0.68
 -12  -3   9   24.95    1.00
 -12  -3  10   33.82    1.53
 -12  -3  11    5.41    0.69
 -12  -3  12    8.76    0.72
 -12  -3  13    8.66    0.75
 -12  -3  14    5.48    0.73
 -12  -3  15    8.92    0.73
 -12  -3  16   27.31    1.12
 -12  -3  17   55.52    1.62
 -12  -3  18    1.11    0.92
 -12  -3  19    0.06    0.78
 -12  -3  20   13.20    0.98
 -12  -3  21    7.23    1.00
 -12  -3  22   -0.27    0.69
 -11  -3 -18    4.49    0.71
 -11  -3 -17    2.44    0.59
 -11  -3 -16    3.26    0.55
 -11  -3 -15    0.51    0.56
 -11  -3 -14   68.58    1.99
 -11  -3 -13    0.00    0.45
 -11  -3 -12   17.69    0.91
 -11  -3 -11   43.33    1.38
 -11  -3 -10    0.60    0.41
 -11  -3  -9    1.71    0.41
 -11  -3  -8    1.74    0.41
 -11  -3  -7    6.32    0.53
 -11  -3  -6   12.91    0.73
 -11  -3  -5   25.06    0.88
 -11  -3  -4    3.70    0.44
 -11  -3  -3   30.07    1.01
 -11  -3  -2  111.87    2.57
 -11  -3  -1    2.27    0.46
 -11  -3   0   28.78    1.01
 -11  -3   1    3.40    0.46
 -11  -3   2   69.83    1.96
 -11  -3   3  376.28    7.66
 -11  -3   4   22.21    0.92
 -11  -3   5   -0.21    0.49
 -11  -3   6    1.32    0.60
 -11  -3   7    9.47    0.81
 -11  -3   8  174.65    4.04
 -11  -3   9  145.65    3.37
 -11  -3  10    1.63    0.54
 -11  -3  11    1.93    0.53
 -11  -3  12   32.82    1.25
 -11  -3  13    2.42    0.58
 -11  -3  14   58.72    1.60
 -11  -3  15   90.11    2.25
 -11  -3  16   26.67    1.21
 -11  -3  17  109.07    2.55
 -11  -3  18    4.11    0.78
 -11  -3  19   14.52    0.97
 -11  -3  20   58.85    1.87
 -11  -3  21    0.18    0.68
 -11  -3  22    1.35    0.67
 -11  -3  23    5.62    0.82
 -10  -3 -19    4.50    0.74
 -10  -3 -18    7.52    0.80
 -10  -3 -17   17.93    0.97
 -10  -3 -16   13.76    0.89
 -10  -3 -15   32.75    1.17
 -10  -3 -14   10.82    0.64
 -10  -3 -13    1.90    0.47
 -10  -3 -12   56.90    1.88
 -10  -3 -11   41.21    1.25
 -10  -3 -10    1.29    0.40
 -10  -3  -9   12.84    0.69
 -10  -3  -8    0.17    0.46
 -10  -3  -7   70.25    1.74
 -10  -3  -6  135.21    3.23
 -10  -3  -5   25.51    0.86
 -10  -3  -4    6.18    0.52
 -10  -3  -3  278.12    5.97
 -10  -3  -2    5.33    0.61
 -10  -3  -1   86.50    2.11
 -10  -3   0   31.79    1.13
 -10  -3   1   30.72    1.04
 -10  -3   2  182.23    4.33
 -10  -3   3  150.07    3.42
 -10  -3   4    2.41    0.42
 -10  -3   5   62.82    1.62
 -10  -3   6    6.63    0.54
 -10  -3   7  419.25    8.80
 -10  -3   8   77.59    2.30
 -10  -3   9   96.55    2.35
 -10  -3  10   73.99    2.09
 -10  -3  11   63.62    1.74
 -10  -3  12   11.12    0.85
 -10  -3  13  264.52    5.67
 -10  -3  14    9.09    0.75
 -10  -3  15   15.39    0.95
 -10  -3  16   98.38    2.43
 -10  -3  17   10.94    0.86
 -10  -3  18    1.99    0.74
 -10  -3  19  171.34    3.59
 -10  -3  20    1.11    0.68
 -10  -3  21    0.39    0.65
 -10  -3  22    0.28    0.74
 -10  -3  23    0.36    0.62
  -9  -3 -20    0.46    0.64
  -9  -3 -19    1.77    0.61
  -9  -3 -18   18.49    0.96
  -9  -3 -17    0.11    0.48
  -9  -3 -16   21.97    0.90
  -9  -3 -15   50.71    1.54
  -9  -3 -14    3.49    0.50
  -9  -3 -13   63.09    1.87
  -9  -3 -12   75.39    1.97
  -9  -3 -11   -0.07    0.38
  -9  -3 -10    2.69    0.50
  -9  -3  -9    3.97    0.53
  -9  -3  -8   97.26    2.60
  -9  -3  -7  214.59    4.39
  -9  -3  -6    2.79    0.43
  -9  -3  -5   55.78    1.56
  -9  -3  -4  221.71    4.62
  -9  -3  -3    6.91    0.49
  -9  -3  -2   85.32    2.12
  -9  -3  -1   88.43    2.26
  -9  -3   0   42.62    1.22
  -9  -3   1  439.53    8.92
  -9  -3   2   25.09    0.96
  -9  -3   3  183.31    4.28
  -9  -3   4    0.56    0.61
  -9  -3   5    0.94    0.66
  -9  -3   6    6.80    0.64
  -9  -3   7  215.73    4.96
  -9  -3   8  231.57    5.25
  -9  -3   9   34.21    1.22
  -9  -3  10   55.95    1.76
  -9  -3  11    1.36    0.63
  -9  -3  12   47.53    1.50
  -9  -3  13   23.63    0.90
  -9  -3  14    0.36    0.66
  -9  -3  15  106.47    2.80
  -9  -3  16   87.22    2.29
  -9  -3  17    0.58    0.73
  -9  -3  18   91.81    2.60
  -9  -3  19    3.41    0.83
  -9  -3  20   11.90    0.85
  -9  -3  21   10.76    0.92
  -9  -3  22    1.92    0.67
  -9  -3  23   17.43    0.90
  -9  -3  24   18.27    1.26
  -8  -3 -20    1.50    0.51
  -8  -3 -19   51.44    1.42
  -8  -3 -18   17.64    0.85
  -8  -3 -17    1.19    0.45
  -8  -3 -16   19.75    0.84
  -8  -3 -15    0.62    0.45
  -8  -3 -14   57.32    1.57
  -8  -3 -13   51.12    1.54
  -8  -3 -12   18.03    0.79
  -8  -3 -11   65.32    1.75
  -8  -3 -10  155.96    3.48
  -8  -3  -9   27.35    0.85
  -8  -3  -8  132.88    2.88
  -8  -3  -7    0.39    0.32
  -8  -3  -6    3.76    0.42
  -8  -3  -5   16.72    0.69
  -8  -3  -4   17.54    0.72
  -8  -3  -3  105.83    2.46
  -8  -3  -2  118.15    2.84
  -8  -3  -1   13.88    0.67
  -8  -3   0   44.10    1.39
  -8  -3   1    0.90    0.55
  -8  -3   2   13.08    0.66
  -8  -3   3  198.74    4.42
  -8  -3   4    1.27    0.43
  -8  -3   5  606.87   11.92
  -8  -3   6   14.42    0.71
  -8  -3   7    1.10    0.54
  -8  -3   8  121.69    2.79
  -8  -3   9  148.09    3.47
  -8  -3  10  383.28    8.46
  -8  -3  11  157.24    3.59
  -8  -3  12   62.69    1.68
  -8  -3  13    1.08    0.72
  -8  -3  14   91.37    2.54
  -8  -3  15   89.52    2.33
  -8  -3  16   12.51    0.89
  -8  -3  17    5.62    0.87
  -8  -3  18    7.26    0.82
  -8  -3  19    7.36    0.77
  -8  -3  20   48.34    1.53
  -8  -3  21    6.25    0.78
  -8  -3  22    7.11    0.67
  -8  -3  23    4.51    0.76
  -8  -3  24    1.43    0.82
  -7  -3 -21    2.52    0.67
  -7  -3 -20   20.78    0.95
  -7  -3 -19    2.91    0.57
  -7  -3 -18   13.38    0.75
  -7  -3 -17    2.91    0.45
  -7  -3 -16    4.43    0.42
  -7  -3 -15   21.59    0.89
  -7  -3 -14   39.79    1.22
  -7  -3 -13  103.75    2.45
  -7  -3 -12    2.10    0.41
  -7  -3 -11   90.59    2.10
  -7  -3 -10   36.48    1.09
  -7  -3  -9   39.92    1.06
  -7  -3  -8  119.04    2.74
  -7  -3  -7  284.06    5.82
  -7  -3  -6   76.02    1.88
  -7  -3  -5   55.08    1.43
  -7  -3  -4  152.71    3.52
  -7  -3  -3  405.21    8.10
  -7  -3  -2  442.87    8.65
  -7  -3  -1   83.69    2.03
  -7  -3   0  429.39    8.24
  -7  -3   1  644.05   12.09
  -7  -3   2  347.77    7.32
  -7  -3   3   74.88    2.27
  -7  -3   4   55.05    1.61
  -7  -3   5   20.09    0.78
  -7  -3   6   91.76    2.54
  -7  -3   7    5.31    0.56
  -7  -3   8  258.57    5.54
  -7  -3   9   44.12    1.28
  -7  -3  10  153.78    3.59
  -7  -3  11    5.71    0.66
  -7  -3  12   28.92    1.01
  -7  -3  13   -0.10    0.55
  -7  -3  14  194.19    4.34
  -7  -3  15    5.36    0.65
  -7  -3  16    0.60    0.55
  -7  -3  17    1.71    0.76
  -7  -3  18   29.22    1.21
  -7  -3  19  112.93    2.55
  -7  -3  20   16.23    1.06
  -7  -3  21    4.26    0.61
  -7  -3  22    8.97    0.79
  -7  -3  23   33.24    1.60
  -7  -3  24    0.25    0.62
  -6  -3 -22    9.63    0.77
  -6  -3 -21    2.75    0.64
  -6  -3 -20   11.88    0.71
  -6  -3 -19   24.00    1.04
  -6  -3 -18    0.78    0.46
  -6  -3 -17   45.58    1.38
  -6  -3 -16   10.10    0.59
  -6  -3 -15   91.00    2.08
  -6  -3 -14   93.99    2.30
  -6  -3 -13   24.09    0.92
  -6  -3 -12  206.00    4.10
  -6  -3 -11  124.17    2.89
  -6  -3 -10    2.20    0.36
  -6  -3  -9   19.41    0.68
  -6  -3  -8   51.86    1.37
  -6  -3  -7    5.33    0.34
  -6  -3  -6  288.96    5.74
  -6  -3  -5  221.65    4.50
  -6  -3  -4  135.30    3.05
  -6  -3  -3  540.51   10.11
  -6  -3  -2   12.74    0.66
  -6  -3  -1  198.20    4.15
  -6  -3   0  480.60    8.98
  -6  -3   1  182.07    4.33
  -6  -3   2  128.32    3.17
  -6  -3   3    9.63    0.61
  -6  -3   4  284.35    6.29
  -6  -3   5  460.89    9.34
  -6  -3   6   11.60    0.65
  -6  -3   7    4.46    0.60
  -6  -3   8   19.72    0.90
  -6  -3   9   81.48    2.31
  -6  -3  10   47.60    1.49
  -6  -3  11   34.89    1.16
  -6  -3  12    1.93    0.53
  -6  -3  13    5.56    0.57
  -6  -3  14   41.60    1.39
  -6  -3  15    9.16    0.72
  -6  -3  16   16.01    0.88
  -6  -3  17   53.46    1.68
  -6  -3  18   97.64    2.44
  -6  -3  19    4.78    0.74
  -6  -3  20    0.26    0.69
  -6  -3  21    0.19    0.59
  -6  -3  22   25.85    1.25
  -6  -3  23   14.63    1.05
  -6  -3  24    0.26    0.66
  -5  -3 -22    0.93    0.53
  -5  -3 -21   24.42    0.98
  -5  -3 -20    9.55    0.70
  -5  -3 -19    2.45    0.60
  -5  -3 -18   17.69    0.87
  -5  -3 -17    8.59    0.63
  -5  -3 -16   45.71    1.52
  -5  -3 -15   18.08    0.79
  -5  -3 -14    4.82    0.45
  -5  -3 -13   81.18    1.93
  -5  -3 -12   34.79    1.04
  -5  -3 -11   41.11    1.22
  -5  -3 -10    4.19    0.35
  -5  -3  -9    2.36    0.30
  -5  -3  -8  186.85    3.97
  -5  -3  -7   54.15    1.28
  -5  -3  -6  235.94    4.64
  -5  -3  -5   92.96    2.16
  -5  -3  -4    9.69    0.50
  -5  -3  -3  121.97    2.72
  -5  -3  -2  212.20    4.39
  -5  -3  -1  287.47    5.53
  -5  -3   0   57.87    1.60
  -5  -3   1    9.51    0.57
  -5  -3   2    5.02    0.51
  -5  -3   3  332.70    6.67
  -5  -3   4  573.34   10.96
  -5  -3   5 1110.22   18.92
  -5  -3   6    5.09    0.51
  -5  -3   7    9.15    0.66
  -5  -3   8   42.78    1.66
  -5  -3   9  129.16    3.01
  -5  -3  10   56.23    1.68
  -5  -3  11  102.35    2.76
  -5  -3  12    0.50    0.52
  -5  -3  13   30.64    1.17
  -5  -3  14   75.39    2.14
  -5  -3  15   17.78    0.93
  -5  -3  16  311.31    6.14
  -5  -3  17   18.62    0.90
  -5  -3  18   12.65    0.82
  -5  -3  19   29.18    1.26
  -5  -3  20   -0.14    0.66
  -5  -3  21   20.39    0.97
  -5  -3  22   85.46    2.31
  -5  -3  23    3.06    0.70
  -5  -3  24   15.53    0.95
  -4  -3 -23    0.05    0.64
  -4  -3 -22   17.85    0.95
  -4  -3 -21   16.60    0.80
  -4  -3 -20   -0.38    0.46
  -4  -3 -19   68.07    2.00
  -4  -3 -18   34.43    1.14
  -4  -3 -17   43.52    1.29
  -4  -3 -16   16.70    0.70
  -4  -3 -15  109.01    2.51
  -4  -3 -14    2.26    0.38
  -4  -3 -13   54.39    1.40
  -4  -3 -12    3.98    0.41
  -4  -3 -11  169.32    3.51
  -4  -3 -10  389.55    7.20
  -4  -3  -9   80.03    1.95
  -4  -3  -8   43.17    1.06
  -4  -3  -7   12.16    0.45
  -4  -3  -6    0.65    0.25
  -4  -3  -5  138.83    2.96
  -4  -3  -4  158.86    3.17
  -4  -3  -3  247.12    4.75
  -4  -3  -2  210.38    4.28
  -4  -3  -1  843.95   14.96
  -4  -3   0   59.82    1.45
  -4  -3   2   36.36    1.15
  -4  -3   3  180.66    4.02
  -4  -3   4  507.29    9.93
  -4  -3   5  111.41    2.96
  -4  -3   6   91.91    2.39
  -4  -3   7   85.14    2.34
  -4  -3   8   83.26    2.16
  -4  -3   9  507.11   10.13
  -4  -3  10    1.35    0.54
  -4  -3  11  430.74    8.69
  -4  -3  12  133.12    3.21
  -4  -3  13  152.25    3.67
  -4  -3  14   97.38    2.48
  -4  -3  15  255.71    5.36
  -4  -3  16    2.78    0.64
  -4  -3  17   19.79    0.93
  -4  -3  18   32.17    1.14
  -4  -3  19    0.93    0.63
  -4  -3  20    9.58    0.81
  -4  -3  21   30.27    1.08
  -4  -3  22    1.90    0.72
  -4  -3  23    9.07    0.80
  -4  -3  24    0.31    0.64
  -4  -3  25    4.87    1.10
  -3  -3 -23    0.54    0.58
  -3  -3 -22   20.25    1.08
  -3  -3 -21    5.02    0.65
  -3  -3 -20   56.63    1.63
  -3  -3 -19   28.37    0.96
  -3  -3 -18   37.28    1.21
  -3  -3 -17    3.50    0.52
  -3  -3 -16  119.59    2.96
  -3  -3 -15    1.24    0.42
  -3  -3 -14  371.43    6.91
  -3  -3 -13    0.86    0.28
  -3  -3 -12    1.67    0.31
  -3  -3 -11   73.70    1.76
  -3  -3 -10  154.25    3.16
  -3  -3  -9   14.03    0.50
  -3  -3  -8    5.80    0.35
  -3  -3  -7   32.36    0.91
  -3  -3  -6   98.82    2.03
  -3  -3  -5   33.08    0.84
  -3  -3  -4  336.46    5.87
  -3  -3  -3   21.51    0.60
  -3  -3   0  635.94   11.33
  -3  -3   1 1200.42   42.20
  -3  -3   2  300.06    6.27
  -3  -3   3    2.61    0.45
  -3  -3   4    0.93    0.41
  -3  -3   5  313.13    6.64
  -3  -3   6    1.55    0.51
  -3  -3   7    0.85    0.45
  -3  -3   8   10.97    0.61
  -3  -3   9  408.84    8.20
  -3  -3  10   19.02    0.78
  -3  -3  11   12.21    0.67
  -3  -3  12  139.02    3.36
  -3  -3  13   10.47    0.71
  -3  -3  14  117.83    3.07
  -3  -3  15   52.63    1.50
  -3  -3  16   63.79    2.02
  -3  -3  17    2.53    0.53
  -3  -3  18   53.21    1.69
  -3  -3  19    5.35    0.78
  -3  -3  20    1.05    0.57
  -3  -3  21   23.99    1.13
  -3  -3  22   -0.16    0.61
  -3  -3  23    7.13    0.81
  -3  -3  24    3.27    0.71
  -2  -3 -23    8.38    0.75
  -2  -3 -22   18.15    1.00
  -2  -3 -21    1.03    0.57
  -2  -3 -20  115.51    2.62
  -2  -3 -19    0.94    0.48
  -2  -3 -18    0.06    0.50
  -2  -3 -17   47.38    1.37
  -2  -3 -16   12.86    0.67
  -2  -3 -15    1.16    0.38
  -2  -3 -14  122.53    2.68
  -2  -3 -13  196.91    3.86
  -2  -3 -12  182.96    3.86
  -2  -3 -11  511.80    9.71
  -2  -3 -10    1.06    0.29
  -2  -3  -9   16.73    0.56
  -2  -3  -8    2.60    0.25
  -2  -3  -7   42.83    1.01
  -2  -3  -5  141.21    2.80
  -2  -3   0  860.87   29.89
  -2  -3   1   38.80    1.11
  -2  -3   2  258.91    5.45
  -2  -3   4 1637.90   55.27
  -2  -3   5   42.51    1.25
  -2  -3   6   58.26    1.68
  -2  -3   7    1.98    0.49
  -2  -3   8  406.72    7.88
  -2  -3   9  292.90    6.07
  -2  -3  10   60.33    1.71
  -2  -3  11  521.17   10.17
  -2  -3  12   68.42    1.91
  -2  -3  13  188.10    4.13
  -2  -3  14   41.44    1.19
  -2  -3  15  177.44    3.74
  -2  -3  16   91.62    2.29
  -2  -3  17  233.67    5.16
  -2  -3  18   26.68    1.18
  -2  -3  19   51.17    1.61
  -2  -3  20    1.06    0.58
  -2  -3  21   10.49    0.89
  -2  -3  22   15.32    0.84
  -2  -3  23   29.36    1.22
  -2  -3  24    0.50    0.58
  -1  -3 -24    5.27    0.65
  -1  -3 -23   12.80    0.86
  -1  -3 -22    3.85    0.62
  -1  -3 -21  139.76    2.95
  -1  -3 -20    1.44    0.54
  -1  -3 -19    4.08    0.57
  -1  -3 -18  117.00    2.54
  -1  -3 -17   13.80    0.70
  -1  -3 -16   13.77    0.58
  -1  -3 -15  139.83    3.14
  -1  -3 -14   29.56    0.94
  -1  -3 -13   11.55    0.61
  -1  -3 -12  181.54    3.86
  -1  -3 -11   13.76    0.55
  -1  -3 -10  331.06    6.23
  -1  -3  -9  137.96    2.87
  -1  -3  -8  110.88    2.47
  -1  -3  -7   77.52    1.69
  -1  -3  -6  127.41    2.51
  -1  -3  -1  708.29   23.00
  -1  -3   0   42.25    1.16
  -1  -3   2  214.20    4.22
  -1  -3   3  400.67    7.69
  -1  -3   4   40.32    1.14
  -1  -3   5  731.76   13.28
  -1  -3   6  579.89   10.85
  -1  -3   7  808.44   14.06
  -1  -3   8   83.97    2.08
  -1  -3   9    0.22    0.48
  -1  -3  10  188.55    3.99
  -1  -3  11    4.07    0.65
  -1  -3  12   74.16    1.74
  -1  -3  13  148.91    3.47
  -1  -3  14    2.86    0.54
  -1  -3  15   23.76    0.94
  -1  -3  16    1.82    0.60
  -1  -3  17   31.26    1.16
  -1  -3  18  114.21    2.95
  -1  -3  19    1.39    0.66
  -1  -3  20    4.67    0.66
  -1  -3  21   12.63    0.83
  -1  -3  22    3.12    0.66
  -1  -3  23    9.99    0.85
  -1  -3  24   11.42    0.92
   0  -3 -24    3.15    0.59
   0  -3 -23    0.79    0.62
   0  -3 -22    8.78    0.78
   0  -3 -21   16.14    0.82
   0  -3 -20    0.31    0.55
   0  -3 -19    5.17    0.59
   0  -3 -18    4.50    0.50
   0  -3 -17   56.34    1.56
   0  -3 -16    8.64    0.64
   0  -3 -15  165.20    3.68
   0  -3 -14    0.59    0.34
   0  -3 -13    9.37    0.58
   0  -3 -12    0.81    0.41
   0  -3 -11   76.47    1.83
   0  -3 -10  133.51    2.97
   0  -3  -9  139.57    3.30
   0  -3  -8   62.83    1.59
   0  -3  -7  205.78    3.82
   0  -3  -6  264.05    4.98
   0  -3  -5   34.90    0.91
   0  -3  -4  150.78    3.03
   0  -3  -3   50.71    1.08
   0  -3  -2   54.27    1.17
   0  -3  -1  117.67    2.42
   0  -3   0    0.30    0.21
   0  -3   1  112.94    2.49
   0  -3   2   52.31    1.40
   0  -3   3   47.12    1.24
   0  -3   4  139.66    2.99
   0  -3   5   33.42    0.99
   0  -3   6  251.72    5.35
   0  -3   7  193.44    4.33
   0  -3   8   61.16    1.58
   0  -3   9  141.10    3.28
   0  -3  10  134.76    3.21
   0  -3  11   76.55    2.14
   0  -3  12    0.35    0.42
   0  -3  13    9.00    0.58
   0  -3  14    0.56    0.66
   0  -3  15  174.31    3.92
   0  -3  16    9.90    0.65
   0  -3  17   60.19    1.87
   0  -3  18    5.20    0.62
   0  -3  19    5.15    0.79
   0  -3  20    0.57    0.56
   0  -3  21   17.89    1.02
   0  -3  22    8.77    0.74
   0  -3  23    1.69    0.58
   0  -3  24    2.75    0.72
   1  -3 -24   11.14    0.87
   1  -3 -23    8.91    0.75
   1  -3 -22    2.53    0.68
   1  -3 -21   11.06    0.70
   1  -3 -20    3.84    0.61
   1  -3 -19    0.66    0.56
   1  -3 -18  107.47    2.44
   1  -3 -17   30.76    1.09
   1  -3 -16    2.09    0.51
   1  -3 -15   22.82    0.89
   1  -3 -14    2.19    0.48
   1  -3 -13  143.82    3.48
   1  -3 -12   71.79    1.83
   1  -3 -11    4.15    0.44
   1  -3 -10  184.50    3.78
   1  -3  -9   -0.09    0.39
   1  -3  -8   81.97    2.04
   1  -3  -7  819.33   14.32
   1  -3  -6  605.83   11.44
   1  -3  -5  756.31   15.64
   1  -3  -4   41.57    1.16
   1  -3  -3  411.07    7.98
   1  -3  -2  214.57    4.27
   1  -3   0   42.43    1.08
   1  -3   1  687.22   11.71
   1  -3   2  197.43    4.18
   1  -3   3   28.94    0.91
   1  -3   4  406.78    7.62
   1  -3   5 1495.21   28.91
   1  -3   6  130.77    2.86
   1  -3   7   77.61    1.90
   1  -3   8  111.10    2.65
   1  -3   9  138.18    3.04
   1  -3  10  332.27    6.73
   1  -3  11   14.34    0.71
   1  -3  12  185.74    4.00
   1  -3  13   11.62    0.70
   1  -3  14   31.71    1.09
   1  -3  15  146.62    3.29
   1  -3  16   14.49    0.90
   1  -3  17   15.40    0.75
   1  -3  18  125.10    2.93
   1  -3  19    4.24    0.69
   1  -3  20    1.27    0.54
   1  -3  21  151.77    3.10
   1  -3  22    4.09    0.70
   1  -3  23   12.59    0.86
   1  -3  24    6.11    0.75
   2  -3 -24    0.25    0.67
   2  -3 -23   27.98    1.15
   2  -3 -22   15.53    0.83
   2  -3 -21   11.12    0.75
   2  -3 -20    1.31    0.64
   2  -3 -19   49.19    1.55
   2  -3 -18   24.55    0.90
   2  -3 -17  224.51    4.59
   2  -3 -16   90.30    2.17
   2  -3 -15  173.02    3.63
   2  -3 -14   40.34    1.17
   2  -3 -13  180.65    3.87
   2  -3 -12   65.98    1.66
   2  -3 -11  524.54    9.88
   2  -3 -10   59.36    1.54
   2  -3  -9  290.13    6.26
   2  -3  -8  410.85    7.81
   2  -3  -7    2.20    0.34
   2  -3  -6   57.15    1.66
   2  -3  -5   40.21    1.12
   2  -3  -2  256.40    5.11
   2  -3  -1   38.47    1.10
   2  -3   0  817.99   15.03
   2  -3   2 1029.16   17.62
   2  -3   3 1222.19   20.91
   2  -3   4  571.66   10.74
   2  -3   5  129.35    2.80
   2  -3   6  999.79   17.42
   2  -3   7   40.72    1.26
   2  -3   8    2.69    0.48
   2  -3   9   16.43    0.77
   2  -3  10    1.18    0.50
   2  -3  11  521.62    9.95
   2  -3  12  187.75    4.35
   2  -3  13  201.63    4.44
   2  -3  14  130.85    3.24
   2  -3  15    0.71    0.52
   2  -3  16   13.61    0.90
   2  -3  17   48.82    1.48
   2  -3  18   -0.38    0.50
   2  -3  19    1.44    0.66
   2  -3  20  122.63    3.14
   2  -3  21    1.44    0.61
   2  -3  22   18.95    0.95
   2  -3  23    7.28    0.70
   3  -3 -24    2.18    0.67
   3  -3 -23    7.18    0.71
   3  -3 -22   -0.11    0.57
   3  -3 -21   23.83    1.01
   3  -3 -20    1.03    0.56
   3  -3 -19    5.77    0.64
   3  -3 -18   50.10    1.47
   3  -3 -17    2.77    0.49
   3  -3 -16   58.83    1.60
   3  -3 -15   51.80    1.43
   3  -3 -14  117.35    2.73
   3  -3 -13    9.82    0.65
   3  -3 -12  135.40    3.05
   3  -3 -11   11.94    0.58
   3  -3 -10   17.96    0.81
   3  -3  -9  391.51    7.69
   3  -3  -8   11.77    0.61
   3  -3  -7    0.29    0.40
   3  -3  -6    2.10    0.42
   3  -3  -5  316.82    6.25
   3  -3  -4    0.38    0.41
   3  -3  -3    3.77    0.55
   3  -3  -2  302.16    6.14
   3  -3  -1 1195.15   20.25
   3  -3   0  637.26   11.36
   3  -3   3   19.73    0.85
   3  -3   4  319.52    6.33
   3  -3   5   32.94    1.09
   3  -3   6   98.63    2.37
   3  -3   7   31.15    0.99
   3  -3   8    4.95    0.63
   3  -3   9   14.91    0.71
   3  -3  10  162.50    3.58
   3  -3  11   77.51    1.92
   3  -3  12    1.70    0.45
   3  -3  13    0.01    0.44
   3  -3  14  379.71    7.31
   3  -3  15    1.40    0.58
   3  -3  16  123.56    2.97
   3  -3  17    3.44    0.57
   3  -3  18   38.54    1.32
   3  -3  19   29.48    1.10
   3  -3  20   61.13    1.75
   3  -3  21    4.94    0.72
   3  -3  22   20.52    1.02
   3  -3  23    1.12    0.64
   4  -3 -24    1.09    0.67
   4  -3 -23   10.05    0.72
   4  -3 -22    2.43    0.58
   4  -3 -21   29.91    1.14
   4  -3 -20   10.00    0.69
   4  -3 -19    0.03    0.51
   4  -3 -18   33.30    1.14
   4  -3 -17   18.33    0.81
   4  -3 -16    2.98    0.48
   4  -3 -15  248.95    5.30
   4  -3 -14   97.06    2.41
   4  -3 -13  146.67    3.56
   4  -3 -12  130.59    3.02
   4  -3 -11  415.05    8.17
   4  -3 -10    1.65    0.40
   4  -3  -9  490.11   10.08
   4  -3  -8   81.55    2.23
   4  -3  -7   82.79    2.22
   4  -3  -6   92.44    2.29
   4  -3  -5  107.45    2.78
   4  -3  -4  515.94    9.88
   4  -3  -3  178.79    4.29
   4  -3  -2   38.60    1.29
   4  -3  -1 2135.57   49.45
   4  -3   0   64.04    1.73
   4  -3   1  836.86   14.80
   4  -3   2  204.06    4.30
   4  -3   3  242.62    5.16
   4  -3   4  161.82    3.76
   4  -3   5  134.27    2.89
   4  -3   6   -0.14    0.41
   4  -3   7   12.54    0.71
   4  -3   8   43.25    1.35
   4  -3   9   81.83    2.12
   4  -3  10  397.23    7.91
   4  -3  11  169.93    3.98
   4  -3  12    4.66    0.58
   4  -3  13   58.06    1.80
   4  -3  14    2.48    0.65
   4  -3  15  110.92    2.64
   4  -3  16   17.10    0.82
   4  -3  17   44.28    1.29
   4  -3  18   36.73    1.12
   4  -3  19   67.86    1.76
   4  -3  20   -0.59    0.77
   4  -3  21   16.95    0.96
   4  -3  22   17.50    0.88
   4  -3  23    0.34    0.62
   5  -3 -24   14.98    0.84
   5  -3 -23    2.46    0.74
   5  -3 -22   82.24    2.24
   5  -3 -21   21.57    0.94
   5  -3 -20   -0.32    0.58
   5  -3 -19   26.22    1.06
   5  -3 -18   13.59    0.73
   5  -3 -17   18.65    0.83
   5  -3 -16  299.75    5.82
   5  -3 -15   17.37    0.83
   5  -3 -14   72.33    1.96
   5  -3 -13   30.11    1.06
   5  -3 -12    1.93    0.45
   5  -3 -11  101.13    2.43
   5  -3 -10   52.90    1.51
   5  -3  -9  128.46    2.86
   5  -3  -8   41.66    1.42
   5  -3  -7    9.01    0.58
   5  -3  -6    4.77    0.52
   5  -3  -5 1102.04   20.24
   5  -3  -4  563.83   10.64
   5  -3  -3  340.54    6.96
   5  -3  -2    3.87    0.46
   5  -3  -1    9.89    0.59
   5  -3   0   55.33    1.52
   5  -3   1  274.88    5.66
   5  -3   2  217.72    4.60
   5  -3   3  121.06    2.75
   5  -3   4    9.72    0.71
   5  -3   5   94.14    2.29
   5  -3   6  237.04    4.91
   5  -3   7   53.62    1.45
   5  -3   8  185.52    4.11
   5  -3   9    1.54    0.46
   5  -3  10    4.33    0.54
   5  -3  11   42.91    1.33
   5  -3  12   35.67    1.24
   5  -3  13   83.64    2.25
   5  -3  14    4.89    0.67
   5  -3  15   20.77    0.95
   5  -3  16   49.21    1.51
   5  -3  17    8.17    0.70
   5  -3  18   17.97    0.95
   5  -3  19    1.87    0.60
   5  -3  20   10.35    0.68
   5  -3  21   22.53    0.97
   5  -3  22    0.14    0.73
   6  -3 -24    0.37    0.65
   6  -3 -23   14.21    0.87
   6  -3 -22   23.43    1.01
   6  -3 -21    1.77    0.64
   6  -3 -20    0.36    0.55
   6  -3 -19    4.17    0.68
   6  -3 -18   91.72    2.53
   6  -3 -17   50.78    1.52
   6  -3 -16   16.57    0.78
   6  -3 -15    9.20    0.64
   6  -3 -14   39.27    1.41
   6  -3 -13    5.68    0.51
   6  -3 -12    1.94    0.57
   6  -3 -11   35.46    1.21
   6  -3 -10   48.40    1.52
   6  -3  -9   79.69    2.15
   6  -3  -8   19.32    0.76
   6  -3  -7    4.42    0.56
   6  -3  -6   11.23    0.71
   6  -3  -5  460.36    9.06
   6  -3  -4  274.54    5.77
   6  -3  -3    8.72    0.63
   6  -3  -2  132.81    3.37
   6  -3  -1  184.72    4.28
   6  -3   0  475.46    9.31
   6  -3   1  194.41    4.15
   6  -3   2   12.63    0.76
   6  -3   3  537.36   10.32
   6  -3   4  133.73    2.98
   6  -3   5  226.17    5.12
   6  -3   6  292.46    5.70
   6  -3   7    4.97    0.58
   6  -3   8   51.09    1.50
   6  -3   9   21.08    0.80
   6  -3  10    1.76    0.46
   6  -3  11  127.71    2.99
   6  -3  12  214.77    4.91
   6  -3  13   22.89    0.97
   6  -3  14   96.57    2.35
   6  -3  15   94.47    2.45
   6  -3  16   10.16    0.78
   6  -3  17   46.82    1.49
   6  -3  18    0.01    0.57
   6  -3  19   25.91    1.12
   6  -3  20   12.07    0.89
   6  -3  21    3.44    0.68
   6  -3  22    9.81    0.74
   7  -3 -24    0.31    0.59
   7  -3 -23   33.13    1.01
   7  -3 -22    7.37    0.67
   7  -3 -21    4.51    0.67
   7  -3 -20   16.19    0.84
   7  -3 -19  107.62    2.74
   7  -3 -18   28.94    1.09
   7  -3 -17    0.24    0.50
   7  -3 -16    0.48    0.50
   7  -3 -15    5.74    0.60
   7  -3 -14  188.62    4.27
   7  -3 -13    0.35    0.54
   7  -3 -12   28.88    1.06
   7  -3 -11    4.62    0.57
   7  -3 -10  152.34    3.49
   7  -3  -9   45.33    1.44
   7  -3  -8  260.20    5.52
   7  -3  -7    6.12    0.53
   7  -3  -6   89.70    2.31
   7  -3  -5   21.21    0.99
   7  -3  -4   53.40    1.55
   7  -3  -3   72.53    2.04
   7  -3  -2  339.84    6.95
   7  -3  -1  675.95   12.53
   7  -3   0  432.75    8.74
   7  -3   1   82.03    2.12
   7  -3   2  431.09    8.31
   7  -3   3  401.40    7.45
   7  -3   4  157.45    3.69
   7  -3   5   57.22    1.51
   7  -3   6   79.99    2.02
   7  -3   7  288.14    5.84
   7  -3   8  123.58    3.06
   7  -3   9   41.34    1.18
   7  -3  10   39.70    1.28
   7  -3  11   94.28    2.51
   7  -3  12    2.97    0.59
   7  -3  13  105.59    2.52
   7  -3  14   39.94    1.31
   7  -3  15   22.63    0.92
   7  -3  16    4.83    0.62
   7  -3  17    2.75    0.61
   7  -3  18   14.64    0.90
   7  -3  19    3.65    0.69
   7  -3  20   19.28    1.00
   7  -3  21    3.00    0.68
   8  -3 -24    1.80    0.66
   8  -3 -23    4.48    0.75
   8  -3 -22    6.42    0.78
   8  -3 -21    6.84    0.75
   8  -3 -20   44.78    1.58
   8  -3 -19    7.90    0.81
   8  -3 -18    6.47    0.79
   8  -3 -17    6.03    0.63
   8  -3 -16   11.36    0.73
   8  -3 -15   84.95    2.39
   8  -3 -14   91.07    2.35
   8  -3 -13    1.47    0.54
   8  -3 -12   60.49    1.84
   8  -3 -11  159.57    3.80
   8  -3 -10  377.78    7.83
   8  -3  -9  146.97    3.54
   8  -3  -8  125.29    2.98
   8  -3  -7    1.63    0.56
   8  -3  -6   14.64    0.82
   8  -3  -5  591.92   11.50
   8  -3  -4    1.09    0.51
   8  -3  -3  198.68    4.38
   8  -3  -2   12.65    0.70
   8  -3  -1    1.37    0.58
   8  -3   0   46.86    1.47
   8  -3   1   13.68    0.73
   8  -3   2  116.03    3.04
   8  -3   3  108.39    2.62
   8  -3   4   17.77    0.79
   8  -3   5   14.97    0.74
   8  -3   6    3.80    0.58
   8  -3   7    0.36    0.46
   8  -3   8  137.60    3.25
   8  -3   9   27.05    1.06
   8  -3  10  161.96    3.79
   8  -3  11   65.63    1.85
   8  -3  12   19.56    0.95
   8  -3  13   52.21    1.47
   8  -3  14   59.11    1.59
   8  -3  15    0.15    0.43
   8  -3  16   18.00    0.89
   8  -3  17    0.30    0.47
   8  -3  18   18.54    0.86
   8  -3  19   51.20    1.54
   8  -3  20    1.43    0.58
   9  -3 -24   16.34    1.10
   9  -3 -23   17.06    1.04
   9  -3 -22    2.36    0.72
   9  -3 -21   10.75    0.79
   9  -3 -20   11.51    0.91
   9  -3 -19    3.23    0.77
   9  -3 -18   87.73    2.36
   9  -3 -17    0.45    0.74
   9  -3 -16   88.84    2.18
   9  -3 -15  105.61    2.62
   9  -3 -14    0.02    0.52
   9  -3 -13   25.01    1.00
   9  -3 -12   46.24    1.49
   9  -3 -11    0.74    0.57
   9  -3 -10   57.04    1.76
   9  -3  -9   34.76    1.14
   9  -3  -8  222.77    5.15
   9  -3  -7  213.08    4.71
   9  -3  -6    6.93    0.60
   9  -3  -5    1.38    0.55
   9  -3  -4    0.83    0.52
   9  -3  -3  189.17    4.36
   9  -3  -2   26.11    1.00
   9  -3  -1  437.30    8.98
   9  -3   0   44.25    1.49
   9  -3   1   90.57    2.19
   9  -3   2   88.22    2.23
   9  -3   3    6.13    0.61
   9  -3   4  228.17    4.62
   9  -3   5   56.61    1.66
   9  -3   6    3.36    0.52
   9  -3   7  213.80    4.66
   9  -3   8   94.71    2.42
   9  -3   9    3.77    0.56
   9  -3  10    2.26    0.66
   9  -3  11    0.28    0.50
   9  -3  12   80.91    1.90
   9  -3  13   66.10    1.81
   9  -3  14    3.69    0.64
   9  -3  15   50.16    1.75
   9  -3  16   22.67    1.04
   9  -3  17   -0.07    0.71
   9  -3  18   18.48    1.01
   9  -3  19    1.03    0.73
   9  -3  20    0.47    0.76
  10  -3 -23    0.78    0.69
  10  -3 -22    0.57    0.69
  10  -3 -21    0.18    0.72
  10  -3 -20    0.13    0.70
  10  -3 -19  163.36    3.78
  10  -3 -18    2.05    0.69
  10  -3 -17   11.49    0.93
  10  -3 -16   95.02    2.61
  10  -3 -15   16.97    0.98
  10  -3 -14    8.88    0.78
  10  -3 -13  258.18    5.73
  10  -3 -12   11.95    0.70
  10  -3 -11   61.84    1.75
  10  -3 -10   74.54    1.95
  10  -3  -9   97.35    2.58
  10  -3  -8   76.11    2.02
  10  -3  -7  404.87    8.18
  10  -3  -6    7.00    0.71
  10  -3  -5   63.59    1.91
  10  -3  -4    2.33    0.72
  10  -3  -3  149.40    3.40
  10  -3  -2  187.05    4.38
  10  -3  -1   29.89    1.20
  10  -3   0   32.82    1.21
  10  -3   1   91.22    2.22
  10  -3   2    5.76    0.65
  10  -3   3  287.76    6.13
  10  -3   4    5.51    0.52
  10  -3   5   26.31    1.05
  10  -3   6  139.29    3.14
  10  -3   7   72.61    2.09
  10  -3   8    0.12    0.53
  10  -3   9   12.93    0.78
  10  -3  10    1.09    0.51
  10  -3  11   42.65    1.33
  10  -3  12   61.99    1.98
  10  -3  13    2.45    0.59
  10  -3  14   11.89    0.72
  10  -3  15   34.17    1.19
  10  -3  16   14.35    0.81
  10  -3  17   19.15    0.93
  10  -3  18    6.91    0.64
  10  -3  19    3.93    0.60
  11  -3 -23    5.69    0.82
  11  -3 -22    1.80    0.72
  11  -3 -21    0.19    0.62
  11  -3 -20   60.11    1.73
  11  -3 -19   13.91    0.81
  11  -3 -18    3.60    0.65
  11  -3 -17  105.19    2.67
  11  -3 -16   26.05    1.18
  11  -3 -15   86.86    2.27
  11  -3 -14   57.90    1.82
  11  -3 -13    2.52    0.58
  11  -3 -12   34.00    1.26
  11  -3 -11    2.51    0.61
  11  -3 -10    1.57    0.64
  11  -3  -9  142.97    3.48
  11  -3  -8  174.85    3.99
  11  -3  -7    9.87    0.79
  11  -3  -6    1.31    0.53
  11  -3  -5    0.09    0.51
  11  -3  -4   22.03    0.96
  11  -3  -3  378.52    7.67
  11  -3  -2   70.34    1.99
  11  -3  -1    2.93    0.76
  11  -3   0   29.84    1.22
  11  -3   1    1.97    0.59
  11  -3   2  115.72    2.78
  11  -3   3   30.18    1.19
  11  -3   4    3.03    0.59
  11  -3   5   25.71    0.98
  11  -3   6   12.75    0.87
  11  -3   7    6.21    0.59
  11  -3   8    2.46    0.62
  11  -3   9    0.94    0.55
  11  -3  10    0.45    0.71
  11  -3  11   44.90    1.42
  11  -3  12   18.07    0.83
  11  -3  13   -0.14    0.59
  11  -3  14   71.20    2.03
  11  -3  15    0.36    0.58
  11  -3  16    3.27    0.62
  11  -3  17    2.18    0.62
  11  -3  18    4.53    1.19
  12  -3 -22   -0.06    0.73
  12  -3 -21    8.98    0.97
  12  -3 -20   13.99    1.00
  12  -3 -19    0.26    0.85
  12  -3 -18    0.70    0.73
  12  -3 -17   52.81    1.94
  12  -3 -16   25.43    1.27
  12  -3 -15    8.73    0.93
  12  -3 -14    6.36    0.75
  12  -3 -13    8.58    0.83
  12  -3 -12    7.33    0.82
  12  -3 -11    4.38    0.68
  12  -3 -10   32.76    1.26
  12  -3  -9   24.59    1.13
  12  -3  -8    6.78    0.69
  12  -3  -7   11.03    0.75
  12  -3  -6  298.14    7.67
  12  -3  -5   22.76    1.00
  12  -3  -4   24.92    1.06
  12  -3  -3   10.64    0.79
  12  -3  -2   65.31    1.83
  12  -3  -1   10.07    0.74
  12  -3   0  188.30    4.09
  12  -3   1   32.78    1.27
  12  -3   2   30.70    1.23
  12  -3   3  137.56    3.23
  12  -3   4   65.79    1.89
  12  -3   5  140.48    3.20
  12  -3   6    2.44    0.74
  12  -3   7    2.76    0.64
  12  -3   8   26.55    1.10
  12  -3   9    2.77    0.56
  12  -3  10   40.61    1.42
  12  -3  11  112.31    2.82
  12  -3  12   19.57    0.92
  12  -3  13   50.92    1.47
  12  -3  14    1.95    0.62
  12  -3  15    0.56    0.60
  12  -3  16    1.63    0.67
  12  -3  17   12.44    0.85
  13  -3 -22   -0.29    0.76
  13  -3 -21    2.53    0.71
  13  -3 -20    2.76    0.62
  13  -3 -19    7.08    0.79
  13  -3 -18   65.67    1.93
  13  -3 -17    1.11    0.65
  13  -3 -16    4.08    0.65
  13  -3 -15    0.47    0.64
  13  -3 -14   28.63    1.35
  13  -3 -13  107.00    2.42
  13  -3 -12  133.84    3.10
  13  -3 -11    8.50    0.73
  13  -3 -10    7.98    0.77
  13  -3  -9   33.99    1.20
  13  -3  -8    6.76    0.68
  13  -3  -7    3.12    0.75
  13  -3  -6   12.07    0.87
  13  -3  -5  105.74    2.53
  13  -3  -4   36.78    1.38
  13  -3  -3   25.65    1.14
  13  -3  -2  166.43    4.12
  13  -3  -1    7.78    0.64
  13  -3   0    0.35    0.51
  13  -3   1   22.64    1.04
  13  -3   2   17.05    0.92
  13  -3   3    6.14    0.73
  13  -3   4  249.37    5.12
  13  -3   5   80.27    2.22
  13  -3   6   42.40    1.43
  13  -3   7   13.40    0.86
  13  -3   8    0.43    0.71
  13  -3   9   20.17    0.86
  13  -3  10   88.93    1.99
  13  -3  11   25.47    1.21
  13  -3  12   49.03    1.60
  13  -3  13    0.60    0.62
  13  -3  14    9.26    0.78
  13  -3  15    3.04    0.63
  13  -3  16   12.79    0.78
  14  -3 -21    0.54    0.65
  14  -3 -20    2.32    0.69
  14  -3 -19    0.69    0.73
  14  -3 -18    0.54    0.77
  14  -3 -17    1.58    0.82
  14  -3 -16    5.35    0.74
  14  -3 -15   40.92    1.30
  14  -3 -14    1.51    0.65
  14  -3 -13   25.63    1.18
  14  -3 -12    6.13    0.71
  14  -3 -11   13.55    0.84
  14  -3 -10  205.39    4.55
  14  -3  -9  148.50    3.37
  14  -3  -8   25.63    1.26
  14  -3  -7   12.59    0.89
  14  -3  -6    1.56    0.72
  14  -3  -5   61.84    1.86
  14  -3  -4   82.87    2.24
  14  -3  -3  123.18    3.25
  14  -3  -2   53.95    1.76
  14  -3  -1   13.76    0.87
  14  -3   0   45.75    1.63
  14  -3   1   18.82    1.00
  14  -3   2    0.88    0.58
  14  -3   3   12.91    0.92
  14  -3   4    1.02    0.56
  14  -3   5   50.80    1.48
  14  -3   6    0.22    0.56
  14  -3   7   51.07    1.58
  14  -3   8   26.97    1.14
  14  -3   9    6.83    0.75
  14  -3  10    1.70    0.52
  14  -3  11    3.46    0.63
  14  -3  12    3.73    0.69
  14  -3  13   23.50    1.03
  14  -3  14    0.60    0.56
  14  -3  15   11.44    0.92
  15  -3 -20    2.10    0.75
  15  -3 -19    1.92    0.66
  15  -3 -18    2.77    0.77
  15  -3 -17   20.18    1.11
  15  -3 -16   72.33    2.22
  15  -3 -15    1.92    0.74
  15  -3 -14   59.93    1.79
  15  -3 -13   14.50    1.00
  15  -3 -12   16.53    0.92
  15  -3 -11   36.66    1.32
  15  -3 -10   52.17    1.63
  15  -3  -9   48.26    1.71
  15  -3  -8    3.82    0.82
  15  -3  -7    0.86    0.61
  15  -3  -6   11.33    0.90
  15  -3  -5    0.64    0.60
  15  -3  -4   22.68    1.05
  15  -3  -3    0.38    0.67
  15  -3  -2   14.48    0.87
  15  -3  -1   65.34    2.06
  15  -3   0   42.53    1.27
  15  -3   1   22.68    1.09
  15  -3   2   -0.29    0.53
  15  -3   3   13.39    0.79
  15  -3   4  241.52    4.87
  15  -3   5    6.32    0.68
  15  -3   6   23.11    1.06
  15  -3   7   32.24    1.27
  15  -3   8    6.45    0.78
  15  -3   9   11.90    0.92
  15  -3  10    3.98    0.62
  15  -3  11    1.19    0.60
  15  -3  12   11.29    0.84
  15  -3  13    1.30    0.61
  15  -3  14    2.21    0.83
  16  -3 -19    0.71    0.77
  16  -3 -18    3.04    0.81
  16  -3 -17   15.10    0.99
  16  -3 -16   10.41    0.91
  16  -3 -15    6.85    1.07
  16  -3 -14   25.70    1.13
  16  -3 -13    3.74    0.70
  16  -3 -12    1.29    0.70
  16  -3 -11    7.60    0.72
  16  -3 -10    0.91    0.86
  16  -3  -9    2.20    0.72
  16  -3  -8   44.61    1.58
  16  -3  -7    9.92    0.84
  16  -3  -6    5.50    0.70
  16  -3  -5    2.09    0.64
  16  -3  -4    1.07    0.72
  16  -3  -3   15.15    1.05
  16  -3  -2    1.41    0.77
  16  -3  -1  175.11    4.35
  16  -3   0   25.34    1.05
  16  -3   1    7.77    0.72
  16  -3   2    0.43    0.65
  16  -3   3   39.27    1.33
  16  -3   4    8.10    0.81
  16  -3   5   15.83    0.90
  16  -3   6    6.73    0.96
  16  -3   7    9.80    0.84
  16  -3   8    8.53    0.82
  16  -3   9    7.67    0.84
  16  -3  10    3.93    0.63
  16  -3  11   20.69    0.92
  16  -3  12    5.06    0.71
  17  -3 -18   15.14    0.94
  17  -3 -17    0.14    0.79
  17  -3 -16    0.53    0.66
  17  -3 -15   17.17    1.08
  17  -3 -14   30.38    1.21
  17  -3 -13    0.61    0.66
  17  -3 -12   48.51    1.49
  17  -3 -11    0.00    0.64
  17  -3 -10    1.49    0.78
  17  -3  -9   14.61    0.86
  17  -3  -8    0.29    0.66
  17  -3  -7    0.16    0.58
  17  -3  -6   35.98    1.42
  17  -3  -5   12.03    0.83
  17  -3  -4   35.63    1.26
  17  -3  -3    0.18    0.69
  17  -3  -2   -0.15    0.62
  17  -3  -1    6.71    0.68
  17  -3   0    7.18    0.92
  17  -3   1    8.76    0.93
  17  -3   2   41.03    1.58
  17  -3   3    6.10    0.82
  17  -3   4    0.76    0.66
  17  -3   5   19.60    1.02
  17  -3   6    0.91    0.78
  17  -3   7   47.16    1.57
  17  -3   8   36.20    1.32
  17  -3   9   10.96    0.94
  17  -3  10   23.10    1.05
  18  -3 -17    1.59    0.88
  18  -3 -16    4.46    0.86
  18  -3 -15   17.07    1.05
  18  -3 -14    2.41    0.70
  18  -3 -13    7.28    0.82
  18  -3 -12    6.17    0.75
  18  -3 -11   -0.05    0.88
  18  -3 -10    5.73    0.76
  18  -3  -9   12.10    0.96
  18  -3  -8    4.78    0.69
  18  -3  -7    1.81    0.99
  18  -3  -6    5.42    0.72
  18  -3  -5    7.86    0.82
  18  -3  -4    5.55    0.83
  18  -3  -3    8.52    0.91
  18  -3  -2    5.49    0.77
  18  -3  -1   25.01    1.14
  18  -3   0   -0.05    0.68
  18  -3   1   27.75    1.21
  18  -3   2   -0.18    0.58
  18  -3   3    1.00    0.73
  18  -3   4   27.29    1.10
  18  -3   5    5.97    0.83
  18  -3   6    1.33    0.59
  18  -3   7   21.07    0.96
  18  -3   8    4.69    0.76
  18  -3   9   22.89    1.54
  19  -3 -15    0.87    1.53
  19  -3 -14   15.97    1.04
  19  -3 -13    3.46    0.78
  19  -3 -12    1.02    0.74
  19  -3 -11    4.52    0.76
  19  -3 -10    1.15    0.74
  19  -3  -9    0.78    0.74
  19  -3  -8   33.83    1.49
  19  -3  -7    2.41    0.67
  19  -3  -6    0.07    0.71
  19  -3  -5    0.65    0.98
  19  -3  -4   19.25    0.95
  19  -3  -3    0.33    0.73
  19  -3  -2   23.18    0.98
  19  -3  -1    7.50    0.97
  19  -3   0   45.21    1.45
  19  -3   1   -0.14    0.67
  19  -3   2    5.93    0.80
  19  -3   3   15.59    0.95
  19  -3   4   11.96    0.81
  19  -3   5    1.28    0.69
  19  -3   6   13.15    0.91
  20  -3 -12   -0.02    0.83
  20  -3 -11   19.91    1.02
  20  -3 -10    1.76    0.67
  20  -3  -9   18.97    1.13
  20  -3  -8    8.45    0.82
  20  -3  -7   12.90    0.82
  20  -3  -6    0.57    0.97
  20  -3  -5   17.26    0.98
  20  -3  -4   -0.18    0.71
  20  -3  -3    5.54    0.85
  20  -3  -2   25.35    1.13
  20  -3  -1   47.53    1.60
  20  -3   0   15.38    0.97
  20  -3   1    1.61    0.68
  20  -3   2    3.71    0.92
  20  -3   3   17.55    1.00
  21  -3  -8    2.19    0.75
  21  -3  -7    2.27    0.92
  21  -3  -6    3.89    0.67
  21  -3  -5    0.48    0.97
  21  -3  -4    2.08    0.67
  21  -3  -3    7.10    0.87
  21  -3  -2    2.89    0.71
  21  -3  -1    6.38    2.18
 -21  -4   3    1.72    1.01
 -21  -4   4    0.65    0.71
 -21  -4   5    2.97    0.74
 -21  -4   6    3.44    0.90
 -21  -4   7    8.80    1.33
 -20  -4  -3    0.49    0.77
 -20  -4  -2   17.06    0.92
 -20  -4  -1   -0.22    0.63
 -20  -4   0    0.41    0.65
 -20  -4   1    2.14    0.62
 -20  -4   2    2.75    0.77
 -20  -4   3    1.41    0.62
 -20  -4   4   13.94    1.01
 -20  -4   5   10.73    0.76
 -20  -4   6   18.79    1.15
 -20  -4   7    0.15    0.64
 -20  -4   8    8.73    0.93
 -20  -4   9    4.33    0.82
 -20  -4  10   15.77    1.15
 -20  -4  11    0.85    0.76
 -20  -4  12   18.21    1.23
 -19  -4  -6    2.84    0.89
 -19  -4  -5   24.75    1.15
 -19  -4  -4    1.18    0.63
 -19  -4  -3   15.63    0.95
 -19  -4  -2   -0.37    0.83
 -19  -4  -1   30.60    1.17
 -19  -4   0    0.15    0.59
 -19  -4   1   15.59    0.82
 -19  -4   2    0.95    0.59
 -19  -4   3   66.59    1.92
 -19  -4   4   -0.14    0.60
 -19  -4   5   35.41    1.28
 -19  -4   6   21.87    1.06
 -19  -4   7   16.19    0.95
 -19  -4   8    0.80    0.66
 -19  -4   9   61.56    1.76
 -19  -4  10    1.18    0.74
 -19  -4  11    2.11    0.75
 -19  -4  12    0.75    0.86
 -19  -4  13    4.77    0.81
 -19  -4  14   -0.11    0.82
 -18  -4  -8   25.33    1.29
 -18  -4  -7   11.12    0.93
 -18  -4  -6   12.76    0.87
 -18  -4  -5    1.60    0.63
 -18  -4  -4    4.56    0.72
 -18  -4  -3   12.29    0.87
 -18  -4  -2   68.08    1.91
 -18  -4  -1   10.90    0.95
 -18  -4   0   35.46    1.26
 -18  -4   1    0.39    0.75
 -18  -4   2   11.98    0.77
 -18  -4   3    3.60    0.72
 -18  -4   4    1.68    0.65
 -18  -4   5    4.10    0.92
 -18  -4   6   43.91    1.32
 -18  -4   7    4.33    0.75
 -18  -4   8    6.87    0.74
 -18  -4   9    0.58    0.64
 -18  -4  10    1.64    0.69
 -18  -4  11    1.23    0.83
 -18  -4  12    8.51    1.00
 -18  -4  13    0.35    0.69
 -18  -4  14   20.47    1.11
 -18  -4  15   10.93    0.87
 -18  -4  16    4.24    0.80
 -17  -4 -10    4.93    0.65
 -17  -4  -9   30.75    1.34
 -17  -4  -8    0.27    0.67
 -17  -4  -7    8.26    0.74
 -17  -4  -6    6.82    0.64
 -17  -4  -5    6.35    0.82
 -17  -4  -4    6.38    0.60
 -17  -4  -3   13.98    0.88
 -17  -4  -2    0.34    0.65
 -17  -4  -1   12.27    0.80
 -17  -4   0   39.84    1.39
 -17  -4   1    5.46    0.73
 -17  -4   2   23.28    1.16
 -17  -4   3   12.59    0.99
 -17  -4   4   -0.31    0.70
 -17  -4   5   23.74    1.22
 -17  -4   6   34.40    1.22
 -17  -4   7   20.87    1.04
 -17  -4   8   18.38    0.98
 -17  -4   9    0.18    0.63
 -17  -4  10    0.84    0.75
 -17  -4  11   74.97    2.16
 -17  -4  12    1.70    0.76
 -17  -4  13    6.27    0.71
 -17  -4  14   22.59    1.18
 -17  -4  15    0.59    0.75
 -17  -4  16    2.60    0.66
 -17  -4  17    3.06    0.72
 -17  -4  18    0.40    0.83
 -16  -4 -12   13.41    0.81
 -16  -4 -11    1.32    0.61
 -16  -4 -10    2.67    0.57
 -16  -4  -9    4.51    0.64
 -16  -4  -8    2.84    0.62
 -16  -4  -7    5.70    0.58
 -16  -4  -6    3.16    0.73
 -16  -4  -5    0.35    0.46
 -16  -4  -4   16.35    0.88
 -16  -4  -3    5.95    0.61
 -16  -4  -2   10.54    0.83
 -16  -4  -1   55.07    1.55
 -16  -4   0    5.24    0.72
 -16  -4   1   14.35    0.83
 -16  -4   2   99.13    2.59
 -16  -4   3    4.42    0.70
 -16  -4   4   11.50    0.87
 -16  -4   5    0.40    0.65
 -16  -4   6    0.57    0.59
 -16  -4   7   -0.36    0.67
 -16  -4   8   18.31    0.96
 -16  -4   9    0.35    0.59
 -16  -4  10   26.85    1.34
 -16  -4  11    6.45    0.78
 -16  -4  12    1.25    0.65
 -16  -4  13    0.69    0.74
 -16  -4  14   -0.03    0.73
 -16  -4  15   -0.04    0.71
 -16  -4  16   25.53    1.12
 -16  -4  17    1.72    0.76
 -16  -4  18   16.44    1.20
 -16  -4  19    0.15    0.79
 -15  -4 -13   18.88    0.95
 -15  -4 -12    0.96    0.61
 -15  -4 -11   -0.23    0.58
 -15  -4 -10   23.01    1.01
 -15  -4  -9   24.97    1.18
 -15  -4  -8   16.82    0.89
 -15  -4  -7   -0.25    0.49
 -15  -4  -6    2.08    0.55
 -15  -4  -5  163.90    3.68
 -15  -4  -4    0.00    0.46
 -15  -4  -3    5.67    0.73
 -15  -4  -2    1.98    0.51
 -15  -4  -1    5.59    0.77
 -15  -4   0    2.09    0.56
 -15  -4   1   38.47    1.20
 -15  -4   2    6.03    0.76
 -15  -4   3   13.14    0.82
 -15  -4   4    9.07    0.89
 -15  -4   5    4.78    0.72
 -15  -4   6    9.98    0.76
 -15  -4   7   19.77    0.98
 -15  -4   8    0.28    0.67
 -15  -4   9   68.53    2.06
 -15  -4  10    0.56    0.67
 -15  -4  11    7.48    0.76
 -15  -4  12   14.19    0.77
 -15  -4  13   14.74    1.01
 -15  -4  14    1.39    0.79
 -15  -4  15   39.51    1.46
 -15  -4  16    3.52    0.83
 -15  -4  17   40.54    1.42
 -15  -4  18   -0.61    0.61
 -15  -4  19   16.32    1.25
 -15  -4  20    5.01    0.87
 -14  -4 -15    2.50    0.85
 -14  -4 -14   31.82    1.21
 -14  -4 -13    0.17    0.63
 -14  -4 -12    1.44    0.52
 -14  -4 -11    0.22    0.45
 -14  -4 -10   19.26    0.97
 -14  -4  -9    7.97    0.72
 -14  -4  -8    8.08    0.74
 -14  -4  -7    8.35    0.60
 -14  -4  -6  116.72    2.63
 -14  -4  -5    0.25    0.44
 -14  -4  -4   55.88    1.78
 -14  -4  -3    8.64    0.57
 -14  -4  -2    6.87    0.63
 -14  -4  -1    1.48    0.52
 -14  -4   0  137.32    2.96
 -14  -4   1   46.30    1.50
 -14  -4   2   68.45    1.97
 -14  -4   3    4.78    0.67
 -14  -4   4   71.34    2.07
 -14  -4   5   14.78    0.88
 -14  -4   6   36.24    1.28
 -14  -4   7   60.71    1.78
 -14  -4   8    9.37    0.94
 -14  -4   9    8.37    0.80
 -14  -4  10  195.42    3.78
 -14  -4  11   25.39    1.23
 -14  -4  12   23.99    1.03
 -14  -4  13   20.72    1.00
 -14  -4  14    4.28    0.88
 -14  -4  15    5.94    0.68
 -14  -4  16    2.55    0.62
 -14  -4  17    0.78    0.77
 -14  -4  18   27.99    1.06
 -14  -4  19    0.00    0.65
 -14  -4  20    8.85    0.89
 -14  -4  21    2.42    0.70
 -13  -4 -16   -0.29    0.62
 -13  -4 -15    8.92    0.73
 -13  -4 -14   -0.13    0.53
 -13  -4 -13    3.74    0.59
 -13  -4 -12    0.92    0.45
 -13  -4 -11    6.06    0.65
 -13  -4 -10    4.75    0.63
 -13  -4  -9   67.18    1.74
 -13  -4  -8   13.42    0.81
 -13  -4  -7   41.31    1.27
 -13  -4  -6    2.31    0.56
 -13  -4  -5    3.43    0.46
 -13  -4  -4    0.42    0.41
 -13  -4  -3   94.11    2.27
 -13  -4  -2   33.65    1.22
 -13  -4  -1   98.56    2.63
 -13  -4   0    8.61    0.65
 -13  -4   1    7.06    0.77
 -13  -4   2    0.40    0.50
 -13  -4   3   22.68    0.97
 -13  -4   4    7.00    0.71
 -13  -4   5   88.76    2.72
 -13  -4   6  128.04    3.01
 -13  -4   7   15.03    0.80
 -13  -4   8    6.67    0.63
 -13  -4   9   11.48    0.99
 -13  -4  10   44.27    1.40
 -13  -4  11   88.47    2.29
 -13  -4  12   -0.41    0.74
 -13  -4  13   12.55    0.83
 -13  -4  14   34.37    1.54
 -13  -4  15    7.30    0.76
 -13  -4  16   -0.48    0.98
 -13  -4  17    8.09    0.80
 -13  -4  18    3.02    0.71
 -13  -4  19    5.91    0.77
 -13  -4  20    2.88    0.66
 -13  -4  21    0.97    0.67
 -13  -4  22    0.98    0.85
 -12  -4 -17   -0.21    0.55
 -12  -4 -16    0.12    0.54
 -12  -4 -15   19.88    0.81
 -12  -4 -14   73.23    1.94
 -12  -4 -13   -0.42    0.53
 -12  -4 -12   40.33    1.36
 -12  -4 -11    3.70    0.49
 -12  -4 -10   46.39    1.51
 -12  -4  -9  102.29    2.29
 -12  -4  -8    2.84    0.49
 -12  -4  -7    6.75    0.60
 -12  -4  -6   16.34    0.70
 -12  -4  -5   47.04    1.32
 -12  -4  -4    7.49    0.57
 -12  -4  -3    2.19    0.47
 -12  -4  -2  103.14    2.56
 -12  -4  -1   32.60    1.32
 -12  -4   0  101.55    2.51
 -12  -4   1  182.97    4.31
 -12  -4   2   49.33    1.64
 -12  -4   3    0.29    0.49
 -12  -4   4   68.95    2.00
 -12  -4   5   36.03    1.43
 -12  -4   6   -0.04    0.68
 -12  -4   7    3.99    0.75
 -12  -4   8  340.43    6.65
 -12  -4   9    7.53    0.70
 -12  -4  10  146.29    3.48
 -12  -4  11    1.91    0.62
 -12  -4  12    3.22    0.57
 -12  -4  13   -0.31    0.57
 -12  -4  14   89.63    2.92
 -12  -4  15   25.25    1.10
 -12  -4  16   49.30    1.59
 -12  -4  17    8.58    0.89
 -12  -4  18   33.37    1.31
 -12  -4  19    1.40    0.69
 -12  -4  20   -0.16    0.71
 -12  -4  21    1.47    0.65
 -12  -4  22   11.22    0.87
 -11  -4 -18    0.24    0.65
 -11  -4 -17    4.77    0.69
 -11  -4 -16    6.12    0.68
 -11  -4 -15  134.80    3.04
 -11  -4 -14    0.18    0.41
 -11  -4 -13   62.12    1.82
 -11  -4 -12    6.48    0.64
 -11  -4 -11    0.83    0.40
 -11  -4 -10   18.13    0.80
 -11  -4  -9   98.74    2.52
 -11  -4  -8    0.81    0.37
 -11  -4  -7  135.55    3.03
 -11  -4  -6   38.71    1.08
 -11  -4  -5   17.50    0.71
 -11  -4  -4   66.04    1.87
 -11  -4  -3   20.12    0.73
 -11  -4  -2   74.24    1.76
 -11  -4  -1  204.80    4.54
 -11  -4   0    1.66    0.44
 -11  -4   1  151.10    3.09
 -11  -4   2    0.07    0.61
 -11  -4   3   12.52    0.78
 -11  -4   4    8.41    0.65
 -11  -4   5    6.41    0.58
 -11  -4   6    0.62    0.49
 -11  -4   7  316.05    6.33
 -11  -4   8    9.81    0.91
 -11  -4   9  128.29    3.18
 -11  -4  10   37.90    1.29
 -11  -4  11    1.40    0.55
 -11  -4  12   35.93    1.26
 -11  -4  13    0.99    0.66
 -11  -4  14    4.63    0.63
 -11  -4  15   35.14    1.30
 -11  -4  16   14.90    0.91
 -11  -4  17    3.53    0.75
 -11  -4  18   -0.66    0.62
 -11  -4  19    0.22    0.75
 -11  -4  20   -0.96    0.61
 -11  -4  21   50.00    1.73
 -11  -4  22    0.78    0.81
 -11  -4  23    2.07    0.72
 -10  -4 -19    0.75    0.57
 -10  -4 -18    0.37    0.62
 -10  -4 -17   10.86    0.75
 -10  -4 -16   28.08    1.19
 -10  -4 -15    0.23    0.49
 -10  -4 -14    1.99    0.44
 -10  -4 -13   17.92    0.87
 -10  -4 -12   34.07    1.12
 -10  -4 -11    0.21    0.42
 -10  -4 -10    9.57    0.62
 -10  -4  -9   41.62    1.41
 -10  -4  -8   49.31    1.32
 -10  -4  -7    4.80    0.47
 -10  -4  -6    1.09    0.37
 -10  -4  -5   62.02    1.68
 -10  -4  -4    0.75    0.35
 -10  -4  -3   11.34    0.58
 -10  -4  -2   58.52    1.66
 -10  -4  -1    0.39    0.42
 -10  -4   0    1.40    0.45
 -10  -4   1  105.28    2.53
 -10  -4   2   16.62    0.82
 -10  -4   3   37.20    1.21
 -10  -4   4  348.40    7.32
 -10  -4   5   19.69    0.97
 -10  -4   6  228.40    5.22
 -10  -4   7  255.32    5.66
 -10  -4   8    0.98    0.53
 -10  -4   9    3.70    0.55
 -10  -4  10   29.81    1.09
 -10  -4  11    7.10    0.74
 -10  -4  12  231.00    5.01
 -10  -4  13    5.52    0.67
 -10  -4  14   36.67    1.13
 -10  -4  15   33.68    1.26
 -10  -4  16    5.13    0.63
 -10  -4  17    6.67    0.76
 -10  -4  18   94.87    2.38
 -10  -4  19   -0.33    0.62
 -10  -4  20   33.31    1.26
 -10  -4  21    2.61    0.74
 -10  -4  22    8.66    0.81
 -10  -4  23    0.12    0.75
  -9  -4 -20    7.95    1.19
  -9  -4 -19   27.65    1.13
  -9  -4 -18    0.66    0.58
  -9  -4 -17   21.21    0.96
  -9  -4 -16    4.88    0.55
  -9  -4 -15   18.21    0.84
  -9  -4 -14    1.58    0.46
  -9  -4 -13   41.68    1.28
  -9  -4 -12   10.17    0.60
  -9  -4 -11   73.50    1.96
  -9  -4 -10   26.01    0.97
  -9  -4  -9    0.43    0.29
  -9  -4  -8   14.10    0.64
  -9  -4  -7    1.58    0.38
  -9  -4  -6   31.28    0.91
  -9  -4  -5  183.24    4.11
  -9  -4  -4    9.35    0.64
  -9  -4  -3  405.93    7.72
  -9  -4  -2   21.14    0.72
  -9  -4  -1    1.41    0.45
  -9  -4   0   75.80    2.15
  -9  -4   1    1.72    0.54
  -9  -4   2  243.95    5.29
  -9  -4   3  667.66   13.16
  -9  -4   4    0.69    0.53
  -9  -4   5  524.06   10.06
  -9  -4   6   22.47    0.88
  -9  -4   7   27.86    1.14
  -9  -4   8  128.10    3.15
  -9  -4   9  224.54    4.81
  -9  -4  10   -0.65    0.61
  -9  -4  11  138.06    3.33
  -9  -4  12    0.43    0.54
  -9  -4  13   33.41    1.16
  -9  -4  14   21.00    1.04
  -9  -4  15   -0.36    0.58
  -9  -4  16    1.13    0.63
  -9  -4  17  107.87    3.03
  -9  -4  18   -0.05    0.61
  -9  -4  19   70.29    1.94
  -9  -4  20   10.99    0.88
  -9  -4  21    0.25    0.62
  -9  -4  22    2.37    0.81
  -9  -4  23   16.64    1.17
  -9  -4  24    0.99    1.07
  -8  -4 -20   47.61    1.29
  -8  -4 -19    4.18    0.74
  -8  -4 -18   23.39    1.11
  -8  -4 -17    3.33    0.48
  -8  -4 -16    6.79    0.64
  -8  -4 -15   16.95    0.78
  -8  -4 -14    6.78    0.51
  -8  -4 -13   20.91    0.80
  -8  -4 -12  201.42    4.14
  -8  -4 -11   55.95    1.50
  -8  -4 -10    0.42    0.36
  -8  -4  -9    3.24    0.39
  -8  -4  -8  112.17    2.71
  -8  -4  -7   13.80    0.56
  -8  -4  -6    5.18    0.42
  -8  -4  -5   49.90    1.38
  -8  -4  -4  129.00    2.81
  -8  -4  -3  119.67    2.47
  -8  -4  -2  359.40    6.98
  -8  -4  -1   30.25    0.99
  -8  -4   0  317.87    6.57
  -8  -4   1  268.28    5.49
  -8  -4   2  256.78    5.46
  -8  -4   3   44.42    1.52
  -8  -4   4    2.57    0.51
  -8  -4   5    3.30    0.55
  -8  -4   6   69.63    1.78
  -8  -4   7   20.80    0.87
  -8  -4   8  403.36    7.80
  -8  -4   9    8.33    0.62
  -8  -4  10   56.30    1.69
  -8  -4  11   19.61    0.81
  -8  -4  12   63.73    1.70
  -8  -4  13    4.67    0.71
  -8  -4  14   62.36    1.99
  -8  -4  15   16.33    0.94
  -8  -4  16   83.46    2.27
  -8  -4  17    2.48    0.71
  -8  -4  18   30.83    1.18
  -8  -4  19    4.74    0.67
  -8  -4  20   61.65    1.73
  -8  -4  21   11.92    0.82
  -8  -4  22   52.57    1.86
  -8  -4  23    0.78    0.70
  -8  -4  24   13.56    0.87
  -7  -4 -21   31.89    1.59
  -7  -4 -20    3.00    0.61
  -7  -4 -19    6.43    0.64
  -7  -4 -18    1.26    0.54
  -7  -4 -17    3.44    0.49
  -7  -4 -16    2.09    0.44
  -7  -4 -15   39.44    1.22
  -7  -4 -14   75.60    2.06
  -7  -4 -13  222.63    4.83
  -7  -4 -12   14.80    0.58
  -7  -4 -11    0.46    0.27
  -7  -4 -10   25.71    0.82
  -7  -4  -9   16.19    0.60
  -7  -4  -8    1.71    0.32
  -7  -4  -7   13.69    0.53
  -7  -4  -6   51.90    1.37
  -7  -4  -5  110.05    2.37
  -7  -4  -4  313.29    6.37
  -7  -4  -3   70.32    1.68
  -7  -4  -2    4.79    0.39
  -7  -4  -1  596.62   11.27
  -7  -4   0   37.11    1.12
  -7  -4   1  377.65    7.92
  -7  -4   2   17.81    0.88
  -7  -4   3    1.76    0.45
  -7  -4   4   42.41    1.34
  -7  -4   5   29.32    1.18
  -7  -4   6   45.53    1.33
  -7  -4   7  365.18    7.36
  -7  -4   8   25.75    0.98
  -7  -4   9    4.28    0.55
  -7  -4  10    1.72    0.60
  -7  -4  11   57.20    1.77
  -7  -4  12   13.64    0.79
  -7  -4  13   74.29    2.03
  -7  -4  14   83.83    2.53
  -7  -4  15   35.68    1.37
  -7  -4  16    9.47    0.93
  -7  -4  17   40.91    1.57
  -7  -4  18    7.90    0.72
  -7  -4  19   70.75    1.93
  -7  -4  20   10.73    0.80
  -7  -4  21   56.02    1.67
  -7  -4  22    2.15    0.88
  -7  -4  23   11.57    0.87
  -7  -4  24    7.95    0.83
  -6  -4 -22   13.93    1.53
  -6  -4 -21    1.68    0.57
  -6  -4 -20    5.14    0.66
  -6  -4 -19   -0.14    0.58
  -6  -4 -18   20.62    0.95
  -6  -4 -17    2.16    0.50
  -6  -4 -16  142.94    3.20
  -6  -4 -15   41.84    1.24
  -6  -4 -14  183.26    3.75
  -6  -4 -13    0.54    0.32
  -6  -4 -12   35.84    1.15
  -6  -4 -11   19.48    0.77
  -6  -4 -10    8.69    0.45
  -6  -4  -9   39.67    1.10
  -6  -4  -8   77.09    1.87
  -6  -4  -7   43.41    1.27
  -6  -4  -6   57.87    1.44
  -6  -4  -5   48.47    1.31
  -6  -4  -4  124.53    3.17
  -6  -4  -3  180.95    3.60
  -6  -4  -2  454.05    8.66
  -6  -4  -1   15.14    0.67
  -6  -4   0  236.13    4.74
  -6  -4   1    2.55    0.40
  -6  -4   2  349.35    6.96
  -6  -4   3  316.27    6.39
  -6  -4   4    4.05    0.52
  -6  -4   5   15.77    0.75
  -6  -4   6   70.16    1.92
  -6  -4   7    1.60    0.50
  -6  -4   8   50.90    1.56
  -6  -4   9    0.62    0.51
  -6  -4  10   24.57    0.98
  -6  -4  11    2.50    0.61
  -6  -4  12   16.93    0.80
  -6  -4  13    1.21    0.53
  -6  -4  14   53.34    1.78
  -6  -4  15   44.60    1.42
  -6  -4  16    9.12    0.77
  -6  -4  17   58.38    1.77
  -6  -4  18   25.02    1.12
  -6  -4  19    2.15    0.72
  -6  -4  20    3.44    0.69
  -6  -4  21    5.22    0.78
  -6  -4  22    3.90    0.72
  -6  -4  23    5.38    0.71
  -6  -4  24   12.42    1.03
  -5  -4 -22   -0.15    0.54
  -5  -4 -21   17.41    0.87
  -5  -4 -20   17.79    0.79
  -5  -4 -19   35.33    1.16
  -5  -4 -18    0.29    0.45
  -5  -4 -17   85.39    2.18
  -5  -4 -16   17.50    0.75
  -5  -4 -15   15.99    0.74
  -5  -4 -14   19.80    0.79
  -5  -4 -13  294.54    5.60
  -5  -4 -12    5.78    0.42
  -5  -4 -11  355.99    6.74
  -5  -4 -10   45.69    1.19
  -5  -4  -9   40.64    1.08
  -5  -4  -8  267.00    5.31
  -5  -4  -7  222.83    4.36
  -5  -4  -6   11.37    0.45
  -5  -4  -5  372.39    6.79
  -5  -4  -4   62.33    1.40
  -5  -4  -2  290.13    5.53
  -5  -4  -1 1210.76   20.82
  -5  -4   0    5.69    0.37
  -5  -4   1   33.86    0.98
  -5  -4   2   45.86    1.29
  -5  -4   3  235.81    5.25
  -5  -4   4  307.92    6.66
  -5  -4   5   25.14    1.06
  -5  -4   6  297.16    6.18
  -5  -4   7    1.70    0.47
  -5  -4   8  619.29   11.82
  -5  -4   9  260.27    5.36
  -5  -4  10   73.69    2.11
  -5  -4  11    1.39    0.53
  -5  -4  12   81.11    2.19
  -5  -4  13   33.96    1.13
  -5  -4  14   49.71    1.57
  -5  -4  15   12.91    0.84
  -5  -4  16    4.23    0.57
  -5  -4  17   40.68    1.43
  -5  -4  18   10.95    0.75
  -5  -4  19   69.23    1.93
  -5  -4  20    7.29    0.70
  -5  -4  21   10.28    0.86
  -5  -4  22    4.61    0.65
  -5  -4  23    5.75    0.66
  -5  -4  24    2.48    0.83
  -4  -4 -23    3.29    0.92
  -4  -4 -22   16.40    0.94
  -4  -4 -21    0.25    0.54
  -4  -4 -20    4.61    0.57
  -4  -4 -19    8.15    0.68
  -4  -4 -18   31.89    1.10
  -4  -4 -17   18.56    0.75
  -4  -4 -16   20.69    0.74
  -4  -4 -15    6.50    0.45
  -4  -4 -14   86.11    2.10
  -4  -4 -13  108.15    2.56
  -4  -4 -12   10.34    0.56
  -4  -4 -11   25.88    0.78
  -4  -4 -10  102.63    2.24
  -4  -4  -9   40.45    1.09
  -4  -4  -8   57.81    1.24
  -4  -4  -7  373.63    7.05
  -4  -4  -6  173.21    3.35
  -4  -4  -5  319.60    5.80
  -4  -4  -4  526.23    8.87
  -4  -4  -2  933.91   31.47
  -4  -4  -1  436.42    8.05
  -4  -4   0  959.86   16.63
  -4  -4   1   63.85    1.72
  -4  -4   2  179.19    3.73
  -4  -4   3  124.39    2.88
  -4  -4   4   63.60    1.83
  -4  -4   5  160.15    3.91
  -4  -4   6  916.57   16.27
  -4  -4   7   42.59    1.32
  -4  -4   8   84.16    2.32
  -4  -4   9  115.05    2.77
  -4  -4  10    1.19    0.49
  -4  -4  11   45.66    1.42
  -4  -4  12   20.39    0.84
  -4  -4  13    0.79    0.49
  -4  -4  14  358.22    7.22
  -4  -4  15    2.96    0.75
  -4  -4  16   15.67    0.84
  -4  -4  17    4.03    0.72
  -4  -4  18   11.58    0.84
  -4  -4  19    2.60    0.65
  -4  -4  20   69.35    1.87
  -4  -4  21    4.86    0.69
  -4  -4  22    1.63    0.67
  -4  -4  23    2.79    0.70
  -4  -4  24    1.24    0.65
  -3  -4 -23   20.81    1.18
  -3  -4 -22    0.01    0.67
  -3  -4 -21   21.64    1.14
  -3  -4 -20    6.46    0.66
  -3  -4 -19   25.34    0.96
  -3  -4 -18    8.99    0.59
  -3  -4 -17   35.30    1.08
  -3  -4 -16   21.05    0.76
  -3  -4 -15   95.71    2.29
  -3  -4 -14    8.73    0.51
  -3  -4 -13   55.24    1.41
  -3  -4 -12   16.02    0.68
  -3  -4 -11  201.38    4.21
  -3  -4 -10   61.84    1.43
  -3  -4  -9  340.15    6.04
  -3  -4  -8   82.28    1.76
  -3  -4  -7  103.77    2.16
  -3  -4  -6    1.00    0.14
  -3  -4  -4  113.54    3.74
  -3  -4  -3  187.89    3.85
  -3  -4  -2   64.77    1.47
  -3  -4   0   56.20    1.37
  -3  -4   1  338.37    6.45
  -3  -4   2   64.15    1.72
  -3  -4   3   79.89    1.93
  -3  -4   4    4.58    0.48
  -3  -4   5  863.96   15.61
  -3  -4   6   41.20    1.25
  -3  -4   7  432.83    9.00
  -3  -4   8   57.14    1.58
  -3  -4   9  132.71    3.23
  -3  -4  10    1.43    0.45
  -3  -4  11   27.38    0.99
  -3  -4  12   87.29    2.45
  -3  -4  13  164.74    3.81
  -3  -4  14    6.59    0.55
  -3  -4  15  108.94    2.58
  -3  -4  16    2.24    0.59
  -3  -4  17    6.49    0.67
  -3  -4  18    8.41    0.78
  -3  -4  19    6.06    0.69
  -3  -4  20   20.99    0.99
  -3  -4  21  101.89    2.39
  -3  -4  22    0.47    0.71
  -3  -4  23   -0.06    0.74
  -3  -4  24    2.74    0.69
  -2  -4 -23    1.10    0.64
  -2  -4 -22   61.06    1.79
  -2  -4 -21    1.45    0.65
  -2  -4 -20    1.66    0.45
  -2  -4 -19    3.72    0.58
  -2  -4 -18   48.66    1.53
  -2  -4 -17   21.54    0.85
  -2  -4 -16   53.08    1.46
  -2  -4 -15   18.45    0.76
  -2  -4 -14    6.03    0.45
  -2  -4 -13   15.84    0.63
  -2  -4 -12   12.83    0.55
  -2  -4 -11    1.14    0.27
  -2  -4 -10    5.32    0.34
  -2  -4  -9  103.71    2.37
  -2  -4  -8   44.99    1.20
  -2  -4  -7    4.34    0.25
  -2  -4  -6    3.84    0.27
  -2  -4   1  220.52    4.66
  -2  -4   2   21.70    0.78
  -2  -4   3   13.92    0.73
  -2  -4   4 1204.70   20.75
  -2  -4   5   22.57    0.92
  -2  -4   6   15.36    0.69
  -2  -4   7    4.72    0.50
  -2  -4   8    5.13    0.64
  -2  -4   9    1.99    0.49
  -2  -4  10  129.42    2.78
  -2  -4  11  153.48    3.43
  -2  -4  12  171.68    3.73
  -2  -4  13   28.47    1.04
  -2  -4  14   31.01    1.07
  -2  -4  15   11.22    0.65
  -2  -4  16   71.38    2.00
  -2  -4  17  153.53    3.51
  -2  -4  18    9.04    0.75
  -2  -4  19   13.46    0.77
  -2  -4  20   39.70    1.42
  -2  -4  21    6.50    0.71
  -2  -4  22   29.87    1.23
  -2  -4  23   81.81    2.04
  -2  -4  24   14.72    0.95
  -1  -4 -24    1.16    0.90
  -1  -4 -23    0.30    0.63
  -1  -4 -22   10.91    0.72
  -1  -4 -21    1.12    0.57
  -1  -4 -20    1.18    0.52
  -1  -4 -19  228.50    4.47
  -1  -4 -18    6.51    0.60
  -1  -4 -17   14.35    0.71
  -1  -4 -16    4.34    0.50
  -1  -4 -15  139.68    3.03
  -1  -4 -14   13.15    0.60
  -1  -4 -13   30.03    0.93
  -1  -4 -12   20.68    0.69
  -1  -4 -11  584.62   10.40
  -1  -4 -10    1.90    0.28
  -1  -4  -9   24.72    0.71
  -1  -4  -8    5.69    0.32
  -1  -4  -7  126.17    2.56
  -1  -4  -6  482.53    9.52
  -1  -4  -4   22.15    0.64
  -1  -4  -3  165.49    3.46
  -1  -4  -1   65.10    1.51
  -1  -4   0   67.70    1.60
  -1  -4   1  516.55    9.72
  -1  -4   2  307.27    5.80
  -1  -4   3  162.87    3.50
  -1  -4   4   42.35    1.38
  -1  -4   5  930.45   16.54
  -1  -4   6  378.40    8.02
  -1  -4   7  483.93    9.41
  -1  -4   8   25.98    0.99
  -1  -4   9  386.45    7.82
  -1  -4  10   80.05    2.11
  -1  -4  11  118.04    2.87
  -1  -4  12  179.31    3.91
  -1  -4  13  156.45    3.71
  -1  -4  14   21.22    0.86
  -1  -4  15   72.91    2.05
  -1  -4  16   19.60    0.87
  -1  -4  17   10.64    0.80
  -1  -4  18   28.52    1.05
  -1  -4  19    0.05    0.66
  -1  -4  20    1.66    0.63
  -1  -4  21   26.84    1.02
  -1  -4  22    3.12    0.73
  -1  -4  23   24.07    1.11
  -1  -4  24    0.47    0.68
   0  -4 -24   -0.62    0.76
   0  -4 -23   -0.33    0.58
   0  -4 -22   10.46    0.74
   0  -4 -21    3.01    0.51
   0  -4 -20  166.33    3.39
   0  -4 -19    0.50    0.45
   0  -4 -18   57.86    1.57
   0  -4 -17   23.46    0.85
   0  -4 -16   96.72    2.24
   0  -4 -15   47.97    1.43
   0  -4 -14   53.99    1.48
   0  -4 -13    4.59    0.40
   0  -4 -12   82.11    1.91
   0  -4 -11    1.31    0.28
   0  -4 -10    3.74    0.35
   0  -4  -9    0.76    0.31
   0  -4  -8  101.66    2.18
   0  -4  -7   28.05    0.79
   0  -4  -6    4.60    0.28
   0  -4  -5  482.65    8.44
   0  -4  -4    2.87    0.22
   0  -4  -3  139.02    2.74
   0  -4  -2   18.58    0.58
   0  -4  -1  361.76    6.72
   0  -4   0  663.89   11.78
   0  -4   1  361.14    7.05
   0  -4   2   17.88    0.69
   0  -4   3  135.84    2.84
   0  -4   4    2.45    0.43
   0  -4   5  452.27    8.24
   0  -4   6    4.18    0.56
   0  -4   7   27.15    0.98
   0  -4   8   97.61    2.42
   0  -4   9    0.42    0.41
   0  -4  10    4.23    0.54
   0  -4  11    1.71    0.45
   0  -4  12   86.32    2.31
   0  -4  13    4.15    0.50
   0  -4  14   56.39    1.59
   0  -4  15   50.58    1.56
   0  -4  16  101.17    2.54
   0  -4  17   25.18    1.09
   0  -4  18   62.81    1.81
   0  -4  19    0.54    0.53
   0  -4  20  180.82    3.91
   0  -4  21    2.98    0.72
   0  -4  22   11.66    0.88
   0  -4  23    0.38    0.71
   0  -4  24    0.18    0.58
   1  -4 -24    0.33    0.64
   1  -4 -23   23.24    1.21
   1  -4 -22    2.99    0.59
   1  -4 -21   24.28    0.97
   1  -4 -20    1.87    0.63
   1  -4 -19    0.79    0.58
   1  -4 -18   27.91    0.93
   1  -4 -17    9.32    0.60
   1  -4 -16   17.21    0.76
   1  -4 -15   67.45    1.79
   1  -4 -14   20.36    0.71
   1  -4 -13  149.55    3.11
   1  -4 -12  172.03    3.60
   1  -4 -11  113.34    2.53
   1  -4 -10   79.65    1.94
   1  -4  -9  383.17    7.77
   1  -4  -8   25.77    0.79
   1  -4  -7  487.39    9.04
   1  -4  -6  382.84    7.40
   1  -4  -5  946.05   23.06
   1  -4  -4   43.45    1.17
   1  -4  -3  167.44    3.37
   1  -4  -2  309.16    5.73
   1  -4  -1  507.06    9.34
   1  -4   0   68.99    1.63
   1  -4   1   65.16    1.65
   1  -4   3  153.01    3.47
   1  -4   4   20.21    0.76
   1  -4   5  739.00   13.66
   1  -4   6  450.34    8.76
   1  -4   7  124.74    2.75
   1  -4   8    6.16    0.53
   1  -4   9   23.93    0.89
   1  -4  10    2.09    0.48
   1  -4  11  606.70   11.12
   1  -4  12   21.67    0.83
   1  -4  13   31.58    1.07
   1  -4  14   12.72    0.82
   1  -4  15  144.09    3.39
   1  -4  16    4.53    0.56
   1  -4  17   16.45    0.99
   1  -4  18    6.06    0.62
   1  -4  19  243.14    4.90
   1  -4  20    1.08    0.83
   1  -4  21    1.98    0.64
   1  -4  22   11.62    0.77
   1  -4  23    0.01    0.81
   1  -4  24    1.99    0.67
   2  -4 -24   12.73    0.96
   2  -4 -23   75.28    1.96
   2  -4 -22   27.10    0.98
   2  -4 -21    5.71    0.70
   2  -4 -20   38.39    1.34
   2  -4 -19   12.61    0.71
   2  -4 -18    8.47    0.61
   2  -4 -17  138.24    3.02
   2  -4 -16   65.98    1.98
   2  -4 -15   10.77    0.61
   2  -4 -14   29.07    0.94
   2  -4 -13   26.57    0.88
   2  -4 -12  163.63    3.67
   2  -4 -11  154.27    3.31
   2  -4 -10  123.88    3.04
   2  -4  -9    2.22    0.39
   2  -4  -8    5.31    0.42
   2  -4  -7    4.34    0.37
   2  -4  -6   15.96    0.64
   2  -4  -5   22.20    0.72
   2  -4  -4 1255.26   42.33
   2  -4  -3   16.87    0.71
   2  -4  -2   21.61    0.76
   2  -4  -1  215.64    4.37
   2  -4   0 1343.47   26.28
   2  -4   1 1050.78   18.16
   2  -4   3  352.12    6.85
   2  -4   4  144.07    3.19
   2  -4   5   33.92    1.14
   2  -4   6    2.95    0.44
   2  -4   7    5.15    0.49
   2  -4   8   43.85    1.30
   2  -4   9  107.38    2.52
   2  -4  10    5.69    0.50
   2  -4  11    1.13    0.45
   2  -4  12   13.26    0.71
   2  -4  13   18.04    0.96
   2  -4  14    5.83    0.60
   2  -4  15   19.07    0.95
   2  -4  16   56.18    1.71
   2  -4  17   22.06    1.05
   2  -4  18   49.63    1.46
   2  -4  19    4.00    0.66
   2  -4  20    2.46    0.63
   2  -4  21    1.23    0.57
   2  -4  22   65.32    2.04
   2  -4  23    0.23    0.55
   3  -4 -24    2.60    0.56
   3  -4 -23    0.29    0.61
   3  -4 -22    0.08    0.74
   3  -4 -21   92.36    2.31
   3  -4 -20   20.60    1.05
   3  -4 -19    5.68    0.59
   3  -4 -18    7.49    0.67
   3  -4 -17    6.46    0.61
   3  -4 -16    2.02    0.47
   3  -4 -15  102.59    2.49
   3  -4 -14    5.92    0.48
   3  -4 -13  157.88    3.80
   3  -4 -12   83.58    2.08
   3  -4 -11   26.52    1.13
   3  -4 -10    1.06    0.40
   3  -4  -9  132.66    3.34
   3  -4  -8   57.93    1.58
   3  -4  -7  440.25    8.64
   3  -4  -6   39.27    1.02
   3  -4  -5  888.80   16.06
   3  -4  -4    4.23    0.47
   3  -4  -3   77.33    2.05
   3  -4  -2   62.09    1.58
   3  -4  -1  324.64    6.35
   3  -4   0   54.34    1.61
   3  -4   1 2755.08   88.83
   3  -4   2   62.34    1.64
   3  -4   3  175.91    3.83
   3  -4   4  112.94    2.90
   3  -4   5   12.94    0.74
   3  -4   6    0.94    0.43
   3  -4   7   99.81    2.51
   3  -4   8   80.29    1.92
   3  -4   9  338.41    6.94
   3  -4  10   65.00    1.82
   3  -4  11  208.06    4.46
   3  -4  12   16.92    0.90
   3  -4  13   59.97    1.84
   3  -4  14    9.36    0.60
   3  -4  15  102.30    2.54
   3  -4  16   23.39    0.98
   3  -4  17   35.93    1.40
   3  -4  18   10.40    0.96
   3  -4  19   26.24    1.04
   3  -4  20    6.67    0.61
   3  -4  21   23.48    1.19
   3  -4  22   -0.35    0.55
   3  -4  23   19.17    1.01
   4  -4 -24    1.35    0.75
   4  -4 -23    3.64    0.67
   4  -4 -22    0.89    0.63
   4  -4 -21    5.75    0.59
   4  -4 -20   63.31    1.73
   4  -4 -19    1.72    0.53
   4  -4 -18   10.60    0.71
   4  -4 -17    3.21    0.53
   4  -4 -16   14.09    0.72
   4  -4 -15    2.62    0.52
   4  -4 -14  359.36    6.79
   4  -4 -13    0.03    0.54
   4  -4 -12   19.57    0.82
   4  -4 -11   43.97    1.32
   4  -4 -10    1.20    0.40
   4  -4  -9  110.92    2.74
   4  -4  -8   82.96    2.29
   4  -4  -7   43.78    1.28
   4  -4  -6  924.37   16.89
   4  -4  -5  157.13    3.43
   4  -4  -4   60.00    1.67
   4  -4  -3  125.81    2.84
   4  -4  -2  181.23    4.04
   4  -4  -1   61.41    1.75
   4  -4   0  941.35   17.14
   4  -4   1  435.13    8.36
   4  -4   2  892.39   16.29
   4  -4   3 1693.09   29.62
   4  -4   4  518.06   10.04
   4  -4   5  322.44    6.34
   4  -4   6  168.29    3.63
   4  -4   7  374.15    7.48
   4  -4   8   58.80    1.55
   4  -4   9   39.69    1.23
   4  -4  10  100.73    2.59
   4  -4  11   25.70    0.99
   4  -4  12   11.55    0.84
   4  -4  13  110.09    2.76
   4  -4  14   90.83    2.30
   4  -4  15    6.64    0.58
   4  -4  16   21.67    0.84
   4  -4  17   18.90    0.85
   4  -4  18   32.98    1.22
   4  -4  19    7.88    0.74
   4  -4  20    4.25    0.66
   4  -4  21   -0.07    0.58
   4  -4  22   19.60    0.94
   4  -4  23    4.15    1.22
   5  -4 -24    1.85    0.68
   5  -4 -23    4.76    0.66
   5  -4 -22    4.40    0.66
   5  -4 -21    8.42    0.72
   5  -4 -20    6.87    0.77
   5  -4 -19   67.44    2.17
   5  -4 -18    8.80    0.93
   5  -4 -17   39.13    1.51
   5  -4 -16    2.91    0.48
   5  -4 -15   12.82    0.76
   5  -4 -14   46.04    1.44
   5  -4 -13   34.93    1.12
   5  -4 -12   79.63    2.14
   5  -4 -11    1.48    0.37
   5  -4 -10   71.82    2.05
   5  -4  -9  261.97    5.86
   5  -4  -8  609.88   11.65
   5  -4  -7    2.26    0.47
   5  -4  -6  293.36    6.22
   5  -4  -5   26.11    0.99
   5  -4  -4  299.01    6.38
   5  -4  -3  241.79    5.26
   5  -4  -2   47.40    1.39
   5  -4  -1   32.28    1.14
   5  -4   0    4.89    0.53
   5  -4   1 1211.36   21.50
   5  -4   2  279.13    6.16
   5  -4   3 2962.77   96.99
   5  -4   4   59.76    1.75
   5  -4   5  364.29    7.17
   5  -4   6   10.28    0.64
   5  -4   7  230.49    4.84
   5  -4   8  272.71    5.68
   5  -4   9   41.40    1.18
   5  -4  10   48.18    1.42
   5  -4  11  370.02    7.33
   5  -4  12    5.68    0.65
   5  -4  13  311.21    6.14
   5  -4  14   20.78    0.88
   5  -4  15   16.32    0.85
   5  -4  16   17.27    0.85
   5  -4  17   88.37    2.36
   5  -4  18    0.33    0.57
   5  -4  19   37.07    1.21
   5  -4  20   17.78    0.96
   5  -4  21   20.59    0.93
   5  -4  22    0.11    0.68
   6  -4 -24   13.35    0.85
   6  -4 -23    4.88    0.71
   6  -4 -22    2.29    0.69
   6  -4 -21    3.99    0.63
   6  -4 -20    3.63    0.68
   6  -4 -19    1.34    0.54
   6  -4 -18   24.03    1.09
   6  -4 -17   56.14    1.84
   6  -4 -16    8.18    0.72
   6  -4 -15   41.77    1.39
   6  -4 -14   54.82    1.65
   6  -4 -13    1.04    0.51
   6  -4 -12   15.38    0.78
   6  -4 -11    2.53    0.45
   6  -4 -10   25.67    1.04
   6  -4  -9    0.24    0.48
   6  -4  -8   51.80    1.60
   6  -4  -7    1.68    0.46
   6  -4  -6   70.05    2.09
   6  -4  -5   15.78    0.72
   6  -4  -4    5.62    0.62
   6  -4  -3  315.13    5.95
   6  -4  -2  358.83    7.43
   6  -4  -1    2.20    0.64
   6  -4   0  232.34    5.12
   6  -4   1   14.70    0.75
   6  -4   2  462.02    8.98
   6  -4   3  183.42    3.72
   6  -4   4  124.62    2.94
   6  -4   5   50.65    1.49
   6  -4   6   60.04    1.60
   6  -4   7   44.19    1.53
   6  -4   8   78.73    2.04
   6  -4   9   41.51    1.30
   6  -4  10    7.73    0.67
   6  -4  11   17.71    0.81
   6  -4  12   37.78    1.27
   6  -4  13    0.43    0.50
   6  -4  14  184.26    4.10
   6  -4  15   42.62    1.26
   6  -4  16  144.31    3.22
   6  -4  17    2.57    0.49
   6  -4  18   20.70    0.92
   6  -4  19    0.08    0.50
   6  -4  20    5.93    0.59
   6  -4  21    1.54    0.79
   6  -4  22   15.08    1.42
   7  -4 -24    8.15    0.86
   7  -4 -23   11.08    0.83
   7  -4 -22    1.91    0.59
   7  -4 -21   51.13    1.57
   7  -4 -20    8.99    0.73
   7  -4 -19   69.12    2.15
   7  -4 -18    7.44    0.75
   7  -4 -17   37.41    1.37
   7  -4 -16    8.50    0.86
   7  -4 -15   35.65    1.28
   7  -4 -14   79.30    2.32
   7  -4 -13   71.15    2.14
   7  -4 -12   11.82    0.73
   7  -4 -11   56.19    1.59
   7  -4 -10    2.43    0.58
   7  -4  -9    4.79    0.47
   7  -4  -8   26.14    1.08
   7  -4  -7  348.59    6.86
   7  -4  -6   46.20    1.32
   7  -4  -5   29.49    0.96
   7  -4  -4   44.48    1.42
   7  -4  -3    0.78    0.47
   7  -4  -2   16.95    0.77
   7  -4  -1  386.77    7.38
   7  -4   0   36.78    1.08
   7  -4   1  580.96   10.92
   7  -4   2    3.87    0.58
   7  -4   3   72.35    1.96
   7  -4   4  320.05    6.61
   7  -4   5  113.04    2.78
   7  -4   6   53.12    1.47
   7  -4   7   14.70    0.75
   7  -4   8    2.02    0.51
   7  -4   9   16.41    0.85
   7  -4  10   26.43    0.99
   7  -4  11    0.23    0.52
   7  -4  12   17.33    0.99
   7  -4  13  232.96    5.15
   7  -4  14   78.34    2.10
   7  -4  15   39.63    1.42
   7  -4  16    2.82    0.65
   7  -4  17    2.96    0.59
   7  -4  18    0.60    0.55
   7  -4  19    6.54    0.67
   7  -4  20    4.01    0.66
   7  -4  21   28.76    1.09
   8  -4 -24   14.23    0.96
   8  -4 -23    0.85    0.63
   8  -4 -22   48.27    1.63
   8  -4 -21   11.42    0.82
   8  -4 -20   59.50    1.76
   8  -4 -19    3.87    0.66
   8  -4 -18   29.56    1.14
   8  -4 -17    3.28    0.72
   8  -4 -16   83.95    2.39
   8  -4 -15   16.37    0.86
   8  -4 -14   59.99    1.72
   8  -4 -13    4.40    0.57
   8  -4 -12   62.11    1.76
   8  -4 -11   19.12    0.86
   8  -4 -10   56.50    1.67
   8  -4  -9    7.71    0.65
   8  -4  -8  390.55    7.75
   8  -4  -7   21.18    0.91
   8  -4  -6   71.31    2.03
   8  -4  -5    3.22    0.56
   8  -4  -4    2.83    0.56
   8  -4  -3   42.52    1.39
   8  -4  -2  257.53    5.17
   8  -4  -1  270.73    5.72
   8  -4   0  318.08    6.58
   8  -4   1   28.64    0.94
   8  -4   2  364.53    7.75
   8  -4   3  120.22    2.73
   8  -4   4  134.27    3.27
   8  -4   5   51.46    1.33
   8  -4   6    4.51    0.56
   8  -4   7   12.81    0.67
   8  -4   8  116.82    2.94
   8  -4   9    4.40    0.53
   8  -4  10    1.12    0.53
   8  -4  11   59.45    1.80
   8  -4  12  215.16    4.51
   8  -4  13   22.49    0.88
   8  -4  14    6.40    0.65
   8  -4  15   18.07    0.89
   8  -4  16    7.56    0.70
   8  -4  17    3.46    0.63
   8  -4  18   26.31    0.98
   8  -4  19    4.98    0.67
   8  -4  20   50.27    1.40
   9  -4 -24    1.15    1.40
   9  -4 -23   13.83    0.89
   9  -4 -22    2.96    0.77
   9  -4 -21    1.16    0.67
   9  -4 -20   10.03    0.86
   9  -4 -19   66.68    1.90
   9  -4 -18    0.13    0.54
   9  -4 -17  105.47    2.58
   9  -4 -16    1.02    0.66
   9  -4 -15    1.11    0.69
   9  -4 -14   19.82    0.98
   9  -4 -13   31.75    1.23
   9  -4 -12    0.52    0.55
   9  -4 -11  136.94    3.29
   9  -4 -10    0.15    0.44
   9  -4  -9  226.07    4.73
   9  -4  -8  129.15    3.27
   9  -4  -7   27.26    1.03
   9  -4  -6   22.66    0.96
   9  -4  -5  522.56   10.23
   9  -4  -4   -0.08    0.59
   9  -4  -3  684.70   12.81
   9  -4  -2  250.01    5.27
   9  -4  -1    1.89    0.46
   9  -4   0   80.00    2.28
   9  -4   1    1.28    0.49
   9  -4   2   22.04    0.97
   9  -4   3  412.09    8.18
   9  -4   4   10.71    0.69
   9  -4   5  191.01    4.05
   9  -4   6   33.71    1.14
   9  -4   7    1.59    0.53
   9  -4   8   13.57    0.79
   9  -4   9    0.43    0.71
   9  -4  10   26.40    1.08
   9  -4  11   81.11    2.23
   9  -4  12   11.08    0.76
   9  -4  13   41.53    1.56
   9  -4  14    0.72    0.49
   9  -4  15   20.38    0.94
   9  -4  16    4.98    0.60
   9  -4  17   21.87    0.96
   9  -4  18    0.44    0.48
   9  -4  19   26.02    1.00
   9  -4  20    7.89    0.94
  10  -4 -23   -0.22    0.69
  10  -4 -22    7.11    0.76
  10  -4 -21    3.12    0.64
  10  -4 -20   33.03    1.21
  10  -4 -19    0.68    0.67
  10  -4 -18   94.84    2.31
  10  -4 -17    6.15    0.77
  10  -4 -16    4.81    0.60
  10  -4 -15   31.78    1.21
  10  -4 -14   34.74    1.38
  10  -4 -13    4.15    0.64
  10  -4 -12  228.09    4.76
  10  -4 -11    7.48    0.66
  10  -4 -10   31.07    1.17
  10  -4  -9    4.61    0.58
  10  -4  -8    0.93    0.60
  10  -4  -7  265.16    5.46
  10  -4  -6  233.04    5.25
  10  -4  -5   20.20    0.92
  10  -4  -4  351.97    7.09
  10  -4  -3   37.74    1.22
  10  -4  -2   16.21    0.80
  10  -4  -1  108.49    2.68
  10  -4   0    2.01    0.52
  10  -4   1    0.00    0.49
  10  -4   2   63.10    1.82
  10  -4   3   11.99    0.86
  10  -4   4    0.99    0.47
  10  -4   5   61.92    1.67
  10  -4   6    0.89    0.72
  10  -4   7    4.31    0.63
  10  -4   8   51.76    1.58
  10  -4   9   44.33    1.51
  10  -4  10   10.17    0.79
  10  -4  11   -0.16    0.55
  10  -4  12   35.79    1.35
  10  -4  13   19.11    0.89
  10  -4  14    1.71    0.65
  10  -4  15    0.13    0.62
  10  -4  16   32.01    1.25
  10  -4  17    9.35    0.75
  10  -4  18    0.74    0.69
  10  -4  19   -0.48    0.70
  11  -4 -23    2.02    0.71
  11  -4 -22    0.02    0.70
  11  -4 -21   52.71    1.69
  11  -4 -20   -0.14    0.71
  11  -4 -19   -0.05    0.70
  11  -4 -18   -0.63    0.67
  11  -4 -17    3.18    0.75
  11  -4 -16   16.47    0.99
  11  -4 -15   33.26    1.28
  11  -4 -14    4.11    0.61
  11  -4 -13    0.84    0.61
  11  -4 -12   37.46    1.20
  11  -4 -11    1.34    0.55
  11  -4 -10   40.23    1.38
  11  -4  -9  127.70    2.96
  11  -4  -8   11.71    0.93
  11  -4  -7  326.58    6.69
  11  -4  -6    0.81    0.60
  11  -4  -5    5.61    0.63
  11  -4  -4    8.41    0.69
  11  -4  -3   13.12    0.86
  11  -4  -2    1.87    0.73
  11  -4  -1  154.21    3.53
  11  -4   0    1.16    0.64
  11  -4   1  212.00    5.05
  11  -4   2   76.92    2.02
  11  -4   3   20.34    0.94
  11  -4   4   68.03    2.04
  11  -4   5   18.79    0.92
  11  -4   6   40.93    1.33
  11  -4   7  139.64    3.17
  11  -4   8    1.57    0.63
  11  -4   9  108.07    2.73
  11  -4  10   18.76    0.91
  11  -4  11    1.65    0.63
  11  -4  12    7.10    0.64
  11  -4  13   64.72    1.71
  11  -4  14   -0.30    0.50
  11  -4  15  129.83    3.20
  11  -4  16    5.66    0.65
  11  -4  17    4.52    0.64
  11  -4  18    0.31    0.60
  12  -4 -22   11.41    1.01
  12  -4 -21    1.04    0.78
  12  -4 -20    1.13    0.71
  12  -4 -19    1.06    0.69
  12  -4 -18   32.31    1.17
  12  -4 -17    8.26    0.71
  12  -4 -16   46.51    1.60
  12  -4 -15   24.25    1.11
  12  -4 -14   90.53    2.36
  12  -4 -13    0.28    0.62
  12  -4 -12    3.10    0.59
  12  -4 -11    2.60    0.65
  12  -4 -10  148.74    3.49
  12  -4  -9    7.98    0.90
  12  -4  -8  340.14    6.65
  12  -4  -7    3.96    0.71
  12  -4  -6    0.70    0.57
  12  -4  -5   38.08    1.20
  12  -4  -4   69.40    1.86
  12  -4  -3    0.57    0.50
  12  -4  -2   52.19    1.80
  12  -4  -1  181.64    4.16
  12  -4   0  100.95    2.52
  12  -4   1   33.89    1.25
  12  -4   2  110.00    2.85
  12  -4   3    2.16    0.66
  12  -4   4    7.97    0.71
  12  -4   5   48.26    1.50
  12  -4   6   17.95    0.86
  12  -4   7    6.63    0.74
  12  -4   8    2.31    0.53
  12  -4   9  107.55    2.99
  12  -4  10   48.75    1.65
  12  -4  11    3.77    0.67
  12  -4  12   42.39    1.48
  12  -4  13    0.78    0.53
  12  -4  14   74.72    2.06
  12  -4  15   18.41    0.93
  12  -4  16    0.22    0.51
  12  -4  17    0.08    0.51
  13  -4 -22    0.59    1.02
  13  -4 -21    0.47    0.58
  13  -4 -20    2.70    0.68
  13  -4 -19    5.85    0.85
  13  -4 -18    3.05    0.93
  13  -4 -17    9.04    0.88
  13  -4 -16   -0.38    0.67
  13  -4 -15    8.05    0.83
  13  -4 -14   35.31    1.39
  13  -4 -13   11.94    0.91
  13  -4 -12   -0.33    0.80
  13  -4 -11   87.42    2.21
  13  -4 -10   45.30    1.61
  13  -4  -9   12.02    0.95
  13  -4  -8    6.85    0.75
  13  -4  -7   14.05    1.05
  13  -4  -6  131.15    3.62
  13  -4  -5   88.91    2.29
  13  -4  -4    8.23    0.81
  13  -4  -3   24.40    1.00
  13  -4  -2    0.00    0.54
  13  -4  -1    7.07    0.67
  13  -4   0    9.22    0.71
  13  -4   1  102.17    2.32
  13  -4   2   36.03    1.37
  13  -4   3   94.89    2.31
  13  -4   4    0.50    0.65
  13  -4   5    2.84    0.77
  13  -4   6    2.02    0.59
  13  -4   7   43.05    1.54
  13  -4   8   13.71    0.76
  13  -4   9   70.50    1.86
  13  -4  10    5.71    0.65
  13  -4  11    6.98    0.70
  13  -4  12    1.18    0.71
  13  -4  13    4.19    0.82
  13  -4  14   -0.20    0.67
  13  -4  15    7.67    0.69
  13  -4  16    0.28    0.63
  14  -4 -21    2.31    0.67
  14  -4 -20    9.52    0.82
  14  -4 -19    0.22    0.63
  14  -4 -18   29.05    1.10
  14  -4 -17    0.13    0.73
  14  -4 -16    2.69    0.74
  14  -4 -15    5.91    0.73
  14  -4 -14    6.53    0.78
  14  -4 -13   19.29    1.11
  14  -4 -12   22.71    1.18
  14  -4 -11   25.30    1.19
  14  -4 -10  186.73    4.19
  14  -4  -9    7.85    0.83
  14  -4  -8    9.47    0.80
  14  -4  -7   57.67    1.88
  14  -4  -6   37.09    1.37
  14  -4  -5   15.46    0.86
  14  -4  -4   75.45    2.13
  14  -4  -3    4.74    0.75
  14  -4  -2   71.21    2.19
  14  -4  -1   47.87    1.64
  14  -4   0  144.31    3.42
  14  -4   1    0.73    0.70
  14  -4   2    7.27    0.87
  14  -4   3    9.96    0.83
  14  -4   4   57.98    1.77
  14  -4   5   -0.06    0.68
  14  -4   6  125.83    2.91
  14  -4   7    7.84    0.77
  14  -4   8    8.85    0.68
  14  -4   9    8.34    0.74
  14  -4  10   20.43    1.05
  14  -4  11   -0.09    0.50
  14  -4  12    0.94    0.53
  14  -4  13   -0.14    0.60
  14  -4  14   29.59    1.35
  14  -4  15    0.87    1.16
  15  -4 -20    6.29    1.07
  15  -4 -19   15.41    1.10
  15  -4 -18   -0.35    0.69
  15  -4 -17   40.00    1.43
  15  -4 -16    4.78    0.74
  15  -4 -15   36.40    1.29
  15  -4 -14    2.62    0.64
  15  -4 -13   14.25    1.00
  15  -4 -12   14.81    0.96
  15  -4 -11    7.04    0.82
  15  -4 -10    0.45    0.73
  15  -4  -9   71.27    2.14
  15  -4  -8    0.33    0.59
  15  -4  -7   19.28    0.97
  15  -4  -6   10.97    0.84
  15  -4  -5    3.87    0.69
  15  -4  -4   10.45    0.86
  15  -4  -3   14.58    0.89
  15  -4  -2    6.71    0.67
  15  -4  -1   42.73    1.42
  15  -4   0    2.42    0.87
  15  -4   1    6.84    0.78
  15  -4   2    0.98    0.66
  15  -4   3    6.61    0.91
  15  -4   4    0.37    0.61
  15  -4   5  167.08    4.05
  15  -4   6    2.10    0.63
  15  -4   7   -0.08    0.65
  15  -4   8   16.90    0.90
  15  -4   9   23.67    0.96
  15  -4  10   23.80    1.27
  15  -4  11   -0.23    0.58
  15  -4  12    0.53    0.57
  15  -4  13   18.09    0.88
  16  -4 -19   -1.21    0.84
  16  -4 -18   16.20    1.27
  16  -4 -17    1.12    0.68
  16  -4 -16   25.75    1.14
  16  -4 -15    0.28    0.64
  16  -4 -14   -0.89    0.66
  16  -4 -13    0.29    0.61
  16  -4 -12    1.42    0.93
  16  -4 -11    6.46    0.84
  16  -4 -10   27.58    1.23
  16  -4  -9    0.62    0.59
  16  -4  -8   18.08    1.08
  16  -4  -7    0.75    0.63
  16  -4  -6   -0.16    0.70
  16  -4  -5    0.36    0.60
  16  -4  -4   10.15    0.88
  16  -4  -3    4.06    0.70
  16  -4  -2  102.80    2.61
  16  -4  -1   13.41    0.95
  16  -4   0    5.62    0.66
  16  -4   1   59.60    1.91
  16  -4   2   11.21    0.79
  16  -4   3    7.90    0.74
  16  -4   4   17.89    0.91
  16  -4   5    0.36    0.61
  16  -4   6    3.35    0.71
  16  -4   7    5.49    0.78
  16  -4   8    2.46    0.65
  16  -4   9    3.87    0.68
  16  -4  10    2.39    0.71
  16  -4  11    2.06    0.56
  16  -4  12   12.97    0.85
  17  -4 -18    0.19    0.82
  17  -4 -17    2.37    1.00
  17  -4 -16    2.30    0.70
  17  -4 -15    1.25    0.72
  17  -4 -14   22.72    1.03
  17  -4 -13    6.28    0.71
  17  -4 -12    1.13    0.78
  17  -4 -11   78.56    2.24
  17  -4 -10    0.80    0.65
  17  -4  -9    0.43    0.73
  17  -4  -8   19.03    1.04
  17  -4  -7   22.94    1.13
  17  -4  -6   35.44    1.37
  17  -4  -5   26.00    1.13
  17  -4  -4    0.00    0.73
  17  -4  -3   12.66    0.92
  17  -4  -2   24.43    1.25
  17  -4  -1    5.43    1.06
  17  -4   0   41.87    1.37
  17  -4   1   13.79    0.84
  17  -4   2    0.28    0.71
  17  -4   3   14.98    0.86
  17  -4   4    7.17    0.76
  17  -4   5    6.47    0.72
  17  -4   6    6.67    0.76
  17  -4   7    9.27    0.84
  17  -4   8    0.12    0.60
  17  -4   9   31.94    1.14
  17  -4  10    6.23    0.80
  18  -4 -16    4.17    0.76
  18  -4 -15   10.45    1.04
  18  -4 -14   22.38    1.03
  18  -4 -13    1.34    0.80
  18  -4 -12    8.85    0.93
  18  -4 -11    0.84    0.67
  18  -4 -10    0.54    0.70
  18  -4  -9    2.17    0.75
  18  -4  -8    7.40    0.89
  18  -4  -7    3.56    0.81
  18  -4  -6   48.05    1.57
  18  -4  -5    3.18    0.83
  18  -4  -4    1.69    0.76
  18  -4  -3    4.34    0.74
  18  -4  -2   12.64    0.98
  18  -4  -1   -0.07    0.80
  18  -4   0   37.75    1.70
  18  -4   1   11.41    1.02
  18  -4   2   75.11    2.04
  18  -4   3   12.49    0.91
  18  -4   4    4.44    0.78
  18  -4   5    0.74    0.62
  18  -4   6   13.46    0.95
  18  -4   7   12.19    0.81
  18  -4   8   26.35    1.11
  19  -4 -14   -0.33    0.86
  19  -4 -13    4.51    0.81
  19  -4 -12    0.70    0.69
  19  -4 -11    1.95    0.66
  19  -4 -10    1.07    0.64
  19  -4  -9   66.02    1.86
  19  -4  -8    0.63    0.76
  19  -4  -7   16.57    0.95
  19  -4  -6   22.66    1.13
  19  -4  -5   38.94    1.33
  19  -4  -4    1.06    0.67
  19  -4  -3   70.29    1.75
  19  -4  -2    1.55    0.73
  19  -4  -1   17.58    1.00
  19  -4   0    0.04    0.70
  19  -4   1   35.39    1.42
  19  -4   2    0.73    0.62
  19  -4   3   17.77    1.12
  19  -4   4    1.13    0.73
  19  -4   5   25.51    1.20
  19  -4   6    2.25    0.82
  20  -4 -12   15.91    1.09
  20  -4 -11    1.39    0.86
  20  -4 -10   14.76    1.21
  20  -4  -9    3.94    0.78
  20  -4  -8    8.68    0.78
  20  -4  -7    0.98    0.94
  20  -4  -6   20.48    1.00
  20  -4  -5   11.95    1.08
  20  -4  -4   13.40    0.97
  20  -4  -3    1.68    0.63
  20  -4  -2    2.71    0.72
  20  -4  -1    1.11    0.78
  20  -4   0    0.09    0.77
  20  -4   1   -0.13    0.66
  20  -4   2   18.06    0.94
  20  -4   3    1.53    0.82
  21  -4  -7    4.50    1.40
  21  -4  -6    2.25    1.09
  21  -4  -5    1.17    0.72
  21  -4  -4    1.28    0.61
  21  -4  -3    2.87    1.02
 -20  -5  -2    8.01    0.94
 -20  -5  -1    6.49    0.95
 -20  -5   0    8.45    0.86
 -20  -5   1   -0.02    0.73
 -20  -5   2    3.12    0.84
 -20  -5   3    8.60    0.80
 -20  -5   4   -0.42    0.82
 -20  -5   5    5.30    0.76
 -20  -5   6   26.40    1.19
 -20  -5   7   -0.61    0.70
 -20  -5   8    2.55    0.72
 -20  -5   9   14.39    0.86
 -20  -5  10    1.13    0.94
 -20  -5  11    5.27    0.88
 -19  -5  -5    2.01    0.62
 -19  -5  -4    7.38    0.87
 -19  -5  -3    5.98    0.89
 -19  -5  -2    0.29    0.60
 -19  -5  -1   21.59    1.07
 -19  -5   0    0.75    0.72
 -19  -5   1   11.70    0.87
 -19  -5   2   15.47    1.09
 -19  -5   3    8.20    0.77
 -19  -5   4    0.98    0.68
 -19  -5   5   15.57    0.91
 -19  -5   6    8.60    0.80
 -19  -5   7   17.11    1.04
 -19  -5   8   47.24    1.55
 -19  -5   9    0.20    0.61
 -19  -5  10    5.03    0.78
 -19  -5  11    8.72    0.85
 -19  -5  12   -0.27    0.95
 -19  -5  13    5.41    0.79
 -19  -5  14    3.57    0.86
 -18  -5  -8    5.42    0.94
 -18  -5  -7    0.60    0.66
 -18  -5  -6    0.14    0.58
 -18  -5  -5    3.15    0.78
 -18  -5  -4    5.20    0.69
 -18  -5  -3    1.41    0.57
 -18  -5  -2    0.04    0.78
 -18  -5  -1    0.15    0.54
 -18  -5   0    0.93    0.59
 -18  -5   1    2.36    0.66
 -18  -5   2   15.13    0.85
 -18  -5   3    3.54    0.67
 -18  -5   4    4.69    0.65
 -18  -5   5    2.30    0.62
 -18  -5   6    1.55    0.64
 -18  -5   7   24.53    1.12
 -18  -5   8    1.49    0.70
 -18  -5   9    2.53    0.63
 -18  -5  10    3.31    0.79
 -18  -5  11    2.97    0.75
 -18  -5  12   10.01    1.02
 -18  -5  13    1.28    0.69
 -18  -5  14    3.90    0.84
 -18  -5  15    0.27    0.75
 -18  -5  16   31.97    1.21
 -17  -5 -10   11.70    1.12
 -17  -5  -9   12.90    0.77
 -17  -5  -8   17.29    0.86
 -17  -5  -7   32.88    1.25
 -17  -5  -6    3.29    0.65
 -17  -5  -5    4.59    0.57
 -17  -5  -4    1.69    0.73
 -17  -5  -3    5.49    0.62
 -17  -5  -2    4.80    0.72
 -17  -5  -1   45.94    1.57
 -17  -5   0    1.05    0.56
 -17  -5   1   87.65    2.36
 -17  -5   2    0.49    0.58
 -17  -5   3    2.73    0.72
 -17  -5   4   25.38    1.12
 -17  -5   5   68.31    2.08
 -17  -5   6   39.16    1.36
 -17  -5   7   70.98    1.99
 -17  -5   8    0.14    0.61
 -17  -5   9   22.69    1.04
 -17  -5  10   10.37    1.07
 -17  -5  11    2.68    0.70
 -17  -5  12    0.88    0.85
 -17  -5  13    4.69    0.79
 -17  -5  14    2.75    0.72
 -17  -5  15   18.71    0.95
 -17  -5  16    1.57    0.82
 -17  -5  17    0.03    0.79
 -16  -5 -11    8.04    0.70
 -16  -5 -10    5.21    0.68
 -16  -5  -9    0.47    0.60
 -16  -5  -8   72.41    1.90
 -16  -5  -7    7.78    0.62
 -16  -5  -6   21.55    1.10
 -16  -5  -5    1.21    0.63
 -16  -5  -4   10.13    0.63
 -16  -5  -3   18.34    0.95
 -16  -5  -2   91.40    2.10
 -16  -5  -1    5.79    0.65
 -16  -5   0   71.09    1.84
 -16  -5   1   11.11    0.79
 -16  -5   2    8.84    0.69
 -16  -5   3   26.44    1.11
 -16  -5   4    8.96    0.75
 -16  -5   5   21.01    1.06
 -16  -5   6   33.30    1.32
 -16  -5   7   25.05    1.21
 -16  -5   8    6.88    0.74
 -16  -5   9    1.12    0.66
 -16  -5  10   11.05    1.00
 -16  -5  11    7.91    0.75
 -16  -5  12    2.94    0.71
 -16  -5  13    0.12    0.66
 -16  -5  14    0.23    0.66
 -16  -5  15    2.51    0.84
 -16  -5  16   -0.21    0.79
 -16  -5  17   -0.07    0.68
 -16  -5  18    1.69    0.68
 -16  -5  19    1.18    1.09
 -15  -5 -13    0.19    0.80
 -15  -5 -12    9.40    0.84
 -15  -5 -11    0.63    0.57
 -15  -5 -10    1.33    0.64
 -15  -5  -9   69.02    2.04
 -15  -5  -8   10.14    0.64
 -15  -5  -7    2.71    0.54
 -15  -5  -6   30.60    1.04
 -15  -5  -5    2.94    0.53
 -15  -5  -4    3.73    0.74
 -15  -5  -3   99.83    2.44
 -15  -5  -2    2.20    0.66
 -15  -5  -1    2.99    0.51
 -15  -5   0   32.01    1.24
 -15  -5   1   36.36    1.39
 -15  -5   2   -0.09    0.52
 -15  -5   3    3.51    0.64
 -15  -5   4   10.48    0.73
 -15  -5   5    8.65    0.78
 -15  -5   6   57.38    1.62
 -15  -5   7    9.45    0.79
 -15  -5   8   -0.01    0.78
 -15  -5   9   53.79    1.62
 -15  -5  10   22.87    1.23
 -15  -5  11    5.60    0.79
 -15  -5  12   -0.37    0.72
 -15  -5  13    1.95    0.79
 -15  -5  14   -0.61    0.65
 -15  -5  15    5.80    0.73
 -15  -5  16    5.03    1.07
 -15  -5  17    3.01    0.69
 -15  -5  18    0.73    0.67
 -15  -5  19   13.59    1.07
 -15  -5  20   12.17    1.01
 -14  -5 -14    1.37    0.52
 -14  -5 -13   26.68    1.01
 -14  -5 -12    6.97    0.65
 -14  -5 -11    1.50    0.52
 -14  -5 -10   36.04    1.20
 -14  -5  -9   43.17    1.27
 -14  -5  -8    9.74    0.66
 -14  -5  -7    4.15    0.56
 -14  -5  -6   13.52    0.77
 -14  -5  -5    1.13    0.47
 -14  -5  -4  117.93    2.60
 -14  -5  -3   16.03    0.77
 -14  -5  -2    1.57    0.61
 -14  -5  -1  148.31    3.25
 -14  -5   0    0.55    0.64
 -14  -5   1  112.89    2.54
 -14  -5   2    6.85    0.61
 -14  -5   3    0.29    0.62
 -14  -5   4   13.60    0.73
 -14  -5   5   15.28    0.78
 -14  -5   6   39.44    1.50
 -14  -5   7    0.25    0.55
 -14  -5   8   35.70    1.40
 -14  -5   9    0.32    0.69
 -14  -5  10    0.47    0.67
 -14  -5  11   65.44    1.89
 -14  -5  12    9.23    0.97
 -14  -5  13   26.39    1.05
 -14  -5  14   89.42    2.30
 -14  -5  15    1.41    0.65
 -14  -5  16   27.47    1.49
 -14  -5  17    0.38    0.73
 -14  -5  18   63.89    1.78
 -14  -5  19    8.31    0.80
 -14  -5  20    0.51    0.66
 -13  -5 -15    0.20    0.59
 -13  -5 -14    1.40    0.57
 -13  -5 -13   12.59    0.79
 -13  -5 -12    0.57    0.48
 -13  -5 -11    8.26    0.76
 -13  -5 -10    4.27    0.51
 -13  -5  -9   60.23    1.65
 -13  -5  -8    0.19    0.48
 -13  -5  -7   72.99    1.85
 -13  -5  -6    0.39    0.49
 -13  -5  -5  100.65    2.47
 -13  -5  -4   28.17    0.92
 -13  -5  -3    0.24    0.46
 -13  -5  -2   44.23    1.36
 -13  -5  -1    0.56    0.49
 -13  -5   0    3.03    0.56
 -13  -5   1    1.13    0.60
 -13  -5   2   76.75    1.95
 -13  -5   3   27.49    1.13
 -13  -5   4  106.50    2.82
 -13  -5   5   33.39    1.21
 -13  -5   6   -0.27    0.54
 -13  -5   7   18.29    0.92
 -13  -5   8    9.59    0.79
 -13  -5   9  153.55    3.28
 -13  -5  10   84.94    2.37
 -13  -5  11   44.55    1.49
 -13  -5  12   31.35    1.51
 -13  -5  13    5.31    0.67
 -13  -5  14   -0.80    0.55
 -13  -5  15   14.43    1.04
 -13  -5  16    9.94    0.94
 -13  -5  17   62.81    1.84
 -13  -5  18   11.07    0.97
 -13  -5  19    2.75    0.70
 -13  -5  20   18.33    0.98
 -13  -5  21    1.22    0.85
 -12  -5 -17    5.99    1.52
 -12  -5 -16    1.85    0.58
 -12  -5 -15    0.18    0.58
 -12  -5 -14    2.12    0.50
 -12  -5 -13   18.58    0.91
 -12  -5 -12    3.45    0.55
 -12  -5 -11   14.50    0.80
 -12  -5 -10   40.84    1.28
 -12  -5  -9   16.05    0.91
 -12  -5  -8  258.69    4.96
 -12  -5  -7   40.01    1.12
 -12  -5  -6    1.67    0.52
 -12  -5  -5   97.40    2.29
 -12  -5  -4    1.31    0.46
 -12  -5  -3   22.93    0.93
 -12  -5  -2   59.72    1.56
 -12  -5  -1   16.47    0.74
 -12  -5   0    6.73    0.56
 -12  -5   1    9.44    0.72
 -12  -5   2    3.83    0.51
 -12  -5   3   61.25    1.95
 -12  -5   4  132.63    3.16
 -12  -5   5    0.98    0.56
 -12  -5   6   16.04    0.84
 -12  -5   7   38.26    1.40
 -12  -5   8   10.36    0.85
 -12  -5   9  111.45    2.83
 -12  -5  10   19.18    0.89
 -12  -5  11    5.06    0.75
 -12  -5  12  114.20    2.74
 -12  -5  13   24.33    1.07
 -12  -5  14    2.34    0.67
 -12  -5  15    9.37    0.88
 -12  -5  16    1.68    0.80
 -12  -5  17   27.84    1.17
 -12  -5  18   43.50    1.40
 -12  -5  19    0.82    0.78
 -12  -5  20   24.73    1.03
 -12  -5  21    3.10    0.78
 -12  -5  22    0.65    1.00
 -11  -5 -18    1.38    1.04
 -11  -5 -17   12.33    0.91
 -11  -5 -16    3.69    0.59
 -11  -5 -15    9.09    0.69
 -11  -5 -14    5.16    0.58
 -11  -5 -13    2.10    0.51
 -11  -5 -12   19.45    0.92
 -11  -5 -11   72.50    1.86
 -11  -5 -10   27.77    1.02
 -11  -5  -9   39.08    1.27
 -11  -5  -8    1.22    0.52
 -11  -5  -7   94.96    2.25
 -11  -5  -6  170.64    3.75
 -11  -5  -5  148.28    3.26
 -11  -5  -4   20.87    0.85
 -11  -5  -3   22.60    0.94
 -11  -5  -2    1.19    0.46
 -11  -5  -1    1.71    0.48
 -11  -5   0  109.70    2.80
 -11  -5   1   59.69    1.61
 -11  -5   2   42.46    1.32
 -11  -5   3   49.62    1.58
 -11  -5   4   14.06    0.69
 -11  -5   5   93.50    2.49
 -11  -5   6    0.26    0.58
 -11  -5   7   70.08    2.19
 -11  -5   8   31.51    1.08
 -11  -5   9  105.25    2.68
 -11  -5  10   17.73    0.90
 -11  -5  11  373.05    7.70
 -11  -5  12    2.62    0.56
 -11  -5  13   25.21    1.09
 -11  -5  14   12.25    0.92
 -11  -5  15    7.83    0.87
 -11  -5  16    3.81    0.77
 -11  -5  17   44.59    1.49
 -11  -5  18    0.00    0.73
 -11  -5  19   17.96    0.93
 -11  -5  20   23.24    1.15
 -11  -5  21    2.48    0.98
 -11  -5  22   14.10    0.93
 -10  -5 -18    2.28    0.55
 -10  -5 -17    7.58    0.64
 -10  -5 -16   10.19    0.74
 -10  -5 -15    6.58    0.61
 -10  -5 -14   35.52    1.29
 -10  -5 -13    2.42    0.44
 -10  -5 -12   42.56    1.33
 -10  -5 -11    0.39    0.33
 -10  -5 -10   10.90    0.61
 -10  -5  -9   41.45    1.14
 -10  -5  -8   21.34    0.75
 -10  -5  -7   13.14    0.57
 -10  -5  -6  171.58    3.91
 -10  -5  -5    8.81    0.51
 -10  -5  -4   19.52    0.75
 -10  -5  -3   20.11    0.82
 -10  -5  -2  186.47    4.27
 -10  -5  -1   34.56    1.23
 -10  -5   0   35.76    1.14
 -10  -5   1   64.24    1.68
 -10  -5   2   80.43    1.99
 -10  -5   3   14.13    0.69
 -10  -5   4   27.39    1.06
 -10  -5   5    2.64    0.63
 -10  -5   6    4.39    0.55
 -10  -5   7   23.00    1.01
 -10  -5   8  381.11    7.45
 -10  -5   9   65.60    1.80
 -10  -5  10  246.40    5.08
 -10  -5  11  126.82    2.88
 -10  -5  12   28.57    1.12
 -10  -5  13   54.18    1.76
 -10  -5  14    7.90    0.83
 -10  -5  15    7.60    0.70
 -10  -5  16   28.43    1.23
 -10  -5  17    1.00    0.77
 -10  -5  18    2.76    0.64
 -10  -5  19   16.66    0.94
 -10  -5  20    1.82    0.88
 -10  -5  21    8.22    0.91
 -10  -5  22   28.23    1.09
 -10  -5  23   11.92    0.84
  -9  -5 -19    1.03    0.61
  -9  -5 -18    1.75    0.53
  -9  -5 -17   13.48    0.96
  -9  -5 -16    3.68    0.52
  -9  -5 -15   46.13    1.52
  -9  -5 -14    1.94    0.46
  -9  -5 -13   72.83    2.08
  -9  -5 -12   10.12    0.66
  -9  -5 -11    8.42    0.54
  -9  -5 -10    0.81    0.34
  -9  -5  -9   35.94    1.15
  -9  -5  -8    3.96    0.43
  -9  -5  -7  214.56    4.39
  -9  -5  -6  126.02    2.95
  -9  -5  -5   62.81    1.58
  -9  -5  -4   30.98    0.94
  -9  -5  -3  142.46    3.23
  -9  -5  -2   53.30    1.52
  -9  -5  -1   30.31    1.03
  -9  -5   0   64.01    1.54
  -9  -5   1    9.04    0.63
  -9  -5   2   83.19    2.17
  -9  -5   3    7.47    0.61
  -9  -5   4   60.56    1.45
  -9  -5   5    7.97    0.57
  -9  -5   6    7.78    0.59
  -9  -5   7  116.17    2.92
  -9  -5   8  192.42    4.44
  -9  -5   9  219.21    5.12
  -9  -5  10  192.34    4.35
  -9  -5  11    2.91    0.65
  -9  -5  12    3.76    0.61
  -9  -5  13    6.62    0.67
  -9  -5  14   16.19    0.99
  -9  -5  15    2.05    0.59
  -9  -5  16   10.15    0.78
  -9  -5  17    6.16    0.70
  -9  -5  18   16.58    0.93
  -9  -5  19   21.69    1.13
  -9  -5  20    0.77    0.72
  -9  -5  21   65.12    1.88
  -9  -5  22   13.15    0.95
  -9  -5  23    4.64    0.69
  -8  -5 -20    8.69    0.88
  -8  -5 -19    2.60    0.51
  -8  -5 -18    3.43    0.52
  -8  -5 -17    3.21    0.49
  -8  -5 -16   25.07    0.99
  -8  -5 -15    0.19    0.36
  -8  -5 -14   21.92    0.90
  -8  -5 -13    6.66    0.47
  -8  -5 -12   12.98    0.61
  -8  -5 -11   69.12    1.87
  -8  -5 -10  106.88    2.55
  -8  -5  -9    0.16    0.29
  -8  -5  -8  189.70    3.97
  -8  -5  -7  132.05    2.92
  -8  -5  -6   11.69    0.49
  -8  -5  -5   76.60    1.77
  -8  -5  -4    4.30    0.36
  -8  -5  -3    1.71    0.42
  -8  -5  -2    2.38    0.40
  -8  -5  -1   21.12    0.82
  -8  -5   0   29.28    1.11
  -8  -5   1  433.41    8.98
  -8  -5   2    3.88    0.55
  -8  -5   3  366.43    7.54
  -8  -5   4   52.93    1.64
  -8  -5   5  314.59    6.65
  -8  -5   6  338.71    6.63
  -8  -5   7    4.84    0.69
  -8  -5   8    2.67    0.52
  -8  -5   9   79.08    2.20
  -8  -5  10    0.94    0.53
  -8  -5  11    4.00    0.63
  -8  -5  12   84.36    2.26
  -8  -5  13   21.88    1.00
  -8  -5  14    4.36    0.60
  -8  -5  15   27.20    1.07
  -8  -5  16   51.03    1.66
  -8  -5  17    4.79    0.67
  -8  -5  18   92.18    2.32
  -8  -5  19    1.19    0.81
  -8  -5  20   69.17    2.24
  -8  -5  21    0.33    0.73
  -8  -5  22    0.81    0.63
  -8  -5  23   -0.19    0.59
  -8  -5  24    8.60    1.47
  -7  -5 -21   18.15    1.59
  -7  -5 -20    0.32    0.52
  -7  -5 -19    0.59    0.47
  -7  -5 -18    1.19    0.45
  -7  -5 -17   88.08    2.60
  -7  -5 -16    8.24    0.51
  -7  -5 -15   95.00    2.23
  -7  -5 -14   62.92    1.80
  -7  -5 -13    2.64    0.33
  -7  -5 -12    7.89    0.48
  -7  -5 -11  212.42    4.43
  -7  -5 -10    4.28    0.35
  -7  -5  -9   27.28    0.80
  -7  -5  -8  120.14    2.77
  -7  -5  -7  161.23    3.39
  -7  -5  -6   46.18    1.14
  -7  -5  -5  177.99    3.66
  -7  -5  -4    1.36    0.26
  -7  -5  -3  275.84    5.19
  -7  -5  -2    2.00    0.40
  -7  -5  -1   23.82    0.95
  -7  -5   0  184.69    4.26
  -7  -5   1   88.18    2.15
  -7  -5   2   52.46    1.48
  -7  -5   3   59.92    1.70
  -7  -5   4  159.84    3.65
  -7  -5   5  329.77    6.42
  -7  -5   6   52.09    1.74
  -7  -5   7    4.91    0.52
  -7  -5   8    4.82    0.73
  -7  -5   9  237.13    4.92
  -7  -5  10  107.28    2.74
  -7  -5  11   32.61    1.25
  -7  -5  12   40.42    1.32
  -7  -5  13   59.58    1.82
  -7  -5  14   37.48    1.28
  -7  -5  15    2.51    0.60
  -7  -5  16    4.87    0.72
  -7  -5  17   28.66    1.16
  -7  -5  18    1.49    0.68
  -7  -5  19   81.56    2.19
  -7  -5  20   14.23    0.98
  -7  -5  21    3.87    0.88
  -7  -5  22    9.45    0.77
  -7  -5  23    0.54    0.79
  -7  -5  24   -0.27    0.69
  -6  -5 -21    1.00    0.54
  -6  -5 -20    0.51    0.51
  -6  -5 -19   32.59    1.28
  -6  -5 -18   20.06    0.81
  -6  -5 -17   10.42    0.66
  -6  -5 -16   29.13    1.14
  -6  -5 -15   26.40    0.99
  -6  -5 -14   11.37    0.53
  -6  -5 -13    3.53    0.38
  -6  -5 -12   22.83    0.72
  -6  -5 -11  180.64    4.02
  -6  -5 -10    6.54    0.38
  -6  -5  -9   76.44    1.81
  -6  -5  -8  359.43    6.79
  -6  -5  -7   18.55    0.58
  -6  -5  -6  319.71    6.10
  -6  -5  -5   75.78    1.80
  -6  -5  -4  816.76   14.08
  -6  -5  -3   86.93    2.05
  -6  -5  -2   20.68    0.74
  -6  -5  -1   13.94    0.60
  -6  -5   0  263.80    5.91
  -6  -5   1   97.10    2.38
  -6  -5   2  277.30    5.69
  -6  -5   3  246.72    5.32
  -6  -5   4  573.66   10.90
  -6  -5   5  171.54    3.65
  -6  -5   6   46.00    1.46
  -6  -5   7   69.99    1.79
  -6  -5   8  153.93    3.65
  -6  -5   9    4.68    0.60
  -6  -5  10   35.77    1.24
  -6  -5  11  341.85    7.15
  -6  -5  12   59.17    1.67
  -6  -5  13  126.95    3.04
  -6  -5  14  125.87    3.11
  -6  -5  15    5.24    0.69
  -6  -5  16    0.03    0.74
  -6  -5  17   52.23    1.59
  -6  -5  18    0.19    0.67
  -6  -5  19    1.01    0.61
  -6  -5  20  196.49    4.27
  -6  -5  21    3.36    0.68
  -6  -5  22   40.53    1.37
  -6  -5  23   -0.19    0.83
  -6  -5  24   -0.56    0.67
  -5  -5 -22    8.96    1.29
  -5  -5 -21    6.71    0.89
  -5  -5 -20   23.71    1.18
  -5  -5 -19   16.86    0.85
  -5  -5 -18    8.64    0.65
  -5  -5 -17   48.02    1.54
  -5  -5 -16    1.03    0.39
  -5  -5 -15   16.75    0.74
  -5  -5 -14   10.08    0.53
  -5  -5 -13  230.16    4.81
  -5  -5 -12   83.63    2.02
  -5  -5 -11  187.23    3.77
  -5  -5 -10   49.96    1.17
  -5  -5  -9  232.52    4.66
  -5  -5  -8    2.55    0.22
  -5  -5  -7   65.84    1.51
  -5  -5  -6   42.28    1.00
  -5  -5  -5   94.53    1.95
  -5  -5  -4   18.34    0.59
  -5  -5  -3  688.87   11.84
  -5  -5  -2  535.67    9.34
  -5  -5  -1  239.03    4.64
  -5  -5   0   25.44    0.79
  -5  -5   1   72.41    1.77
  -5  -5   2  325.08    6.79
  -5  -5   3  157.20    3.58
  -5  -5   4   12.37    0.70
  -5  -5   5   35.35    1.16
  -5  -5   6  428.73    8.78
  -5  -5   7   82.71    2.13
  -5  -5   8    4.20    0.54
  -5  -5   9   81.01    2.00
  -5  -5  10  123.33    2.85
  -5  -5  11  197.90    4.47
  -5  -5  12    5.25    0.66
  -5  -5  13  270.17    5.83
  -5  -5  14    0.50    0.57
  -5  -5  15    1.20    0.56
  -5  -5  16   10.30    0.90
  -5  -5  17  123.95    2.75
  -5  -5  18    0.70    0.69
  -5  -5  19    1.60    0.62
  -5  -5  20   79.85    2.16
  -5  -5  21   33.24    1.31
  -5  -5  22    0.41    0.60
  -5  -5  23    5.95    0.85
  -5  -5  24   14.27    0.88
  -4  -5 -22   15.73    0.96
  -4  -5 -21   10.18    0.82
  -4  -5 -20   32.83    1.45
  -4  -5 -19    0.03    0.43
  -4  -5 -18   61.34    1.65
  -4  -5 -17    3.77    0.43
  -4  -5 -16    0.80    0.36
  -4  -5 -15   35.42    1.21
  -4  -5 -14   38.04    1.23
  -4  -5 -13   25.27    0.87
  -4  -5 -12  114.50    2.73
  -4  -5 -11  193.10    3.88
  -4  -5 -10   78.56    1.84
  -4  -5  -9    1.55    0.18
  -4  -5  -8   19.64    0.57
  -4  -5  -4  307.76    5.25
  -4  -5  -3  265.62    4.95
  -4  -5  -2   86.91    1.97
  -4  -5  -1   23.58    0.68
  -4  -5   0  379.95    7.08
  -4  -5   1   14.46    0.68
  -4  -5   2   26.21    0.88
  -4  -5   3    9.19    0.67
  -4  -5   4   88.01    2.12
  -4  -5   5    0.22    0.54
  -4  -5   6    6.27    0.53
  -4  -5   7   31.09    1.12
  -4  -5   8    7.45    0.57
  -4  -5   9  541.86   10.56
  -4  -5  10  103.30    2.48
  -4  -5  11   39.89    1.28
  -4  -5  12  134.17    3.06
  -4  -5  13   82.67    2.23
  -4  -5  14    5.11    0.58
  -4  -5  15    2.61    0.58
  -4  -5  16    0.32    0.52
  -4  -5  17    1.21    0.67
  -4  -5  18    0.29    0.57
  -4  -5  19    2.17    0.67
  -4  -5  20   17.51    1.20
  -4  -5  21   16.64    0.86
  -4  -5  22    1.94    0.69
  -4  -5  23   16.00    0.99
  -4  -5  24   14.93    0.77
  -3  -5 -23    0.24    0.74
  -3  -5 -22   29.74    1.41
  -3  -5 -21    0.45    0.44
  -3  -5 -20    3.40    0.58
  -3  -5 -19   58.44    1.88
  -3  -5 -18    5.59    0.51
  -3  -5 -17    3.26    0.46
  -3  -5 -16   32.58    1.05
  -3  -5 -15   38.19    1.24
  -3  -5 -14   19.46    0.68
  -3  -5 -13  150.65    3.38
  -3  -5 -12    0.74    0.26
  -3  -5 -11  769.44   13.25
  -3  -5 -10  145.38    2.98
  -3  -5  -9  103.85    2.20
  -3  -5  -8   17.87    1.12
  -3  -5  -3  249.73    5.08
  -3  -5  -2  239.24    4.37
  -3  -5  -1    3.60    0.29
  -3  -5   0  166.03    3.68
  -3  -5   1   14.42    0.64
  -3  -5   2   21.76    0.83
  -3  -5   3  315.40    6.09
  -3  -5   4   83.52    1.97
  -3  -5   5  390.57    7.93
  -3  -5   6  645.56   11.96
  -3  -5   7  114.24    2.70
  -3  -5   8   53.49    1.63
  -3  -5   9  228.89    4.75
  -3  -5  10  243.88    5.11
  -3  -5  11   50.54    1.51
  -3  -5  12   56.46    1.74
  -3  -5  13   55.92    1.54
  -3  -5  14    0.39    0.54
  -3  -5  15   10.79    0.81
  -3  -5  16   45.57    1.52
  -3  -5  17    5.72    0.86
  -3  -5  18    4.54    0.65
  -3  -5  19   10.48    0.81
  -3  -5  20   62.73    1.77
  -3  -5  21    4.72    0.71
  -3  -5  22   10.70    0.88
  -3  -5  23   13.62    0.84
  -3  -5  24   -0.42    0.73
  -2  -5 -23    2.56    0.70
  -2  -5 -22    3.26    0.62
  -2  -5 -21    2.09    0.56
  -2  -5 -20   33.08    1.26
  -2  -5 -19   11.80    0.72
  -2  -5 -18    0.83    0.42
  -2  -5 -17   53.27    1.64
  -2  -5 -16    1.22    0.36
  -2  -5 -15   55.05    1.48
  -2  -5 -14  142.24    3.14
  -2  -5 -13   36.33    0.99
  -2  -5 -12  164.96    3.42
  -2  -5 -11    0.37    0.25
  -2  -5 -10   11.58    0.41
  -2  -5  -9  131.24    2.59
  -2  -5  -8  187.01    3.59
  -2  -5  -3   55.17    1.20
  -2  -5  -2  464.37    8.25
  -2  -5  -1  139.08    2.85
  -2  -5   0  979.63   23.90
  -2  -5   1  289.98    5.38
  -2  -5   2   16.67    0.91
  -2  -5   3  261.08    5.04
  -2  -5   4   51.36    1.45
  -2  -5   5  304.52    6.38
  -2  -5   6   20.06    0.83
  -2  -5   7  201.04    4.39
  -2  -5   8   23.20    0.98
  -2  -5   9    0.78    0.47
  -2  -5  10   21.93    0.92
  -2  -5  11    1.63    0.53
  -2  -5  12  138.98    3.13
  -2  -5  13   -0.15    0.56
  -2  -5  14   26.69    1.12
  -2  -5  15    4.47    0.65
  -2  -5  16  117.77    2.74
  -2  -5  17   52.30    1.60
  -2  -5  18   46.31    1.43
  -2  -5  19   58.15    1.69
  -2  -5  20    6.85    0.68
  -2  -5  21    1.82    0.72
  -2  -5  22   44.27    1.45
  -2  -5  23    0.50    0.68
  -2  -5  24    0.82    0.58
  -1  -5 -23   11.48    1.19
  -1  -5 -22    1.63    0.58
  -1  -5 -21   25.20    1.13
  -1  -5 -20   20.79    0.94
  -1  -5 -19    1.73    0.53
  -1  -5 -18   18.31    0.83
  -1  -5 -17    0.24    0.41
  -1  -5 -16   10.98    0.55
  -1  -5 -15   34.91    1.01
  -1  -5 -14   10.37    0.60
  -1  -5 -13  125.60    2.88
  -1  -5 -12   52.10    1.40
  -1  -5 -11    9.43    0.44
  -1  -5 -10  322.75    5.90
  -1  -5  -9  245.43    4.63
  -1  -5  -8   33.26    0.86
  -1  -5  -7  121.80    2.41
  -1  -5  -6  340.26    5.74
  -1  -5  -4    1.36    0.14
  -1  -5  -3   14.51    0.42
  -1  -5  -2  200.67    3.79
  -1  -5  -1   54.42    1.31
  -1  -5   0   15.58    0.73
  -1  -5   1  230.85    4.53
  -1  -5   2   89.47    2.23
  -1  -5   3    8.24    0.56
  -1  -5   4   95.87    2.35
  -1  -5   5    1.28    0.44
  -1  -5   6   10.63    0.71
  -1  -5   7  453.70    8.88
  -1  -5   8   17.47    0.81
  -1  -5   9    1.32    0.46
  -1  -5  10  149.99    3.10
  -1  -5  11  547.50   11.03
  -1  -5  12   64.39    1.96
  -1  -5  13  116.70    2.85
  -1  -5  14   46.30    1.47
  -1  -5  15  111.70    2.37
  -1  -5  16   20.10    1.03
  -1  -5  17   16.46    0.81
  -1  -5  18    1.81    0.70
  -1  -5  19   41.07    1.35
  -1  -5  20    0.33    0.54
  -1  -5  21   30.43    1.23
  -1  -5  22   10.61    0.78
  -1  -5  23    2.00    0.82
  -1  -5  24    0.42    0.56
   0  -5 -24   17.76    1.17
   0  -5 -23   23.72    1.21
   0  -5 -22   13.46    0.92
   0  -5 -21   40.23    1.54
   0  -5 -20    1.33    0.54
   0  -5 -19    7.85    0.60
   0  -5 -18   43.79    1.29
   0  -5 -17   -0.28    0.43
   0  -5 -16    6.98    0.51
   0  -5 -15    4.93    0.40
   0  -5 -14    0.14    0.35
   0  -5 -13    4.54    0.43
   0  -5 -12   56.27    1.44
   0  -5 -11    4.09    0.37
   0  -5 -10  276.73    5.25
   0  -5  -9   16.85    0.60
   0  -5  -8  150.27    3.07
   0  -5  -7  149.36    3.05
   0  -5  -6  459.74    8.19
   0  -5  -5   16.30    0.53
   0  -5  -4  624.99   10.63
   0  -5  -3  237.64    4.69
   0  -5  -2   17.78    0.59
   0  -5  -1  358.63    6.88
   0  -5   0    0.40    0.29
   0  -5   1  358.65    6.94
   0  -5   2   16.81    0.76
   0  -5   3  236.00    5.06
   0  -5   4  613.62   11.33
   0  -5   5   15.77    0.80
   0  -5   6  441.76    8.67
   0  -5   7  144.14    3.44
   0  -5   8  150.62    3.32
   0  -5   9   16.95    0.75
   0  -5  10  285.88    5.90
   0  -5  11    4.23    0.59
   0  -5  12   60.62    1.81
   0  -5  13    4.62    0.54
   0  -5  14    1.21    0.67
   0  -5  15    4.81    0.54
   0  -5  16    6.85    0.70
   0  -5  17   -0.42    0.60
   0  -5  18   48.06    1.50
   0  -5  19    9.76    0.75
   0  -5  20    1.34    0.63
   0  -5  21   47.61    1.71
   0  -5  22   16.79    1.03
   0  -5  23   24.23    1.19
   0  -5  24   19.75    1.02
   1  -5 -24   -0.09    0.63
   1  -5 -23    1.57    0.58
   1  -5 -22    8.97    0.69
   1  -5 -21   27.04    1.06
   1  -5 -20    0.26    0.60
   1  -5 -19   37.72    1.25
   1  -5 -18    1.88    0.51
   1  -5 -17   15.53    0.73
   1  -5 -16   18.44    0.72
   1  -5 -15  102.86    2.45
   1  -5 -14   42.69    1.22
   1  -5 -13  115.46    2.54
   1  -5 -12   61.25    1.62
   1  -5 -11  526.13    9.83
   1  -5 -10  149.85    3.41
   1  -5  -9    1.41    0.29
   1  -5  -8   19.22    0.68
   1  -5  -7  449.00    8.46
   1  -5  -6   10.90    0.47
   1  -5  -5    1.40    0.26
   1  -5  -4  101.61    2.36
   1  -5  -3    8.44    0.48
   1  -5  -2   86.37    1.91
   1  -5  -1  234.16    4.70
   1  -5   0   16.22    0.79
   1  -5   1   52.83    1.37
   1  -5   2  199.29    4.17
   1  -5   3   13.35    0.68
   1  -5   4    1.03    0.51
   1  -5   5  912.43   16.32
   1  -5   6  321.14    6.50
   1  -5   7  120.57    2.61
   1  -5   8   31.58    1.01
   1  -5   9  245.29    4.97
   1  -5  10  333.77    6.77
   1  -5  11    9.54    0.60
   1  -5  12   54.46    1.70
   1  -5  13  130.14    3.23
   1  -5  14   10.57    0.69
   1  -5  15   38.40    1.30
   1  -5  16   12.70    1.00
   1  -5  17    0.13    0.55
   1  -5  18   19.25    0.94
   1  -5  19    2.17    0.69
   1  -5  20   24.44    1.01
   1  -5  21   26.40    1.08
   1  -5  22    2.31    0.79
   1  -5  23   11.34    0.78
   2  -5 -24    0.70    0.60
   2  -5 -23    0.23    0.51
   2  -5 -22   35.61    1.37
   2  -5 -21    2.12    0.54
   2  -5 -20    6.20    0.65
   2  -5 -19   52.93    1.61
   2  -5 -18   39.45    1.24
   2  -5 -17   49.85    1.42
   2  -5 -16  108.14    2.49
   2  -5 -15    4.02    0.40
   2  -5 -14   25.42    1.15
   2  -5 -13    0.40    0.33
   2  -5 -12  131.28    3.07
   2  -5 -11    1.59    0.36
   2  -5 -10   21.81    0.78
   2  -5  -9    0.49    0.33
   2  -5  -8   22.96    0.75
   2  -5  -7  203.94    4.31
   2  -5  -6   20.59    0.77
   2  -5  -5  310.06    6.12
   2  -5  -4   53.41    1.52
   2  -5  -3  261.19    5.40
   2  -5  -2   16.14    0.90
   2  -5  -1  295.40    5.72
   2  -5   0 1010.46   17.68
   2  -5   1  138.52    3.08
   2  -5   2  449.17    8.24
   2  -5   3   49.43    1.38
   2  -5   4   55.50    1.46
   2  -5   5   76.86    1.91
   2  -5   6  143.85    3.11
   2  -5   7    8.42    0.53
   2  -5   8  178.67    3.94
   2  -5   9  135.86    3.11
   2  -5  10   12.63    0.77
   2  -5  11    1.06    0.55
   2  -5  12  173.09    4.07
   2  -5  13   38.65    1.36
   2  -5  14  153.44    3.22
   2  -5  15   58.55    1.66
   2  -5  16    2.14    0.69
   2  -5  17   60.38    1.72
   2  -5  18    1.49    0.61
   2  -5  19   13.36    0.96
   2  -5  20   36.51    1.32
   2  -5  21    3.13    0.68
   2  -5  22    5.95    0.80
   2  -5  23    2.38    0.62
   3  -5 -24    0.22    0.62
   3  -5 -23   10.70    0.89
   3  -5 -22    9.98    0.85
   3  -5 -21    3.47    0.61
   3  -5 -20   57.12    1.78
   3  -5 -19    9.38    0.73
   3  -5 -18    3.48    0.58
   3  -5 -17    4.33    0.49
   3  -5 -16   45.19    1.43
   3  -5 -15   11.43    0.65
   3  -5 -14    0.70    0.51
   3  -5 -13   51.86    1.40
   3  -5 -12   52.82    1.63
   3  -5 -11   47.31    1.31
   3  -5 -10  242.54    4.98
   3  -5  -9  228.25    4.79
   3  -5  -8   52.86    1.76
   3  -5  -7  118.28    2.71
   3  -5  -6  614.39   13.75
   3  -5  -5  395.22    7.67
   3  -5  -4   85.15    2.23
   3  -5  -3  318.34    6.44
   3  -5  -2   21.97    0.80
   3  -5  -1   13.34    0.62
   3  -5   0  167.49    3.67
   3  -5   1    3.94    0.51
   3  -5   2  237.59    4.76
   3  -5   3  236.18    5.16
   3  -5   4   41.50    1.23
   3  -5   5  296.04    5.78
   3  -5   6  183.80    3.85
   3  -5   7  692.61   12.67
   3  -5   8   17.03    0.80
   3  -5   9  102.74    2.55
   3  -5  10  147.44    3.39
   3  -5  11  786.94   14.46
   3  -5  12    1.11    0.51
   3  -5  13  158.28    3.60
   3  -5  14   21.10    0.98
   3  -5  15   41.37    1.33
   3  -5  16   35.27    1.38
   3  -5  17    4.56    0.67
   3  -5  18    6.20    0.61
   3  -5  19   61.42    1.68
   3  -5  20    4.46    0.68
   3  -5  21    0.74    0.62
   3  -5  22   31.43    1.16
   3  -5  23    0.92    0.75
   4  -5 -24   14.37    1.01
   4  -5 -23   15.33    0.93
   4  -5 -22    1.50    0.63
   4  -5 -21   15.34    0.92
   4  -5 -20   18.17    1.05
   4  -5 -19    1.45    0.70
   4  -5 -18    0.09    0.66
   4  -5 -17    1.04    0.53
   4  -5 -16    0.42    0.47
   4  -5 -15    2.90    0.49
   4  -5 -14    4.42    0.53
   4  -5 -13   75.94    2.05
   4  -5 -12  131.79    3.09
   4  -5 -11   39.65    1.27
   4  -5 -10  100.23    2.35
   4  -5  -9  525.83    9.94
   4  -5  -8    7.34    0.58
   4  -5  -7   28.68    1.00
   4  -5  -6    6.44    0.55
   4  -5  -5    0.68    0.38
   4  -5  -4   88.05    2.34
   4  -5  -3    8.96    0.53
   4  -5  -2   25.47    0.93
   4  -5  -1   14.09    0.66
   4  -5   0  373.04    7.54
   4  -5   1   21.74    0.80
   4  -5   2   87.24    2.36
   4  -5   3  263.93    5.56
   4  -5   4  300.65    6.23
   4  -5   5  135.16    3.01
   4  -5   6  299.35    5.96
   4  -5   7  190.85    4.14
   4  -5   8   19.95    0.81
   4  -5   9    1.61    0.54
   4  -5  10   80.96    2.00
   4  -5  11  196.79    4.51
   4  -5  12  119.86    2.78
   4  -5  13   25.48    0.96
   4  -5  14   39.07    1.26
   4  -5  15   37.11    1.16
   4  -5  16   -0.02    0.67
   4  -5  17    4.37    0.67
   4  -5  18   70.41    1.84
   4  -5  19    0.72    0.61
   4  -5  20   35.35    1.52
   4  -5  21   11.79    0.85
   4  -5  22   17.71    0.93
   5  -5 -24   12.77    0.81
   5  -5 -23    5.41    0.69
   5  -5 -22    0.50    0.63
   5  -5 -21   31.24    1.25
   5  -5 -20   72.69    1.90
   5  -5 -19    2.67    0.54
   5  -5 -18    0.40    0.47
   5  -5 -17  117.64    2.73
   5  -5 -16    9.72    0.82
   5  -5 -15    1.57    0.47
   5  -5 -14    1.07    0.51
   5  -5 -13  254.61    5.46
   5  -5 -12    4.87    0.49
   5  -5 -11  192.44    4.08
   5  -5 -10  121.88    2.76
   5  -5  -9   78.17    2.03
   5  -5  -8    4.18    0.50
   5  -5  -7   84.97    2.24
   5  -5  -6  427.38    8.84
   5  -5  -5   36.60    1.11
   5  -5  -4   11.56    0.69
   5  -5  -3  152.41    3.61
   5  -5  -2  321.72    6.46
   5  -5  -1   74.04    2.00
   5  -5   0   24.98    0.95
   5  -5   1  242.72    5.04
   5  -5   2  544.24   10.00
   5  -5   3  679.05   12.78
   5  -5   4   18.86    0.88
   5  -5   5   95.76    2.13
   5  -5   6   43.66    1.25
   5  -5   7   66.30    1.88
   5  -5   8    2.78    0.58
   5  -5   9  243.95    5.07
   5  -5  10   50.10    1.44
   5  -5  11  193.24    4.35
   5  -5  12   85.13    2.12
   5  -5  13  243.38    5.50
   5  -5  14   10.60    0.71
   5  -5  15   18.16    0.86
   5  -5  16    0.29    0.54
   5  -5  17   51.31    1.68
   5  -5  18   10.02    0.89
   5  -5  19   17.62    0.92
   5  -5  20   26.35    1.05
   5  -5  21    7.69    0.71
   5  -5  22   10.17    0.98
   6  -5 -24   -1.06    0.69
   6  -5 -23   -0.30    0.61
   6  -5 -22   36.16    1.28
   6  -5 -21    3.10    0.60
   6  -5 -20  186.73    3.94
   6  -5 -19    0.10    0.60
   6  -5 -18    0.48    0.58
   6  -5 -17   48.92    1.53
   6  -5 -16    0.73    0.54
   6  -5 -15    5.02    0.60
   6  -5 -14  120.74    2.72
   6  -5 -13  123.01    2.88
   6  -5 -12   55.80    1.59
   6  -5 -11  338.58    7.00
   6  -5 -10   38.31    1.42
   6  -5  -9    5.11    0.59
   6  -5  -8  152.74    3.36
   6  -5  -7   71.76    1.99
   6  -5  -6   44.94    1.39
   6  -5  -5  172.29    3.71
   6  -5  -4  571.71   10.94
   6  -5  -3  244.78    5.17
   6  -5  -2  271.44    5.62
   6  -5  -1   95.46    2.35
   6  -5   0  266.09    5.34
   6  -5   1   12.93    0.73
   6  -5   2   20.67    0.95
   6  -5   3   89.88    2.52
   6  -5   4  838.90   15.74
   6  -5   5   75.29    2.14
   6  -5   6  329.92    6.85
   6  -5   7   19.33    0.78
   6  -5   8  382.70    7.41
   6  -5   9   77.49    1.95
   6  -5  10    6.43    0.66
   6  -5  11  195.39    4.14
   6  -5  12   22.87    0.98
   6  -5  13    3.27    0.54
   6  -5  14   11.85    0.70
   6  -5  15   27.03    1.08
   6  -5  16   29.96    1.16
   6  -5  17    9.15    0.68
   6  -5  18   22.61    0.96
   6  -5  19   31.74    1.31
   6  -5  20    0.13    0.59
   6  -5  21    1.57    0.63
   7  -5 -24   -0.24    0.75
   7  -5 -23    0.73    0.74
   7  -5 -22    8.53    0.82
   7  -5 -21    4.26    0.89
   7  -5 -20   10.50    0.96
   7  -5 -19   77.39    2.19
   7  -5 -18    2.33    0.59
   7  -5 -17   25.20    1.00
   7  -5 -16    4.38    0.55
   7  -5 -15    2.34    0.67
   7  -5 -14   39.32    1.31
   7  -5 -13   57.77    1.62
   7  -5 -12   41.83    1.35
   7  -5 -11   33.19    1.06
   7  -5 -10  108.98    2.71
   7  -5  -9  234.07    4.95
   7  -5  -8    4.97    0.48
   7  -5  -7    5.70    0.78
   7  -5  -6   53.51    1.56
   7  -5  -5  330.59    6.79
   7  -5  -4  155.03    3.81
   7  -5  -3   59.99    1.73
   7  -5  -2   52.78    1.56
   7  -5  -1   92.55    2.53
   7  -5   0  188.50    4.18
   7  -5   1   23.66    0.87
   7  -5   2    2.44    0.48
   7  -5   3  279.32    6.05
   7  -5   4    1.51    0.55
   7  -5   5  183.44    4.65
   7  -5   6   47.41    1.64
   7  -5   7  169.70    3.86
   7  -5   8  127.42    2.93
   7  -5   9   29.35    1.12
   7  -5  10    4.91    0.59
   7  -5  11  221.96    4.81
   7  -5  12    8.60    0.87
   7  -5  13    3.22    0.69
   7  -5  14   67.28    1.88
   7  -5  15   97.24    2.55
   7  -5  16    9.39    0.69
   7  -5  17   92.24    2.35
   7  -5  18    1.72    0.52
   7  -5  19    2.20    0.59
   7  -5  20    0.76    0.63
   7  -5  21   24.18    1.21
   8  -5 -24    7.17    1.53
   8  -5 -23    0.79    0.79
   8  -5 -22   -0.69    0.75
   8  -5 -21    0.42    0.66
   8  -5 -20   68.55    1.86
   8  -5 -19    1.92    0.64
   8  -5 -18   94.20    2.27
   8  -5 -17    5.33    0.66
   8  -5 -16   47.91    1.39
   8  -5 -15   24.40    1.00
   8  -5 -14    5.07    0.68
   8  -5 -13   20.12    0.89
   8  -5 -12   83.99    2.35
   8  -5 -11    5.66    0.56
   8  -5 -10    1.05    0.46
   8  -5  -9   78.91    2.22
   8  -5  -8    1.40    0.52
   8  -5  -7    4.08    0.65
   8  -5  -6  331.58    7.28
   8  -5  -5  313.38    6.41
   8  -5  -4   58.38    1.64
   8  -5  -3  367.05    7.40
   8  -5  -2    4.26    0.56
   8  -5  -1  449.51    9.00
   8  -5   0   29.64    0.98
   8  -5   1   21.42    0.82
   8  -5   2    2.40    0.54
   8  -5   3    1.33    0.50
   8  -5   4    4.03    0.61
   8  -5   5   80.60    2.43
   8  -5   6   12.14    0.77
   8  -5   7  142.79    3.41
   8  -5   8  196.34    4.13
   8  -5   9    0.07    0.57
   8  -5  10  111.09    2.79
   8  -5  11   71.88    1.96
   8  -5  12   14.60    0.76
   8  -5  13    7.42    0.64
   8  -5  14   23.16    0.99
   8  -5  15    0.26    0.60
   8  -5  16   26.78    1.21
   8  -5  17    2.56    0.74
   8  -5  18    5.32    0.83
   8  -5  19    3.84    0.81
   8  -5  20    8.73    0.77
   9  -5 -23    3.73    0.80
   9  -5 -22   11.48    0.99
   9  -5 -21   58.61    1.80
   9  -5 -20    0.66    0.70
   9  -5 -19   22.44    0.92
   9  -5 -18   16.23    0.86
   9  -5 -17    4.68    0.61
   9  -5 -16   10.91    0.76
   9  -5 -15    2.10    0.55
   9  -5 -14   14.41    0.85
   9  -5 -13    6.84    0.71
   9  -5 -12    3.71    0.52
   9  -5 -11    2.71    0.61
   9  -5 -10  191.66    4.33
   9  -5  -9  215.35    4.85
   9  -5  -8  191.60    4.29
   9  -5  -7  121.15    3.20
   9  -5  -6    8.96    0.64
   9  -5  -5    6.95    0.70
   9  -5  -4   64.97    1.70
   9  -5  -3    6.88    0.58
   9  -5  -2   86.61    2.24
   9  -5  -1    9.38    0.74
   9  -5   0   67.79    1.83
   9  -5   1   31.33    1.15
   9  -5   2   54.42    1.61
   9  -5   3  145.42    3.28
   9  -5   4   34.22    1.20
   9  -5   5   67.07    1.94
   9  -5   6  138.11    3.17
   9  -5   7  228.67    5.14
   9  -5   8    3.69    0.56
   9  -5   9   35.01    1.26
   9  -5  10    0.79    0.53
   9  -5  11    7.58    0.70
   9  -5  12   10.45    0.71
   9  -5  13   76.19    1.96
   9  -5  14    1.99    0.56
   9  -5  15   47.10    1.48
   9  -5  16    3.05    0.59
   9  -5  17   14.44    0.85
   9  -5  18    2.42    0.59
   9  -5  19    0.69    0.54
  10  -5 -23    8.97    1.06
  10  -5 -22   25.23    1.29
  10  -5 -21    8.82    0.95
  10  -5 -20    2.50    0.84
  10  -5 -19   15.74    1.06
  10  -5 -18    1.54    0.74
  10  -5 -17    1.46    0.63
  10  -5 -16   26.87    1.07
  10  -5 -15    8.03    0.81
  10  -5 -14    8.97    0.73
  10  -5 -13   51.08    1.58
  10  -5 -12   27.46    1.11
  10  -5 -11  130.16    2.92
  10  -5 -10  251.46    5.10
  10  -5  -9   66.51    1.75
  10  -5  -8  378.59    7.75
  10  -5  -7   22.18    1.01
  10  -5  -6    4.62    0.56
  10  -5  -5    1.92    0.50
  10  -5  -4   28.67    1.07
  10  -5  -3   15.05    0.82
  10  -5  -2   80.43    2.14
  10  -5  -1   63.81    1.84
  10  -5   0   37.91    1.27
  10  -5   1   36.15    1.17
  10  -5   2  196.14    4.40
  10  -5   3   21.13    0.98
  10  -5   4   19.41    1.01
  10  -5   5    9.23    0.66
  10  -5   6  186.12    4.32
  10  -5   7   13.71    0.84
  10  -5   8   23.01    0.98
  10  -5   9   45.01    1.50
  10  -5  10   12.15    0.85
  10  -5  11    0.50    0.59
  10  -5  12   45.38    1.52
  10  -5  13    2.37    0.71
  10  -5  14   38.41    1.38
  10  -5  15    6.62    0.70
  10  -5  16    9.60    0.86
  10  -5  17    8.85    0.79
  10  -5  18    2.45    0.67
  11  -5 -22   12.29    0.91
  11  -5 -21    1.34    0.59
  11  -5 -20   22.36    0.99
  11  -5 -19   16.92    0.88
  11  -5 -18    0.40    0.63
  11  -5 -17   46.10    1.53
  11  -5 -16    4.21    0.59
  11  -5 -15    7.20    0.80
  11  -5 -14   12.49    1.03
  11  -5 -13   25.56    1.18
  11  -5 -12    2.25    0.67
  11  -5 -11  372.97    7.01
  11  -5 -10   18.26    1.03
  11  -5  -9  110.85    2.66
  11  -5  -8   33.51    1.20
  11  -5  -7   73.74    2.28
  11  -5  -6    0.54    0.58
  11  -5  -5   98.58    2.66
  11  -5  -4   14.83    0.81
  11  -5  -3   50.63    1.58
  11  -5  -2   44.95    1.50
  11  -5  -1   61.08    1.81
  11  -5   0  113.01    2.84
  11  -5   1    1.10    0.54
  11  -5   2    1.44    0.54
  11  -5   3   25.03    1.00
  11  -5   4   22.35    1.09
  11  -5   5  154.70    3.75
  11  -5   6  181.68    4.09
  11  -5   7  100.98    2.60
  11  -5   8    1.02    0.57
  11  -5   9   42.00    1.30
  11  -5  10   29.42    1.20
  11  -5  11   78.93    2.08
  11  -5  12   20.56    0.97
  11  -5  13    2.94    0.60
  11  -5  14    5.65    0.70
  11  -5  15    8.99    0.79
  11  -5  16    4.08    0.60
  11  -5  17   13.66    0.84
  11  -5  18    2.65    0.79
  12  -5 -22    0.19    0.78
  12  -5 -21    2.99    0.80
  12  -5 -20   22.37    1.12
  12  -5 -19    0.23    0.65
  12  -5 -18   45.24    1.47
  12  -5 -17   28.01    1.13
  12  -5 -16    1.49    0.73
  12  -5 -15    8.66    0.75
  12  -5 -14    1.75    0.62
  12  -5 -13   22.95    1.09
  12  -5 -12  115.78    2.76
  12  -5 -11    6.05    0.74
  12  -5 -10   19.69    0.94
  12  -5  -9  111.51    2.62
  12  -5  -8    9.26    0.81
  12  -5  -7   40.62    1.26
  12  -5  -6   18.76    1.01
  12  -5  -5    0.93    0.64
  12  -5  -4  134.05    3.12
  12  -5  -3   63.09    1.74
  12  -5  -2    3.70    0.71
  12  -5  -1    8.82    0.82
  12  -5   0    8.00    0.65
  12  -5   1   16.91    0.83
  12  -5   2   60.65    1.76
  12  -5   3   22.90    0.99
  12  -5   4    1.76    0.63
  12  -5   5  105.01    2.66
  12  -5   6    2.06    0.76
  12  -5   7   38.92    1.45
  12  -5   8  269.25    5.72
  12  -5   9   17.29    0.86
  12  -5  10   41.40    1.39
  12  -5  11   14.77    0.90
  12  -5  12    3.80    0.63
  12  -5  13   19.00    0.88
  12  -5  14    2.82    0.60
  12  -5  15   -0.71    0.60
  12  -5  16    2.27    0.67
  12  -5  17    1.30    0.94
  13  -5 -21    2.35    0.61
  13  -5 -20   17.56    0.90
  13  -5 -19    1.97    0.76
  13  -5 -18   10.15    0.91
  13  -5 -17   58.39    1.65
  13  -5 -16    9.47    0.86
  13  -5 -15   15.40    0.96
  13  -5 -14    0.50    0.60
  13  -5 -13    5.75    0.65
  13  -5 -12   31.47    1.19
  13  -5 -11   45.78    1.43
  13  -5 -10   83.97    2.14
  13  -5  -9  150.48    3.44
  13  -5  -8    8.76    0.76
  13  -5  -7   18.26    0.91
  13  -5  -6    0.04    0.68
  13  -5  -5   34.76    1.29
  13  -5  -4  106.47    2.43
  13  -5  -3   27.04    1.08
  13  -5  -2   81.88    2.34
  13  -5  -1    0.99    0.58
  13  -5   0    3.65    0.68
  13  -5   1    0.62    0.68
  13  -5   2   48.31    1.52
  13  -5   3   -0.05    0.58
  13  -5   4   32.40    1.23
  13  -5   5  106.33    2.71
  13  -5   6    0.50    0.70
  13  -5   7   76.65    2.03
  13  -5   8    0.15    0.76
  13  -5   9   64.76    2.06
  13  -5  10    3.86    0.70
  13  -5  11    8.55    0.91
  13  -5  12    0.16    0.65
  13  -5  13   13.32    0.87
  13  -5  14    1.78    0.64
  13  -5  15    0.76    0.56
  14  -5 -20    0.88    0.75
  14  -5 -19    6.75    0.91
  14  -5 -18   59.44    2.04
  14  -5 -17    0.97    0.94
  14  -5 -16   27.76    1.13
  14  -5 -15    1.24    0.64
  14  -5 -14   85.36    2.47
  14  -5 -13   27.49    1.15
  14  -5 -12    9.43    0.78
  14  -5 -11   61.83    1.71
  14  -5 -10    0.71    0.61
  14  -5  -9   -0.01    0.54
  14  -5  -8   34.78    1.34
  14  -5  -7    0.15    0.54
  14  -5  -6   40.10    1.37
  14  -5  -5   16.76    0.91
  14  -5  -4   13.99    1.01
  14  -5  -3   -0.67    0.86
  14  -5  -2    7.53    0.72
  14  -5  -1  115.65    2.75
  14  -5   0    0.22    0.59
  14  -5   1  153.67    3.46
  14  -5   2    1.59    0.61
  14  -5   3   14.91    0.89
  14  -5   4  127.72    3.08
  14  -5   5    1.68    0.59
  14  -5   6   14.25    0.96
  14  -5   7    3.78    0.69
  14  -5   8   10.14    0.89
  14  -5   9   47.39    1.38
  14  -5  10   37.89    1.26
  14  -5  11    1.83    0.83
  14  -5  12    7.77    0.94
  14  -5  13   26.10    1.04
  14  -5  14    1.45    0.68
  15  -5 -20    7.71    1.19
  15  -5 -19   13.29    0.92
  15  -5 -18    0.57    0.63
  15  -5 -17    2.99    0.75
  15  -5 -16    5.38    0.95
  15  -5 -15    6.05    0.91
  15  -5 -14    0.82    0.78
  15  -5 -13    1.09    0.66
  15  -5 -12   -0.03    0.63
  15  -5 -11    4.43    0.69
  15  -5 -10   24.62    1.05
  15  -5  -9   55.49    1.57
  15  -5  -8    0.24    0.64
  15  -5  -7   10.21    0.74
  15  -5  -6   59.76    2.21
  15  -5  -5    8.00    0.80
  15  -5  -4   13.03    0.85
  15  -5  -3    3.76    0.69
  15  -5  -2   -0.84    0.70
  15  -5  -1   40.22    1.56
  15  -5   0   34.93    1.33
  15  -5   1    3.38    0.64
  15  -5   2    2.27    0.67
  15  -5   3  104.04    2.36
  15  -5   4    2.84    0.74
  15  -5   5    3.58    0.69
  15  -5   6   31.85    1.24
  15  -5   7    2.95    0.61
  15  -5   8   11.82    0.91
  15  -5   9   71.83    1.98
  15  -5  10    2.30    0.62
  15  -5  11    0.34    0.62
  15  -5  12    9.48    0.88
  15  -5  13    0.34    0.60
  16  -5 -19    3.20    1.21
  16  -5 -18    1.33    0.79
  16  -5 -17   -0.16    0.65
  16  -5 -16   -0.77    0.69
  16  -5 -15    1.82    0.81
  16  -5 -14    0.68    0.94
  16  -5 -13   -0.35    0.61
  16  -5 -12    2.03    0.75
  16  -5 -11    7.04    0.72
  16  -5 -10   11.92    0.91
  16  -5  -9    1.12    0.67
  16  -5  -8    7.21    0.86
  16  -5  -7   26.84    1.22
  16  -5  -6   33.75    1.36
  16  -5  -5   22.07    1.07
  16  -5  -4    8.81    0.74
  16  -5  -3   29.25    1.24
  16  -5  -2    9.43    0.79
  16  -5  -1   13.06    0.88
  16  -5   0   78.12    2.48
  16  -5   1    5.61    0.91
  16  -5   2   99.65    2.46
  16  -5   3   19.96    0.97
  16  -5   4   10.86    0.91
  16  -5   5    1.05    0.60
  16  -5   6   22.46    1.02
  16  -5   7    8.78    0.70
  16  -5   8   79.57    2.25
  16  -5   9   -0.05    0.56
  16  -5  10    4.92    0.70
  16  -5  11    7.52    0.63
  17  -5 -17   -0.06    0.67
  17  -5 -16    1.17    0.77
  17  -5 -15   19.06    1.17
  17  -5 -14    2.33    0.84
  17  -5 -13    4.00    0.90
  17  -5 -12    0.24    0.61
  17  -5 -11    2.48    0.74
  17  -5 -10   13.10    0.87
  17  -5  -9   24.47    1.48
  17  -5  -8   -0.49    0.66
  17  -5  -7   75.52    1.96
  17  -5  -6   39.85    1.42
  17  -5  -5   70.23    2.44
  17  -5  -4   25.65    1.08
  17  -5  -3    2.93    0.81
  17  -5  -2   -0.40    0.72
  17  -5  -1   95.03    2.38
  17  -5   0    0.91    0.62
  17  -5   1   49.61    1.60
  17  -5   2    5.71    0.74
  17  -5   3    6.84    0.95
  17  -5   4    1.19    0.75
  17  -5   5    4.21    0.93
  17  -5   6    3.26    0.82
  17  -5   7   37.93    1.25
  17  -5   8   18.63    1.01
  17  -5   9   13.98    0.88
  17  -5  10   16.27    0.96
  18  -5 -16   31.97    1.09
  18  -5 -15   -0.29    0.97
  18  -5 -14    4.07    0.85
  18  -5 -13    1.83    0.65
  18  -5 -12   10.39    0.94
  18  -5 -11    3.35    0.70
  18  -5 -10    3.35    0.98
  18  -5  -9    1.54    0.62
  18  -5  -8    0.67    0.76
  18  -5  -7   25.94    1.13
  18  -5  -6    1.19    0.78
  18  -5  -5    3.08    0.76
  18  -5  -4    4.36    0.72
  18  -5  -3    5.44    0.85
  18  -5  -2   16.51    0.99
  18  -5  -1    1.86    0.95
  18  -5   0    1.41    0.62
  18  -5   1   -0.29    0.65
  18  -5   2    0.48    0.61
  18  -5   3    2.43    0.68
  18  -5   4    5.22    0.75
  18  -5   5    1.92    0.87
  18  -5   6   -0.34    0.71
  18  -5   7    0.71    0.73
  18  -5   8    6.07    1.22
  19  -5 -14    2.01    0.75
  19  -5 -13    6.47    0.82
  19  -5 -12    0.17    0.65
  19  -5 -11    7.85    1.10
  19  -5 -10    5.80    0.70
  19  -5  -9   -0.16    0.71
  19  -5  -8   51.87    1.66
  19  -5  -7   18.39    0.93
  19  -5  -6    9.03    0.78
  19  -5  -5   18.79    1.10
  19  -5  -4    1.75    0.79
  19  -5  -3    8.85    0.78
  19  -5  -2   17.04    1.14
  19  -5  -1   12.19    0.85
  19  -5   0    2.17    0.96
  19  -5   1   22.05    1.17
  19  -5   2    0.75    0.73
  19  -5   3    5.56    0.74
  19  -5   4    7.24    0.79
  19  -5   5    2.08    0.59
  20  -5 -11    4.79    0.79
  20  -5 -10    1.89    0.79
  20  -5  -9   14.48    1.05
  20  -5  -8    2.21    0.74
  20  -5  -7    0.49    0.66
  20  -5  -6   29.62    1.50
  20  -5  -5    4.99    0.83
  20  -5  -4   -0.24    0.64
  20  -5  -3   10.22    0.79
  20  -5  -2    3.03    0.88
  20  -5  -1    0.14    0.69
  20  -5   0    9.26    0.81
  20  -5   1    8.65    0.83
  20  -5   2    8.84    0.92
 -20  -6  -1    2.62    1.05
 -20  -6   0   -0.21    0.66
 -20  -6   1    6.18    0.81
 -20  -6   2   -0.05    0.57
 -20  -6   3    2.96    0.68
 -20  -6   4    0.45    0.69
 -20  -6   5    8.28    0.93
 -20  -6   6    0.10    0.85
 -20  -6   7   17.88    0.97
 -20  -6   8    5.98    0.94
 -20  -6   9    0.46    0.88
 -20  -6  10   -0.75    0.92
 -19  -6  -4    0.01    0.69
 -19  -6  -3    0.26    0.65
 -19  -6  -2   36.41    1.35
 -19  -6  -1    2.92    0.72
 -19  -6   0   15.88    1.01
 -19  -6   1    1.73    0.72
 -19  -6   2    3.93    0.69
 -19  -6   3    1.17    0.64
 -19  -6   4    4.98    0.87
 -19  -6   5   11.39    1.00
 -19  -6   6   44.35    1.65
 -19  -6   7    1.40    0.64
 -19  -6   8    6.42    0.74
 -19  -6   9   -0.34    0.60
 -19  -6  10    0.01    0.66
 -19  -6  11    2.78    0.85
 -19  -6  12    3.36    0.66
 -19  -6  13    1.07    0.68
 -18  -6  -7    0.34    0.66
 -18  -6  -6    0.39    0.59
 -18  -6  -5   10.83    0.81
 -18  -6  -4    6.45    0.76
 -18  -6  -3   28.97    1.23
 -18  -6  -2   -0.20    0.57
 -18  -6  -1    3.83    0.70
 -18  -6   0    0.04    0.73
 -18  -6   1   50.43    1.65
 -18  -6   2    1.95    0.83
 -18  -6   3   25.28    1.09
 -18  -6   4    3.02    0.90
 -18  -6   5   38.54    1.43
 -18  -6   6    1.64    0.73
 -18  -6   7    2.06    0.65
 -18  -6   8   22.22    1.12
 -18  -6   9   12.61    0.85
 -18  -6  10    0.33    0.70
 -18  -6  11   26.18    1.31
 -18  -6  12   12.77    0.98
 -18  -6  13    2.43    0.77
 -18  -6  14    4.97    1.04
 -18  -6  15    0.09    0.71
 -17  -6  -9    0.45    0.57
 -17  -6  -8    0.65    0.55
 -17  -6  -7   -0.01    0.75
 -17  -6  -6   20.88    1.00
 -17  -6  -5   11.57    0.76
 -17  -6  -4   19.64    0.95
 -17  -6  -3    5.67    0.68
 -17  -6  -2    2.47    0.73
 -17  -6  -1    0.21    0.53
 -17  -6   0   85.08    2.34
 -17  -6   1    8.54    0.77
 -17  -6   2   44.83    1.66
 -17  -6   3    1.85    0.65
 -17  -6   4   37.32    1.44
 -17  -6   5    6.78    0.81
 -17  -6   6   12.34    0.87
 -17  -6   7    1.80    0.64
 -17  -6   8   68.09    1.81
 -17  -6   9   -0.16    0.67
 -17  -6  10   22.04    1.15
 -17  -6  11    4.80    0.84
 -17  -6  12   11.89    1.01
 -17  -6  13    1.31    0.67
 -17  -6  14   30.20    1.45
 -17  -6  15   -0.73    0.70
 -17  -6  16   16.23    0.94
 -17  -6  17    0.43    0.75
 -16  -6 -11    0.16    0.66
 -16  -6 -10   -0.31    0.59
 -16  -6  -9   17.82    0.96
 -16  -6  -8    0.32    0.55
 -16  -6  -7    2.87    0.58
 -16  -6  -6    5.32    0.66
 -16  -6  -5    0.19    0.67
 -16  -6  -4    1.63    0.53
 -16  -6  -3    7.12    0.72
 -16  -6  -2   24.78    1.02
 -16  -6  -1   46.70    1.40
 -16  -6   0   11.99    0.86
 -16  -6   1    9.66    0.71
 -16  -6   2   30.80    1.24
 -16  -6   3    1.13    0.58
 -16  -6   4    4.70    0.84
 -16  -6   5   60.84    1.74
 -16  -6   6   15.08    0.94
 -16  -6   7    6.52    0.71
 -16  -6   8    1.23    0.67
 -16  -6   9   -0.52    0.60
 -16  -6  10    2.53    0.71
 -16  -6  11   26.73    1.19
 -16  -6  12   11.10    0.82
 -16  -6  13    9.64    0.82
 -16  -6  14    4.85    0.81
 -16  -6  15    7.58    0.88
 -16  -6  16    0.20    0.68
 -16  -6  17    1.31    0.82
 -16  -6  18    0.10    0.73
 -15  -6 -12    0.02    0.60
 -15  -6 -11    6.35    0.66
 -15  -6 -10   38.89    1.23
 -15  -6  -9    5.00    0.49
 -15  -6  -8    0.61    0.50
 -15  -6  -7    2.48    0.54
 -15  -6  -6    4.94    0.54
 -15  -6  -5    0.61    0.49
 -15  -6  -4   11.07    0.79
 -15  -6  -3   20.24    0.96
 -15  -6  -2   20.60    0.96
 -15  -6  -1    0.53    0.56
 -15  -6   0    0.63    0.54
 -15  -6   1    2.45    0.58
 -15  -6   2   95.87    2.45
 -15  -6   3    3.15    0.64
 -15  -6   4   77.11    2.05
 -15  -6   5    0.52    0.64
 -15  -6   6   16.85    1.08
 -15  -6   7    0.39    0.56
 -15  -6   8   10.77    0.74
 -15  -6   9    1.53    0.67
 -15  -6  10   10.65    0.84
 -15  -6  11   76.47    2.28
 -15  -6  12   32.36    1.21
 -15  -6  13    1.18    0.77
 -15  -6  14   -0.22    0.69
 -15  -6  15    6.85    0.74
 -15  -6  16    7.93    0.77
 -15  -6  17    4.89    0.69
 -15  -6  18   21.66    1.09
 -15  -6  19    4.47    0.72
 -14  -6 -14   -0.51    0.52
 -14  -6 -13   37.13    1.47
 -14  -6 -12   32.62    1.32
 -14  -6 -11   50.26    1.34
 -14  -6 -10    5.99    0.68
 -14  -6  -9    0.70    0.54
 -14  -6  -8    8.99    0.68
 -14  -6  -7   43.76    1.40
 -14  -6  -6   27.96    1.00
 -14  -6  -5   33.54    1.14
 -14  -6  -4   13.14    0.73
 -14  -6  -3  107.48    2.40
 -14  -6  -2    0.15    0.47
 -14  -6  -1    2.82    0.56
 -14  -6   0   52.22    1.58
 -14  -6   1   18.37    0.84
 -14  -6   2    0.51    0.66
 -14  -6   3   21.81    0.95
 -14  -6   4   68.33    1.88
 -14  -6   5    5.87    0.66
 -14  -6   6    1.13    0.64
 -14  -6   7   23.02    1.19
 -14  -6   8   12.87    0.82
 -14  -6   9    0.54    0.67
 -14  -6  10    0.29    0.61
 -14  -6  11    0.57    0.64
 -14  -6  12    6.11    0.67
 -14  -6  13   14.43    0.84
 -14  -6  14    0.50    0.87
 -14  -6  15   58.04    1.55
 -14  -6  16   27.34    1.12
 -14  -6  17    7.31    0.78
 -14  -6  18   -0.02    0.65
 -14  -6  19    7.49    0.88
 -14  -6  20    0.15    0.69
 -13  -6 -15   -0.42    0.55
 -13  -6 -14   71.78    2.17
 -13  -6 -13    2.38    0.51
 -13  -6 -12   26.65    1.09
 -13  -6 -11   13.92    0.71
 -13  -6 -10    0.85    0.47
 -13  -6  -9    7.56    0.59
 -13  -6  -8   32.46    1.16
 -13  -6  -7    0.15    0.43
 -13  -6  -6   13.95    0.71
 -13  -6  -5    6.97    0.62
 -13  -6  -4  179.44    3.96
 -13  -6  -3    7.57    0.59
 -13  -6  -2   -0.12    0.64
 -13  -6  -1    3.52    0.57
 -13  -6   0   39.34    1.22
 -13  -6   1   10.55    0.71
 -13  -6   2    6.84    0.69
 -13  -6   3   90.18    2.30
 -13  -6   4   17.73    0.85
 -13  -6   5   13.78    0.88
 -13  -6   6   14.62    0.89
 -13  -6   7    5.17    0.73
 -13  -6   8   72.48    2.02
 -13  -6   9   29.54    1.22
 -13  -6  10    9.70    0.91
 -13  -6  11   59.70    1.74
 -13  -6  12   12.83    0.83
 -13  -6  13    3.00    0.79
 -13  -6  14   25.76    1.11
 -13  -6  15    2.86    0.78
 -13  -6  16   95.83    2.28
 -13  -6  17    5.40    0.74
 -13  -6  18   -0.10    0.62
 -13  -6  19    5.30    0.74
 -13  -6  20   11.43    1.00
 -13  -6  21   -0.20    0.68
 -12  -6 -16    1.14    0.46
 -12  -6 -15   41.89    1.34
 -12  -6 -14    2.42    0.45
 -12  -6 -13   11.67    0.82
 -12  -6 -12   19.75    0.92
 -12  -6 -11   27.60    0.94
 -12  -6 -10    5.38    0.53
 -12  -6  -9   49.58    1.32
 -12  -6  -8    3.89    0.46
 -12  -6  -7   29.53    0.94
 -12  -6  -6   20.25    0.93
 -12  -6  -5    2.98    0.48
 -12  -6  -4    0.58    0.41
 -12  -6  -3   28.05    1.01
 -12  -6  -2   76.24    1.82
 -12  -6  -1  323.45    6.51
 -12  -6   0    1.91    0.50
 -12  -6   1   25.22    1.11
 -12  -6   2    5.00    0.56
 -12  -6   3   20.83    0.99
 -12  -6   4    3.79    0.58
 -12  -6   5   28.48    1.06
 -12  -6   6    5.87    0.70
 -12  -6   7   67.26    1.95
 -12  -6   8    1.22    0.68
 -12  -6   9   21.16    1.01
 -12  -6  10    0.67    0.70
 -12  -6  11   71.06    1.94
 -12  -6  12   41.12    1.40
 -12  -6  13   62.41    1.82
 -12  -6  14    3.91    0.72
 -12  -6  15   10.27    0.76
 -12  -6  16    4.78    0.84
 -12  -6  17    0.76    0.65
 -12  -6  18    0.39    0.71
 -12  -6  19   18.05    1.05
 -12  -6  20    1.04    0.70
 -12  -6  21   12.86    0.99
 -11  -6 -17    0.32    0.50
 -11  -6 -16   19.38    1.66
 -11  -6 -15   19.73    0.97
 -11  -6 -14    4.23    0.49
 -11  -6 -13    0.55    0.39
 -11  -6 -12   19.56    0.75
 -11  -6 -11    5.53    0.46
 -11  -6 -10   47.73    1.45
 -11  -6  -9    0.26    0.39
 -11  -6  -8   16.43    0.65
 -11  -6  -7   47.20    1.25
 -11  -6  -6    1.60    0.40
 -11  -6  -5    2.66    0.43
 -11  -6  -4  344.02    6.71
 -11  -6  -3   67.83    1.76
 -11  -6  -2   96.83    2.34
 -11  -6  -1    5.78    0.59
 -11  -6   0    6.83    0.49
 -11  -6   1   33.22    0.99
 -11  -6   2  100.20    2.53
 -11  -6   3   66.85    1.78
 -11  -6   4   83.07    2.33
 -11  -6   5   23.08    1.05
 -11  -6   6    8.20    0.78
 -11  -6   7  111.04    2.69
 -11  -6   8    0.43    0.52
 -11  -6   9   29.26    1.15
 -11  -6  10  133.47    3.12
 -11  -6  11   35.00    1.25
 -11  -6  12  198.82    4.30
 -11  -6  13   22.00    1.07
 -11  -6  14   22.15    1.00
 -11  -6  15   10.80    0.85
 -11  -6  16    9.22    0.89
 -11  -6  17    1.89    0.66
 -11  -6  18   89.85    2.31
 -11  -6  19    0.39    0.63
 -11  -6  20    4.88    0.81
 -11  -6  21    7.93    0.70
 -11  -6  22    0.22    0.66
 -10  -6 -18    2.00    0.53
 -10  -6 -17    2.85    0.75
 -10  -6 -16    0.17    0.35
 -10  -6 -15    3.94    0.46
 -10  -6 -14    3.42    0.44
 -10  -6 -13   58.92    1.91
 -10  -6 -12    4.06    0.38
 -10  -6 -11    4.79    0.44
 -10  -6 -10    3.67    0.36
 -10  -6  -9    0.50    0.35
 -10  -6  -8   24.91    0.83
 -10  -6  -7   29.39    0.95
 -10  -6  -6    4.33    0.34
 -10  -6  -5  126.48    2.81
 -10  -6  -4   49.75    1.41
 -10  -6  -3    0.08    0.39
 -10  -6  -2   66.78    1.68
 -10  -6  -1  125.86    3.01
 -10  -6   0   13.80    0.75
 -10  -6   1  251.27    5.22
 -10  -6   2   17.43    0.79
 -10  -6   3   95.62    2.37
 -10  -6   4   16.26    0.84
 -10  -6   5   13.39    0.72
 -10  -6   6   58.28    1.66
 -10  -6   7  145.54    3.43
 -10  -6   8   46.22    1.31
 -10  -6   9  101.01    2.46
 -10  -6  10   76.60    2.04
 -10  -6  11  176.81    3.80
 -10  -6  12    0.65    0.65
 -10  -6  13    0.23    0.54
 -10  -6  14    5.05    0.75
 -10  -6  15   14.15    0.90
 -10  -6  16    2.64    0.63
 -10  -6  17   43.54    1.58
 -10  -6  18   31.81    1.15
 -10  -6  19   -0.30    0.71
 -10  -6  20    7.34    0.71
 -10  -6  21    3.72    0.72
 -10  -6  22   17.71    0.98
  -9  -6 -18    0.78    0.48
  -9  -6 -17    1.18    0.34
  -9  -6 -16   45.19    2.04
  -9  -6 -15   18.97    1.25
  -9  -6 -14   29.44    1.01
  -9  -6 -13   47.69    1.56
  -9  -6 -12   10.60    0.56
  -9  -6 -11    1.06    0.28
  -9  -6 -10   17.23    0.67
  -9  -6  -9    8.47    0.42
  -9  -6  -8   49.43    1.31
  -9  -6  -7   52.91    1.56
  -9  -6  -6   50.38    1.31
  -9  -6  -5    2.82    0.38
  -9  -6  -4   60.29    1.53
  -9  -6  -3   56.89    1.47
  -9  -6  -2   74.44    2.15
  -9  -6  -1   18.38    0.71
  -9  -6   0   58.13    1.75
  -9  -6   1   -0.17    0.37
  -9  -6   2    2.15    0.47
  -9  -6   3   54.56    1.52
  -9  -6   4   27.58    0.94
  -9  -6   5    1.12    0.46
  -9  -6   6  291.41    6.21
  -9  -6   7   -0.29    0.48
  -9  -6   8   92.88    2.32
  -9  -6   9   44.33    1.46
  -9  -6  10    1.46    0.55
  -9  -6  11    4.74    0.68
  -9  -6  12   85.56    2.23
  -9  -6  13   42.44    1.48
  -9  -6  14   26.12    1.20
  -9  -6  15    1.49    0.71
  -9  -6  16   59.14    1.79
  -9  -6  17    6.37    0.80
  -9  -6  18   -0.14    0.57
  -9  -6  19    1.02    0.69
  -9  -6  20   48.62    1.53
  -9  -6  21    9.44    0.94
  -9  -6  22   16.49    1.00
  -9  -6  23    0.11    0.91
  -8  -6 -20    2.23    0.62
  -8  -6 -19    1.12    0.51
  -8  -6 -18   47.59    1.43
  -8  -6 -17    7.89    0.59
  -8  -6 -16    1.08    0.28
  -8  -6 -15   41.53    1.39
  -8  -6 -14    0.07    0.22
  -8  -6 -13    9.83    0.52
  -8  -6 -12    9.97    0.49
  -8  -6 -11   79.98    2.42
  -8  -6 -10    1.98    0.24
  -8  -6  -9   78.99    1.96
  -8  -6  -8    9.33    0.48
  -8  -6  -7  108.31    2.59
  -8  -6  -6   16.52    0.63
  -8  -6  -5   29.12    0.86
  -8  -6  -4  837.49   14.32
  -8  -6  -3    8.83    0.51
  -8  -6  -2   12.85    0.56
  -8  -6  -1   70.57    1.90
  -8  -6   0   10.96    0.63
  -8  -6   1   13.62    0.66
  -8  -6   2  393.31    7.74
  -8  -6   3   69.18    1.81
  -8  -6   4   41.00    1.30
  -8  -6   5  160.19    3.56
  -8  -6   6   36.86    1.31
  -8  -6   7   97.41    2.49
  -8  -6   8  207.72    4.57
  -8  -6   9   71.71    2.14
  -8  -6  10   90.31    2.38
  -8  -6  11  204.98    4.73
  -8  -6  12    6.33    0.76
  -8  -6  13   68.97    2.06
  -8  -6  14    2.06    0.59
  -8  -6  15    9.20    0.84
  -8  -6  16    2.83    0.89
  -8  -6  17  119.84    2.89
  -8  -6  18   14.13    1.09
  -8  -6  19  146.56    3.05
  -8  -6  20   20.86    1.10
  -8  -6  21    4.24    0.69
  -8  -6  22    1.94    0.74
  -8  -6  23    1.43    0.70
  -7  -6 -20    3.91    0.68
  -7  -6 -19    7.45    0.56
  -7  -6 -18   29.00    1.13
  -7  -6 -17    0.86    0.30
  -7  -6 -16   45.15    1.98
  -7  -6 -15    1.42    0.28
  -7  -6 -14   10.82    0.65
  -7  -6 -13   20.95    0.79
  -7  -6 -12   53.08    1.64
  -7  -6 -11   29.36    1.15
  -7  -6 -10    8.64    0.44
  -7  -6  -9  165.85    3.36
  -7  -6  -8    1.44    0.21
  -7  -6  -7   92.89    2.26
  -7  -6  -6   14.77    0.50
  -7  -6  -5  394.79    7.22
  -7  -6  -4    9.46    0.46
  -7  -6  -3   38.84    1.12
  -7  -6  -2   69.25    1.72
  -7  -6  -1   10.28    0.56
  -7  -6   0  100.32    2.45
  -7  -6   1    8.37    0.48
  -7  -6   2  304.06    6.56
  -7  -6   3   77.20    2.17
  -7  -6   4   57.75    1.78
  -7  -6   5   86.23    2.28
  -7  -6   6    1.47    0.47
  -7  -6   7  206.27    4.48
  -7  -6   8  148.56    3.37
  -7  -6   9   37.51    1.43
  -7  -6  10   57.37    1.72
  -7  -6  11   10.99    0.79
  -7  -6  12  143.18    3.43
  -7  -6  13    9.45    0.69
  -7  -6  14    2.40    0.60
  -7  -6  15    3.59    0.68
  -7  -6  16   45.33    1.50
  -7  -6  17   14.52    0.87
  -7  -6  18   77.70    2.09
  -7  -6  19   11.77    0.81
  -7  -6  20   22.75    1.14
  -7  -6  21    0.19    0.60
  -7  -6  22    9.00    1.01
  -7  -6  23    0.17    0.63
  -6  -6 -21    8.80    0.87
  -6  -6 -20    0.27    0.50
  -6  -6 -19   29.69    1.19
  -6  -6 -18   41.45    1.59
  -6  -6 -17    1.49    0.31
  -6  -6 -16    0.24    0.27
  -6  -6 -15    0.83    0.27
  -6  -6 -14    1.95    0.28
  -6  -6 -13   48.71    1.65
  -6  -6 -12  146.45    3.23
  -6  -6 -11   10.21    0.50
  -6  -6 -10   39.68    1.46
  -6  -6  -9    5.66    0.54
  -6  -6  -8   38.56    1.95
  -6  -6  -7  219.90    4.25
  -6  -6  -6   38.60    0.92
  -6  -6  -5  596.73   10.63
  -6  -6  -4  265.19    4.96
  -6  -6  -3  751.96   13.20
  -6  -6  -2  734.35   12.84
  -6  -6  -1  101.82    2.55
  -6  -6   0   18.48    0.72
  -6  -6   1 1189.20   21.23
  -6  -6   2   23.73    0.87
  -6  -6   3  139.93    3.52
  -6  -6   4  367.11    7.07
  -6  -6   5    0.92    0.44
  -6  -6   6   52.27    1.46
  -6  -6   7   64.21    1.89
  -6  -6   8   53.03    1.46
  -6  -6   9   81.54    2.01
  -6  -6  10   20.07    0.87
  -6  -6  11   21.42    1.03
  -6  -6  12    9.45    0.73
  -6  -6  13    8.09    0.67
  -6  -6  14   36.56    1.20
  -6  -6  15   76.81    2.14
  -6  -6  16    4.96    0.61
  -6  -6  17   12.87    0.84
  -6  -6  18   74.19    2.15
  -6  -6  19   35.69    1.31
  -6  -6  20    2.71    0.72
  -6  -6  21   33.31    1.26
  -6  -6  22   19.55    1.12
  -6  -6  23   15.05    0.88
  -6  -6  24    2.56    1.51
  -5  -6 -21    7.34    0.70
  -5  -6 -20   47.26    1.49
  -5  -6 -19    1.20    0.38
  -5  -6 -18   10.39    0.79
  -5  -6 -17    7.83    0.65
  -5  -6 -16  143.34    3.91
  -5  -6 -15   53.26    1.71
  -5  -6 -14  239.40    4.55
  -5  -6 -13    2.96    0.28
  -5  -6 -12   38.65    1.07
  -5  -6  -5   25.44    0.60
  -5  -6  -4  145.63    2.74
  -5  -6  -3  494.40    8.66
  -5  -6  -2  866.51   14.67
  -5  -6  -1   66.99    1.57
  -5  -6   0  414.68    7.83
  -5  -6   1    5.71    0.50
  -5  -6   2   52.65    1.50
  -5  -6   3    2.17    0.56
  -5  -6   4  425.48    8.32
  -5  -6   5  549.58   10.05
  -5  -6   6   14.64    0.75
  -5  -6   7   85.13    2.13
  -5  -6   8  578.84   10.55
  -5  -6   9   56.63    1.55
  -5  -6  10    7.87    0.65
  -5  -6  11   17.61    0.86
  -5  -6  12   85.26    2.33
  -5  -6  13   24.98    0.99
  -5  -6  14   68.87    1.92
  -5  -6  15    6.54    0.66
  -5  -6  16   34.92    1.25
  -5  -6  17    2.78    0.62
  -5  -6  18    7.97    0.85
  -5  -6  19   15.91    0.98
  -5  -6  20   36.49    1.28
  -5  -6  21   -0.15    0.62
  -5  -6  22    6.24    0.75
  -5  -6  23    2.39    0.66
  -5  -6  24    1.26    0.92
  -4  -6 -22    0.79    1.14
  -4  -6 -21    1.91    0.63
  -4  -6 -20    0.35    0.42
  -4  -6 -19   23.14    1.22
  -4  -6 -18    0.66    0.36
  -4  -6 -17    7.89    0.59
  -4  -6 -16   10.47    0.60
  -4  -6 -15   15.24    0.68
  -4  -6 -14    5.98    0.37
  -4  -6 -13    4.92    0.34
  -4  -6 -12    3.35    0.23
  -4  -6  -4  123.91    3.28
  -4  -6  -3  482.05    8.38
  -4  -6  -2  121.75    2.53
  -4  -6  -1  284.47    5.43
  -4  -6   0   76.41    1.87
  -4  -6   1  471.67    8.92
  -4  -6   2   62.87    1.74
  -4  -6   3  206.86    4.45
  -4  -6   4   76.58    1.94
  -4  -6   5   53.58    1.62
  -4  -6   6    1.96    0.51
  -4  -6   7  370.06    7.56
  -4  -6   8    0.96    0.47
  -4  -6   9   53.41    1.56
  -4  -6  10  222.84    5.00
  -4  -6  11  156.33    3.48
  -4  -6  12   62.49    1.64
  -4  -6  13   43.79    1.36
  -4  -6  14    8.19    0.75
  -4  -6  15   21.07    0.99
  -4  -6  16   38.17    1.45
  -4  -6  17    1.71    0.64
  -4  -6  18    6.57    0.91
  -4  -6  19   61.29    1.79
  -4  -6  20    4.94    0.67
  -4  -6  21   11.24    0.89
  -4  -6  22    3.61    0.65
  -4  -6  23    5.13    0.66
  -4  -6  24    1.86    0.67
  -3  -6 -22    0.31    0.59
  -3  -6 -21    3.57    0.56
  -3  -6 -20    1.00    0.45
  -3  -6 -19    0.69    0.40
  -3  -6 -18   17.74    0.84
  -3  -6 -17    4.08    0.44
  -3  -6 -16   -0.01    0.34
  -3  -6 -15   17.93    0.71
  -3  -6 -14    6.88    0.42
  -3  -6 -13   17.96    0.61
  -3  -6 -12  412.07    8.46
  -3  -6 -11    1.79    0.20
  -3  -6  -3   90.15    1.81
  -3  -6  -2    4.53    0.30
  -3  -6  -1  855.77   14.64
  -3  -6   0  575.40   10.44
  -3  -6   1    2.34    0.35
  -3  -6   2   28.09    0.99
  -3  -6   3    4.40    0.46
  -3  -6   4  114.87    2.58
  -3  -6   5   12.31    0.70
  -3  -6   6    2.79    0.56
  -3  -6   7    4.01    0.52
  -3  -6   8   48.66    1.42
  -3  -6   9  282.09    5.87
  -3  -6  10  102.51    2.70
  -3  -6  11   32.93    1.19
  -3  -6  12    0.64    0.51
  -3  -6  13    4.44    0.81
  -3  -6  14    0.98    0.52
  -3  -6  15    8.09    0.67
  -3  -6  16   13.25    0.98
  -3  -6  17   19.34    0.92
  -3  -6  18  187.12    4.20
  -3  -6  19    2.69    0.59
  -3  -6  20   22.94    1.09
  -3  -6  21   -0.26    0.66
  -3  -6  22   15.78    0.84
  -3  -6  23    3.70    0.74
  -3  -6  24    5.89    0.77
  -2  -6 -23    0.91    0.72
  -2  -6 -22    2.30    0.69
  -2  -6 -21   19.62    1.45
  -2  -6 -20    0.60    0.43
  -2  -6 -19   22.75    1.08
  -2  -6 -18   21.21    1.09
  -2  -6 -17    4.85    0.46
  -2  -6 -16   88.34    2.14
  -2  -6 -15   51.36    1.26
  -2  -6 -14  142.80    3.03
  -2  -6 -13   22.44    0.85
  -2  -6 -12    0.47    0.23
  -2  -6 -11    2.78    0.23
  -2  -6 -10    2.57    0.18
  -2  -6  -3   49.37    1.18
  -2  -6  -2  411.78    7.32
  -2  -6  -1  167.04    3.25
  -2  -6   0   44.62    1.19
  -2  -6   1  186.37    3.87
  -2  -6   2   30.11    1.07
  -2  -6   3  202.41    4.10
  -2  -6   4   78.58    1.88
  -2  -6   5  218.26    4.43
  -2  -6   6   84.93    2.32
  -2  -6   7    4.91    0.57
  -2  -6   8    1.38    0.47
  -2  -6   9  214.56    4.58
  -2  -6  10  254.37    5.41
  -2  -6  11   24.34    0.95
  -2  -6  12    1.75    0.57
  -2  -6  13   74.39    2.17
  -2  -6  14   12.50    0.81
  -2  -6  15  197.66    4.57
  -2  -6  16    0.56    0.66
  -2  -6  17   44.54    1.50
  -2  -6  18    8.20    0.82
  -2  -6  19    2.15    0.61
  -2  -6  20    2.76    0.71
  -2  -6  21   79.91    2.12
  -2  -6  22    0.44    0.65
  -2  -6  23   13.75    0.88
  -2  -6  24    3.66    0.74
  -1  -6 -23    0.44    0.96
  -1  -6 -22   13.48    1.27
  -1  -6 -21    0.76    0.47
  -1  -6 -20   20.24    1.01
  -1  -6 -19   -0.14    0.58
  -1  -6 -18    0.69    0.37
  -1  -6 -17   16.82    0.83
  -1  -6 -16   40.54    1.25
  -1  -6 -15   42.25    1.43
  -1  -6 -14    8.96    0.49
  -1  -6 -13   23.73    0.80
  -1  -6 -12    1.09    0.26
  -1  -6 -11    8.64    0.44
  -1  -6 -10  135.51    2.79
  -1  -6  -9    6.25    0.26
  -1  -6  -8  165.45    3.22
  -1  -6  -7  215.41    4.40
  -1  -6  -6    5.54    0.24
  -1  -6  -5   26.09    0.66
  -1  -6  -4   64.92    1.39
  -1  -6  -3   48.87    1.24
  -1  -6  -2  245.32    4.55
  -1  -6  -1   96.62    2.13
  -1  -6   0  273.76    5.22
  -1  -6   1   19.01    0.73
  -1  -6   2  125.33    3.05
  -1  -6   3   42.34    1.31
  -1  -6   4  117.79    2.76
  -1  -6   5  196.39    4.22
  -1  -6   6   28.02    0.94
  -1  -6   7    1.86    0.55
  -1  -6   8  415.73    8.54
  -1  -6   9   18.84    0.83
  -1  -6  10   25.38    0.92
  -1  -6  11    2.16    0.50
  -1  -6  12  234.60    4.95
  -1  -6  13   29.91    1.13
  -1  -6  14   49.96    1.57
  -1  -6  15    1.06    0.54
  -1  -6  16   38.23    1.25
  -1  -6  17    0.04    0.71
  -1  -6  18   28.98    1.03
  -1  -6  19   20.06    0.96
  -1  -6  20  134.46    3.31
  -1  -6  21    1.81    0.61
  -1  -6  22    5.81    0.97
  -1  -6  23    1.95    0.64
   0  -6 -23   12.74    0.94
   0  -6 -22   -0.06    0.48
   0  -6 -21    0.04    0.52
   0  -6 -20    0.00    0.54
   0  -6 -19    8.00    0.63
   0  -6 -18   39.27    1.35
   0  -6 -17  269.21    5.64
   0  -6 -16  114.94    2.87
   0  -6 -15    0.20    0.39
   0  -6 -14    9.48    0.56
   0  -6 -13    2.31    0.35
   0  -6 -12   33.66    0.99
   0  -6 -11  383.86    7.26
   0  -6 -10  119.78    2.74
   0  -6  -9    1.10    0.22
   0  -6  -8   71.82    1.76
   0  -6  -7   16.81    0.52
   0  -6  -6  193.18    3.81
   0  -6  -5   87.00    1.89
   0  -6  -4  209.31    4.05
   0  -6  -3  108.30    2.29
   0  -6  -2  373.49    6.85
   0  -6  -1  101.13    2.07
   0  -6   0  861.24   15.18
   0  -6   1  101.66    2.45
   0  -6   2  377.47    7.20
   0  -6   3  107.11    2.44
   0  -6   4  209.75    4.19
   0  -6   5   86.44    2.06
   0  -6   6  192.30    4.18
   0  -6   7   16.71    0.79
   0  -6   8   74.93    2.00
   0  -6   9    0.99    0.51
   0  -6  10  118.93    2.82
   0  -6  11  400.30    7.71
   0  -6  12   35.64    1.22
   0  -6  13    2.25    0.61
   0  -6  14   11.28    0.67
   0  -6  15    0.28    0.62
   0  -6  16  125.40    3.13
   0  -6  17  290.15    5.38
   0  -6  18   45.34    1.47
   0  -6  19   10.06    0.86
   0  -6  20   -0.09    0.64
   0  -6  21   -0.24    0.56
   0  -6  22    0.20    0.77
   0  -6  23   15.07    0.85
   1  -6 -23    0.19    0.66
   1  -6 -22    4.01    0.69
   1  -6 -21    1.12    0.56
   1  -6 -20  121.75    3.35
   1  -6 -19   17.05    0.85
   1  -6 -18   26.14    0.90
   1  -6 -17    0.04    0.40
   1  -6 -16   34.86    1.15
   1  -6 -15    0.74    0.38
   1  -6 -14   47.63    1.28
   1  -6 -13   25.58    0.88
   1  -6 -12  219.04    4.65
   1  -6 -11    2.32    0.38
   1  -6 -10   23.77    0.76
   1  -6  -9   18.71    0.73
   1  -6  -8  405.37    8.08
   1  -6  -7    1.35    0.27
   1  -6  -6   29.38    0.89
   1  -6  -5  198.17    4.03
   1  -6  -4  117.18    2.45
   1  -6  -3   43.61    1.20
   1  -6  -2  122.45    2.78
   1  -6  -1   19.16    0.72
   1  -6   0  277.89    5.69
   1  -6   1   94.14    2.26
   1  -6   2  250.50    5.08
   1  -6   3   48.23    1.22
   1  -6   4   63.68    1.66
   1  -6   5   25.09    0.96
   1  -6   6    5.01    0.53
   1  -6   7  205.06    4.48
   1  -6   8  168.73    3.73
   1  -6   9    5.71    0.63
   1  -6  10  139.93    3.27
   1  -6  11    9.50    0.64
   1  -6  12    0.82    0.58
   1  -6  13   24.73    0.98
   1  -6  14   10.21    0.77
   1  -6  15   46.80    1.63
   1  -6  16   47.48    1.54
   1  -6  17   20.18    0.88
   1  -6  18    0.55    0.79
   1  -6  19   -0.12    0.56
   1  -6  20   26.13    1.09
   1  -6  21    2.31    0.63
   1  -6  22   13.93    0.87
   1  -6  23   -0.11    0.65
   2  -6 -24    2.47    1.10
   2  -6 -23   14.68    1.02
   2  -6 -22    0.48    0.62
   2  -6 -21   72.76    2.23
   2  -6 -20    2.65    0.63
   2  -6 -19    1.16    0.59
   2  -6 -18    6.91    0.62
   2  -6 -17   40.26    1.26
   2  -6 -16   -0.02    0.39
   2  -6 -15  187.50    3.72
   2  -6 -14   10.86    0.60
   2  -6 -13   70.76    1.75
   2  -6 -12    2.08    0.35
   2  -6 -11   23.14    0.78
   2  -6 -10  242.24    5.10
   2  -6  -9  212.03    4.47
   2  -6  -8    2.49    0.36
   2  -6  -7    4.42    0.39
   2  -6  -6   83.22    2.15
   2  -6  -5  226.86    4.54
   2  -6  -4   77.82    1.91
   2  -6  -3  200.64    4.34
   2  -6  -2   31.07    1.00
   2  -6  -1  189.34    3.67
   2  -6   0   44.43    1.25
   2  -6   1  162.16    3.36
   2  -6   2  405.30    7.52
   2  -6   3   47.66    1.47
   2  -6   4    8.34    0.63
   2  -6   5   10.70    0.63
   2  -6   6   24.42    0.92
   2  -6   7   15.72    0.77
   2  -6   8   73.74    1.84
   2  -6   9   14.41    0.72
   2  -6  10    2.16    0.50
   2  -6  11    2.82    0.60
   2  -6  12    0.46    0.48
   2  -6  13   23.85    0.93
   2  -6  14  153.80    3.61
   2  -6  15   59.51    1.74
   2  -6  16  102.57    2.47
   2  -6  17    7.45    0.73
   2  -6  18   23.63    1.22
   2  -6  19   25.13    0.93
   2  -6  20    0.32    0.59
   2  -6  21   21.36    1.29
   2  -6  22    1.85    0.57
   2  -6  23    1.93    0.67
   3  -6 -24    6.61    1.26
   3  -6 -23    4.47    0.93
   3  -6 -22   12.60    0.88
   3  -6 -21    0.66    0.56
   3  -6 -20   19.70    0.86
   3  -6 -19    1.38    0.47
   3  -6 -18  176.89    3.75
   3  -6 -17   17.92    0.79
   3  -6 -16   12.72    0.71
   3  -6 -15    7.01    0.55
   3  -6 -14    0.93    0.41
   3  -6 -13    3.66    0.41
   3  -6 -12    0.95    0.40
   3  -6 -11   33.53    1.05
   3  -6 -10  100.25    2.31
   3  -6  -9  270.83    5.48
   3  -6  -8   49.92    1.34
   3  -6  -7    3.22    0.44
   3  -6  -6    2.04    0.40
   3  -6  -5   12.75    0.62
   3  -6  -4  116.62    2.71
   3  -6  -3    5.02    0.42
   3  -6  -2   29.51    1.01
   3  -6  -1    2.37    0.42
   3  -6   0  577.92   10.46
   3  -6   1  832.93   14.55
   3  -6   2    4.59    0.64
   3  -6   3   89.56    1.96
   3  -6   4  681.41   12.20
   3  -6   5  370.24    7.02
   3  -6   6   21.79    0.83
   3  -6   7   10.83    0.77
   3  -6   8  111.11    2.77
   3  -6   9   58.68    1.62
   3  -6  10  289.91    6.04
   3  -6  11    2.13    0.62
   3  -6  12  411.31    8.04
   3  -6  13   21.08    1.00
   3  -6  14    8.19    0.73
   3  -6  15   19.80    1.10
   3  -6  16    0.23    0.59
   3  -6  17    5.60    0.65
   3  -6  18   19.08    0.86
   3  -6  19    0.14    0.67
   3  -6  20    2.49    0.69
   3  -6  21    4.31    0.69
   3  -6  22    0.53    0.68
   4  -6 -24    0.39    1.05
   4  -6 -23    3.48    0.67
   4  -6 -22    2.70    0.65
   4  -6 -21    8.45    0.82
   4  -6 -20    4.51    0.80
   4  -6 -19   55.57    1.67
   4  -6 -18    7.78    0.67
   4  -6 -17    1.28    0.45
   4  -6 -16   31.87    1.12
   4  -6 -15   18.33    0.78
   4  -6 -14    6.88    0.59
   4  -6 -13   42.53    1.17
   4  -6 -12   59.70    1.72
   4  -6 -11  149.70    3.57
   4  -6 -10  214.52    4.29
   4  -6  -9   53.07    1.43
   4  -6  -8    1.58    0.37
   4  -6  -7  362.22    7.11
   4  -6  -6    2.22    0.37
   4  -6  -5   53.10    1.65
   4  -6  -4   79.16    2.07
   4  -6  -3  207.19    4.26
   4  -6  -2   64.07    1.83
   4  -6  -1  469.40    9.16
   4  -6   0   75.06    1.81
   4  -6   1  294.53    5.85
   4  -6   2  121.55    2.87
   4  -6   3  475.79    8.46
   4  -6   4  123.19    3.01
   4  -6   5  117.05    2.58
   4  -6   6   41.32    1.26
   4  -6   7    6.42    0.64
   4  -6   8  159.01    3.54
   4  -6   9   77.10    2.06
   4  -6  10   77.59    2.19
   4  -6  11  188.03    3.91
   4  -6  12    4.02    0.59
   4  -6  13    5.23    0.60
   4  -6  14    6.98    0.64
   4  -6  15   21.28    1.06
   4  -6  16   13.97    0.92
   4  -6  17    8.61    0.66
   4  -6  18    0.84    0.53
   4  -6  19   26.56    1.17
   4  -6  20   -0.35    0.70
   4  -6  21    3.37    0.57
   4  -6  22    1.42    0.59
   5  -6 -24    1.10    0.98
   5  -6 -23    2.10    0.64
   5  -6 -22    6.55    0.65
   5  -6 -21    0.87    0.55
   5  -6 -20   32.65    1.24
   5  -6 -19   13.60    0.81
   5  -6 -18    7.32    0.68
   5  -6 -17    1.84    0.52
   5  -6 -16   32.89    1.25
   5  -6 -15    6.05    0.54
   5  -6 -14   65.25    1.83
   5  -6 -13   24.60    1.01
   5  -6 -12   82.15    2.17
   5  -6 -11   17.29    0.80
   5  -6 -10    8.62    0.51
   5  -6  -9   57.03    1.77
   5  -6  -8  572.02   10.69
   5  -6  -7   83.63    2.15
   5  -6  -6   14.19    0.63
   5  -6  -5  531.92   10.09
   5  -6  -4  422.01    8.64
   5  -6  -3    3.04    0.61
   5  -6  -2   51.40    1.58
   5  -6  -1    5.41    0.62
   5  -6   0  414.95    8.37
   5  -6   1   67.57    1.80
   5  -6   2  885.49   15.94
   5  -6   3  474.30    9.38
   5  -6   4  148.53    3.29
   5  -6   5   25.27    1.00
   5  -6   6   16.85    0.82
   5  -6   7  153.60    3.38
   5  -6   8  298.30    6.12
   5  -6   9  133.59    3.16
   5  -6  10    6.49    0.60
   5  -6  11   26.35    1.04
   5  -6  12   38.52    1.37
   5  -6  13    3.20    0.64
   5  -6  14  263.70    5.39
   5  -6  15   55.75    1.64
   5  -6  16  150.03    3.49
   5  -6  17    7.34    0.86
   5  -6  18   12.79    0.90
   5  -6  19    3.13    0.62
   5  -6  20   52.76    1.61
   5  -6  21    7.19    0.80
   6  -6 -24   -0.34    0.97
   6  -6 -23   12.68    0.93
   6  -6 -22   18.73    1.08
   6  -6 -21   28.37    1.26
   6  -6 -20    2.66    0.74
   6  -6 -19   33.72    1.19
   6  -6 -18   67.64    1.79
   6  -6 -17   12.24    0.75
   6  -6 -16    4.91    0.71
   6  -6 -15   74.48    2.00
   6  -6 -14   33.88    1.21
   6  -6 -13    7.26    0.58
   6  -6 -12   10.27    0.67
   6  -6 -11   19.70    0.83
   6  -6 -10   20.33    0.84
   6  -6  -9   79.14    2.03
   6  -6  -8   51.57    1.57
   6  -6  -7   60.33    1.72
   6  -6  -6   49.48    1.49
   6  -6  -5    1.18    0.45
   6  -6  -4  361.86    7.51
   6  -6  -3  135.47    2.84
   6  -6  -2   22.40    0.98
   6  -6  -1 1190.47   20.86
   6  -6   0   18.88    0.90
   6  -6   1  101.96    2.36
   6  -6   2  730.50   13.02
   6  -6   3  768.59   13.91
   6  -6   4  270.51    5.72
   6  -6   5  610.97   11.67
   6  -6   6   40.65    1.33
   6  -6   7  222.44    5.02
   6  -6   8   42.60    1.33
   6  -6   9    5.59    0.60
   6  -6  10   44.22    1.43
   6  -6  11   13.02    0.79
   6  -6  12  152.64    3.23
   6  -6  13   54.04    1.50
   6  -6  14    2.21    0.55
   6  -6  15    1.61    0.52
   6  -6  16    1.30    0.53
   6  -6  17    2.59    0.57
   6  -6  18   48.32    1.57
   6  -6  19   36.11    1.31
   6  -6  20    0.83    0.55
   6  -6  21   12.47    0.87
   7  -6 -23    0.21    0.71
   7  -6 -22    8.81    0.76
   7  -6 -21    0.47    0.59
   7  -6 -20   19.96    0.93
   7  -6 -19   10.86    0.70
   7  -6 -18   75.56    2.02
   7  -6 -17   11.86    0.94
   7  -6 -16   45.57    1.35
   7  -6 -15    3.52    0.51
   7  -6 -14    1.94    0.67
   7  -6 -13    8.56    0.68
   7  -6 -12  133.54    3.30
   7  -6 -11   13.65    0.82
   7  -6 -10   58.19    1.68
   7  -6  -9   38.55    1.22
   7  -6  -8  141.52    3.21
   7  -6  -7  200.87    4.69
   7  -6  -6    2.28    0.48
   7  -6  -5   85.54    2.09
   7  -6  -4   59.08    1.78
   7  -6  -3   76.07    1.98
   7  -6  -2  321.98    6.43
   7  -6  -1    9.33    0.72
   7  -6   0  101.60    2.67
   7  -6   1    9.63    0.67
   7  -6   2   71.09    1.86
   7  -6   3   41.11    1.26
   7  -6   4    9.76    0.71
   7  -6   5  408.05    7.91
   7  -6   6   14.93    0.73
   7  -6   7   97.75    2.30
   7  -6   8    0.81    0.60
   7  -6   9  175.85    3.67
   7  -6  10   10.28    0.72
   7  -6  11   33.60    1.30
   7  -6  12   58.87    1.77
   7  -6  13   22.73    1.03
   7  -6  14   14.80    0.81
   7  -6  15    1.23    0.55
   7  -6  16   51.29    1.69
   7  -6  17    3.21    0.59
   7  -6  18   35.27    1.32
   7  -6  19    9.63    0.78
   7  -6  20    8.56    0.89
   8  -6 -23    1.89    0.74
   8  -6 -22    1.87    0.64
   8  -6 -21    4.85    0.76
   8  -6 -20   19.45    0.98
   8  -6 -19  134.12    3.06
   8  -6 -18   13.55    0.85
   8  -6 -17  115.50    2.74
   8  -6 -16    1.51    0.61
   8  -6 -15    8.08    0.66
   8  -6 -14    1.49    0.59
   8  -6 -13   66.66    1.93
   8  -6 -12    5.78    0.56
   8  -6 -11  197.30    4.12
   8  -6 -10   88.81    2.15
   8  -6  -9   70.92    1.92
   8  -6  -8  202.15    4.80
   8  -6  -7   95.27    2.55
   8  -6  -6   35.94    1.27
   8  -6  -5  156.59    3.45
   8  -6  -4   41.03    1.36
   8  -6  -3   73.15    2.07
   8  -6  -2  400.14    7.80
   8  -6  -1   15.00    0.75
   8  -6   0   10.22    0.70
   8  -6   1   68.81    2.01
   8  -6   2   13.33    0.75
   8  -6   3    8.48    0.77
   8  -6   4  869.08   15.77
   8  -6   5   29.20    1.11
   8  -6   6   17.90    0.88
   8  -6   7  117.97    2.86
   8  -6   8    9.62    0.65
   8  -6   9   86.87    2.27
   8  -6  10    1.86    0.53
   8  -6  11   84.41    2.38
   8  -6  12   10.97    0.76
   8  -6  13   11.51    0.80
   8  -6  14   -0.15    0.58
   8  -6  15   46.63    1.67
   8  -6  16    2.45    0.71
   8  -6  17   11.13    0.93
   8  -6  18   56.60    1.57
   8  -6  19    3.75    0.74
   8  -6  20    6.39    0.78
   9  -6 -23   -0.16    0.64
   9  -6 -22   14.23    0.89
   9  -6 -21    7.72    0.74
   9  -6 -20   45.41    1.45
   9  -6 -19    0.17    0.62
   9  -6 -18   -0.21    0.70
   9  -6 -17    5.61    0.75
   9  -6 -16   55.82    1.57
   9  -6 -15    0.98    0.61
   9  -6 -14   26.35    1.14
   9  -6 -13   40.00    1.33
   9  -6 -12   85.06    2.29
   9  -6 -11    4.82    0.64
   9  -6 -10    1.50    0.61
   9  -6  -9   43.74    1.38
   9  -6  -8   91.72    2.37
   9  -6  -7   -0.83    0.67
   9  -6  -6  295.41    6.22
   9  -6  -5    1.54    0.59
   9  -6  -4   27.08    1.08
   9  -6  -3   57.48    1.70
   9  -6  -2    1.67    0.60
   9  -6  -1    0.23    0.52
   9  -6   0   57.92    1.72
   9  -6   1   18.48    0.88
   9  -6   2   78.07    2.08
   9  -6   3   58.66    1.68
   9  -6   4   64.82    1.83
   9  -6   5    3.26    0.51
   9  -6   6   56.83    1.71
   9  -6   7   56.27    1.65
   9  -6   8   54.59    1.67
   9  -6   9    9.41    0.71
   9  -6  10   18.80    0.93
   9  -6  11    1.23    0.57
   9  -6  12   12.53    0.81
   9  -6  13   52.30    1.46
   9  -6  14   32.37    1.17
   9  -6  15   24.34    0.96
   9  -6  16   51.23    1.66
   9  -6  17    3.84    0.72
   9  -6  18    2.05    0.60
   9  -6  19   11.19    0.74
  10  -6 -22   16.52    1.04
  10  -6 -21    3.99    0.71
  10  -6 -20    6.38    0.76
  10  -6 -19    0.34    0.58
  10  -6 -18   29.37    1.14
  10  -6 -17   41.48    1.23
  10  -6 -16    2.71    0.73
  10  -6 -15   13.81    0.92
  10  -6 -14    4.04    0.63
  10  -6 -13    0.43    0.53
  10  -6 -12    1.62    0.54
  10  -6 -11  177.38    3.86
  10  -6 -10   78.48    2.15
  10  -6  -9  101.12    2.39
  10  -6  -8   44.04    1.40
  10  -6  -7  141.85    3.55
  10  -6  -6   58.34    1.80
  10  -6  -5   12.79    0.86
  10  -6  -4   17.88    0.99
  10  -6  -3   98.89    2.54
  10  -6  -2   18.92    0.98
  10  -6  -1  258.01    5.52
  10  -6   0   15.11    0.83
  10  -6   1  129.96    3.12
  10  -6   2   67.50    1.94
  10  -6   3    0.67    0.53
  10  -6   4   52.90    1.51
  10  -6   5  136.57    3.32
  10  -6   6    4.94    0.71
  10  -6   7   30.64    1.15
  10  -6   8   26.88    1.14
  10  -6   9    0.91    0.55
  10  -6  10    3.80    0.62
  10  -6  11    4.85    0.74
  10  -6  12    3.92    0.70
  10  -6  13   65.54    1.86
  10  -6  14    4.26    0.62
  10  -6  15    8.11    0.74
  10  -6  16   24.58    1.11
  10  -6  17    3.17    0.76
  10  -6  18    2.95    0.67
  11  -6 -22    0.14    0.72
  11  -6 -21    6.37    0.85
  11  -6 -20    4.04    0.91
  11  -6 -19   -0.67    0.82
  11  -6 -18   91.71    2.55
  11  -6 -17    2.13    0.60
  11  -6 -16    8.91    0.76
  11  -6 -15    9.62    0.79
  11  -6 -14   20.26    0.96
  11  -6 -13   20.60    0.95
  11  -6 -12  197.16    4.24
  11  -6 -11   37.52    1.32
  11  -6 -10  136.32    3.16
  11  -6  -9   28.80    1.10
  11  -6  -8    0.24    0.53
  11  -6  -7  113.80    2.52
  11  -6  -6    9.55    0.78
  11  -6  -5   22.42    0.95
  11  -6  -4   87.38    2.50
  11  -6  -3   69.48    1.83
  11  -6  -2  104.74    2.62
  11  -6  -1   35.80    1.21
  11  -6   0    7.19    0.66
  11  -6   1    5.53    0.75
  11  -6   2  105.40    2.62
  11  -6   3   74.72    1.82
  11  -6   4  356.37    7.07
  11  -6   5    2.62    0.66
  11  -6   6    1.29    0.58
  11  -6   7   52.45    1.62
  11  -6   8   18.17    0.98
  11  -6   9    0.03    0.71
  11  -6  10   52.12    1.67
  11  -6  11    6.79    0.69
  11  -6  12   22.36    1.05
  11  -6  13    0.92    0.75
  11  -6  14    5.11    0.69
  11  -6  15   26.35    1.09
  11  -6  16   24.70    1.01
  11  -6  17    0.15    0.57
  12  -6 -21   11.63    0.86
  12  -6 -20   -0.38    0.62
  12  -6 -19   18.20    0.99
  12  -6 -18    0.25    0.60
  12  -6 -17    0.41    0.71
  12  -6 -16    4.34    0.73
  12  -6 -15   10.63    0.81
  12  -6 -14    3.96    0.76
  12  -6 -13   60.47    1.78
  12  -6 -12   41.63    1.43
  12  -6 -11   69.70    2.07
  12  -6 -10    0.30    0.54
  12  -6  -9   22.49    0.98
  12  -6  -8    0.84    0.58
  12  -6  -7   66.75    1.89
  12  -6  -6    5.32    0.67
  12  -6  -5   29.28    1.10
  12  -6  -4    3.15    0.56
  12  -6  -3   21.47    0.90
  12  -6  -2    5.11    0.68
  12  -6  -1   25.67    1.00
  12  -6   0    1.93    0.57
  12  -6   1  339.70    7.15
  12  -6   2   81.45    2.28
  12  -6   3   29.67    1.14
  12  -6   4    1.17    0.59
  12  -6   5    3.64    0.71
  12  -6   6   20.89    0.92
  12  -6   7   30.35    1.11
  12  -6   8    3.86    0.62
  12  -6   9   55.14    1.72
  12  -6  10    5.99    0.68
  12  -6  11   29.37    1.03
  12  -6  12   21.36    0.92
  12  -6  13   13.02    0.84
  12  -6  14    2.55    0.67
  12  -6  15   43.15    1.49
  12  -6  16    2.47    0.62
  13  -6 -21    0.25    0.85
  13  -6 -20   12.59    1.10
  13  -6 -19    5.25    0.97
  13  -6 -18    0.07    0.81
  13  -6 -17    5.83    0.77
  13  -6 -16   90.47    2.44
  13  -6 -15    1.66    0.80
  13  -6 -14   25.47    1.25
  13  -6 -13    2.56    0.68
  13  -6 -12   12.33    0.81
  13  -6 -11   59.63    1.68
  13  -6 -10   11.28    0.79
  13  -6  -9   30.76    1.30
  13  -6  -8   71.98    2.14
  13  -6  -7    5.64    0.71
  13  -6  -6   14.26    1.00
  13  -6  -5   14.90    0.89
  13  -6  -4   18.09    0.89
  13  -6  -3   94.86    2.41
  13  -6  -2    6.47    0.77
  13  -6  -1   11.53    0.87
  13  -6   0   41.50    1.38
  13  -6   1    3.42    0.66
  13  -6   2    0.87    0.62
  13  -6   3    8.95    0.73
  13  -6   4  194.11    4.14
  13  -6   5    6.56    0.82
  13  -6   6   15.40    0.91
  13  -6   7    0.32    0.64
  13  -6   8   35.28    1.20
  13  -6   9    8.59    0.75
  13  -6  10    0.40    0.63
  13  -6  11   13.19    0.84
  13  -6  12   31.74    1.11
  13  -6  13    3.50    0.66
  13  -6  14   74.20    2.00
  13  -6  15   -0.17    0.69
  14  -6 -20   -0.40    0.63
  14  -6 -19    6.97    0.74
  14  -6 -18   -0.24    0.66
  14  -6 -17    7.34    0.81
  14  -6 -16   26.86    1.17
  14  -6 -15   56.11    1.62
  14  -6 -14   -0.02    0.68
  14  -6 -13   14.38    0.88
  14  -6 -12    5.61    0.67
  14  -6 -11    0.62    0.62
  14  -6 -10    0.34    0.71
  14  -6  -9    0.85    0.59
  14  -6  -8   14.36    1.08
  14  -6  -7   23.01    1.25
  14  -6  -6    0.12    0.72
  14  -6  -5    4.42    0.75
  14  -6  -4   73.22    2.35
  14  -6  -3   22.82    1.00
  14  -6  -2    0.82    0.61
  14  -6  -1   20.81    1.01
  14  -6   0   55.29    1.70
  14  -6   1    2.81    0.65
  14  -6   2   -0.27    0.59
  14  -6   3  113.41    3.15
  14  -6   4   15.08    0.89
  14  -6   5   35.94    1.42
  14  -6   6   29.31    1.07
  14  -6   7   46.98    1.56
  14  -6   8   10.45    0.71
  14  -6   9    0.71    0.61
  14  -6  10    6.76    0.87
  14  -6  11   53.50    1.63
  14  -6  12   32.28    1.23
  14  -6  13   38.69    1.40
  14  -6  14    1.13    0.74
  15  -6 -19    3.94    0.76
  15  -6 -18   20.73    1.08
  15  -6 -17    4.21    0.68
  15  -6 -16    6.25    0.74
  15  -6 -15    6.14    0.77
  15  -6 -14   -0.24    0.64
  15  -6 -13    1.05    0.69
  15  -6 -12   33.54    1.33
  15  -6 -11   76.63    2.11
  15  -6 -10   12.08    0.92
  15  -6  -9    2.39    0.83
  15  -6  -8   11.78    0.91
  15  -6  -7    1.02    0.71
  15  -6  -6   17.99    0.98
  15  -6  -5    0.96    0.69
  15  -6  -4   80.36    2.04
  15  -6  -3    2.15    0.93
  15  -6  -2  100.49    2.47
  15  -6  -1    2.75    0.66
  15  -6   0    0.97    0.67
  15  -6   1   -0.02    0.65
  15  -6   2   21.44    1.05
  15  -6   3   23.28    1.17
  15  -6   4   10.62    0.77
  15  -6   5    0.74    0.72
  15  -6   6    5.78    0.69
  15  -6   7    3.54    0.82
  15  -6   8    0.06    0.71
  15  -6   9    4.94    0.78
  15  -6  10   41.96    1.67
  15  -6  11    8.33    0.81
  15  -6  12    0.65    0.65
  16  -6 -18    0.39    0.92
  16  -6 -17    1.74    0.65
  16  -6 -16   -0.40    0.68
  16  -6 -15    8.34    0.82
  16  -6 -14    4.97    0.83
  16  -6 -13    7.97    0.80
  16  -6 -12   10.94    0.98
  16  -6 -11   29.65    1.30
  16  -6 -10    4.71    0.85
  16  -6  -9    0.42    0.63
  16  -6  -8    1.02    0.73
  16  -6  -7    6.31    0.74
  16  -6  -6   16.14    0.86
  16  -6  -5   65.75    2.18
  16  -6  -4    4.85    0.76
  16  -6  -3    1.56    0.60
  16  -6  -2   32.59    1.21
  16  -6  -1    9.75    1.03
  16  -6   0   12.64    0.90
  16  -6   1   49.48    1.60
  16  -6   2   24.38    1.17
  16  -6   3    8.84    0.85
  16  -6   4    2.72    0.70
  16  -6   5   -0.21    0.58
  16  -6   6    5.00    0.69
  16  -6   7    3.83    0.82
  16  -6   8   -0.63    0.66
  16  -6   9   20.00    1.07
  16  -6  10    0.21    0.83
  16  -6  11    0.40    0.66
  17  -6 -17    0.76    0.84
  17  -6 -16   15.19    0.95
  17  -6 -15    0.87    0.72
  17  -6 -14   29.47    1.34
  17  -6 -13    2.21    0.71
  17  -6 -12   11.17    0.90
  17  -6 -11    5.18    0.79
  17  -6 -10   24.63    1.04
  17  -6  -9    1.21    0.68
  17  -6  -8   68.21    1.88
  17  -6  -7    0.73    0.97
  17  -6  -6   11.62    0.90
  17  -6  -5    6.42    0.77
  17  -6  -4   42.85    1.64
  17  -6  -3    2.30    0.77
  17  -6  -2   48.36    1.54
  17  -6  -1   10.51    0.79
  17  -6   0   89.35    2.42
  17  -6   1    0.29    0.79
  17  -6   2    2.10    0.76
  17  -6   3    5.85    0.75
  17  -6   4   20.76    1.08
  17  -6   5   11.90    0.87
  17  -6   6   22.42    1.01
  17  -6   7    0.01    0.66
  17  -6   8    1.44    0.71
  17  -6   9    0.94    0.74
  18  -6 -15    0.23    0.66
  18  -6 -14    5.08    0.80
  18  -6 -13    2.02    0.79
  18  -6 -12   11.70    1.15
  18  -6 -11   26.52    1.09
  18  -6 -10    0.29    0.72
  18  -6  -9   12.80    0.85
  18  -6  -8   23.68    1.42
  18  -6  -7    1.69    0.63
  18  -6  -6    1.78    0.79
  18  -6  -5   41.28    1.45
  18  -6  -4    2.78    0.68
  18  -6  -3   27.66    1.20
  18  -6  -2    2.39    0.91
  18  -6  -1   53.20    1.64
  18  -6   0    0.47    0.67
  18  -6   1    5.71    0.71
  18  -6   2    0.70    0.82
  18  -6   3   29.59    1.20
  18  -6   4    6.58    0.85
  18  -6   5   10.08    0.81
  18  -6   6    0.06    0.76
  18  -6   7    0.83    0.67
  19  -6 -13    0.95    1.01
  19  -6 -12    3.17    0.73
  19  -6 -11    3.40    0.80
  19  -6 -10    0.81    0.67
  19  -6  -9    0.17    0.89
  19  -6  -8    7.97    0.78
  19  -6  -7   -0.03    0.71
  19  -6  -6   45.69    1.65
  19  -6  -5   12.48    0.86
  19  -6  -4    4.06    0.75
  19  -6  -3    2.09    0.71
  19  -6  -2    3.69    0.72
  19  -6  -1    2.20    0.95
  19  -6   0   19.14    1.03
  19  -6   1    2.76    0.87
  19  -6   2   37.04    1.54
  19  -6   3   -0.10    0.92
  19  -6   4    0.53    0.70
  20  -6 -10    1.24    0.91
  20  -6  -9    1.90    0.64
  20  -6  -8    5.66    0.90
  20  -6  -7   19.92    1.27
  20  -6  -6    0.00    0.72
  20  -6  -5    7.97    0.92
  20  -6  -4    0.41    0.63
  20  -6  -3    3.08    0.85
  20  -6  -2    0.27    0.63
  20  -6  -1    6.67    0.80
  20  -6   0   -0.38    0.88
  20  -6   1    4.17    0.88
 -20  -7   1    3.00    0.87
 -20  -7   2    0.29    0.67
 -20  -7   3    2.69    0.81
 -20  -7   4    0.30    0.60
 -20  -7   5    3.13    0.77
 -20  -7   6    0.95    0.81
 -20  -7   7    1.58    0.93
 -20  -7   8    5.07    1.12
 -19  -7  -3    2.59    0.67
 -19  -7  -2    1.07    0.58
 -19  -7  -1    9.04    0.90
 -19  -7   0   16.28    0.98
 -19  -7   1    1.60    0.61
 -19  -7   2   17.92    1.01
 -19  -7   3    7.38    0.91
 -19  -7   4   12.58    0.90
 -19  -7   5    7.46    0.79
 -19  -7   6    0.76    0.78
 -19  -7   7    4.83    0.79
 -19  -7   8   10.28    0.93
 -19  -7   9    2.00    0.70
 -19  -7  10   12.89    0.94
 -19  -7  11    1.68    0.60
 -19  -7  12    0.89    0.71
 -18  -7  -6    1.09    0.65
 -18  -7  -5    7.09    0.78
 -18  -7  -4   16.11    0.88
 -18  -7  -3    4.04    0.87
 -18  -7  -2   24.49    1.00
 -18  -7  -1   24.89    1.19
 -18  -7   0    3.80    0.65
 -18  -7   1   24.25    1.07
 -18  -7   2    9.20    0.76
 -18  -7   3    0.52    0.66
 -18  -7   4   28.33    1.08
 -18  -7   5    5.20    0.72
 -18  -7   6    0.71    0.74
 -18  -7   7    9.07    0.89
 -18  -7   8    2.54    0.78
 -18  -7   9    4.14    0.72
 -18  -7  10   28.21    1.23
 -18  -7  11    5.52    0.75
 -18  -7  12    2.42    0.77
 -18  -7  13    7.60    0.89
 -18  -7  14    2.91    0.78
 -17  -7  -8   15.30    1.08
 -17  -7  -7    0.32    0.62
 -17  -7  -6    6.50    0.71
 -17  -7  -5   41.27    1.34
 -17  -7  -4   18.02    0.91
 -17  -7  -3   33.95    1.25
 -17  -7  -2    3.14    0.73
 -17  -7  -1   11.03    0.73
 -17  -7   0   -0.06    0.65
 -17  -7   1    2.74    0.73
 -17  -7   2    5.34    0.66
 -17  -7   3   64.21    1.73
 -17  -7   4    0.41    0.61
 -17  -7   5    0.27    0.60
 -17  -7   6   18.08    0.93
 -17  -7   7    1.14    0.72
 -17  -7   8    1.37    0.75
 -17  -7   9   17.46    0.91
 -17  -7  10   18.45    1.13
 -17  -7  11    3.68    0.72
 -17  -7  12   11.75    0.98
 -17  -7  13    4.79    0.75
 -17  -7  14   -0.15    0.81
 -17  -7  15   14.34    0.95
 -17  -7  16    0.72    0.96
 -16  -7 -10   19.83    1.29
 -16  -7  -9   11.76    0.77
 -16  -7  -8    1.22    0.58
 -16  -7  -7    1.85    0.67
 -16  -7  -6   19.12    0.96
 -16  -7  -5   20.37    1.05
 -16  -7  -4    0.02    0.58
 -16  -7  -3   19.01    0.92
 -16  -7  -2   76.67    2.07
 -16  -7  -1    0.14    0.60
 -16  -7   0    2.32    0.65
 -16  -7   1   65.10    1.72
 -16  -7   2    0.74    0.53
 -16  -7   3   43.61    1.42
 -16  -7   4   22.57    1.00
 -16  -7   5   43.78    1.50
 -16  -7   6   22.00    0.99
 -16  -7   7    3.08    0.75
 -16  -7   8    4.38    0.74
 -16  -7   9   32.21    1.20
 -16  -7  10   46.69    1.78
 -16  -7  11    4.03    0.72
 -16  -7  12   51.32    1.59
 -16  -7  13    1.82    0.74
 -16  -7  14   10.74    0.89
 -16  -7  15   11.76    0.88
 -16  -7  16    2.75    0.79
 -16  -7  17   12.07    0.92
 -15  -7 -12    9.87    0.83
 -15  -7 -11    9.40    0.75
 -15  -7 -10    1.82    0.59
 -15  -7  -9    0.87    0.50
 -15  -7  -8   43.08    1.55
 -15  -7  -7   11.32    0.79
 -15  -7  -6   60.92    1.62
 -15  -7  -5    3.80    0.64
 -15  -7  -4   34.36    1.14
 -15  -7  -3   30.00    1.02
 -15  -7  -2    0.18    0.62
 -15  -7  -1   40.95    1.28
 -15  -7   0   55.68    1.58
 -15  -7   1    5.60    0.72
 -15  -7   2    8.96    0.67
 -15  -7   3    7.53    0.80
 -15  -7   4    1.79    0.59
 -15  -7   5   12.53    0.86
 -15  -7   6    5.45    0.63
 -15  -7   7   45.00    1.57
 -15  -7   8    6.83    0.76
 -15  -7   9    0.24    0.77
 -15  -7  10    4.82    0.79
 -15  -7  11   14.36    1.01
 -15  -7  12   26.25    1.20
 -15  -7  13   10.92    0.94
 -15  -7  14   30.08    1.14
 -15  -7  15    6.55    0.87
 -15  -7  16   17.55    1.27
 -15  -7  17    0.01    0.73
 -15  -7  18    2.82    0.69
 -15  -7  19    0.13    1.13
 -14  -7 -13    2.89    0.54
 -14  -7 -12    6.86    0.67
 -14  -7 -11    0.21    0.57
 -14  -7 -10    2.61    0.64
 -14  -7  -9    9.49    0.63
 -14  -7  -8    2.42    0.54
 -14  -7  -7   13.14    0.73
 -14  -7  -6   42.81    1.26
 -14  -7  -5    0.67    0.52
 -14  -7  -4    2.14    0.60
 -14  -7  -3   10.46    0.71
 -14  -7  -2    2.22    0.56
 -14  -7  -1   19.46    0.87
 -14  -7   0    3.74    0.64
 -14  -7   1    7.05    0.68
 -14  -7   2    4.97    0.64
 -14  -7   3   75.41    1.99
 -14  -7   4   11.17    0.75
 -14  -7   5    0.97    0.63
 -14  -7   6   -0.08    0.56
 -14  -7   7   51.82    1.48
 -14  -7   8    2.22    0.69
 -14  -7   9    0.32    0.56
 -14  -7  10    6.55    0.75
 -14  -7  11    4.87    0.62
 -14  -7  12   19.05    1.23
 -14  -7  13   63.17    1.75
 -14  -7  14    2.81    0.80
 -14  -7  15    4.46    0.76
 -14  -7  16    0.38    0.91
 -14  -7  17    1.15    0.72
 -14  -7  18    2.31    0.83
 -14  -7  19    6.59    0.81
 -13  -7 -14    8.51    0.74
 -13  -7 -13   43.36    1.11
 -13  -7 -12    3.28    0.57
 -13  -7 -11    0.64    0.44
 -13  -7 -10    1.13    0.51
 -13  -7  -9    6.71    0.62
 -13  -7  -8    9.65    0.60
 -13  -7  -7   19.03    0.80
 -13  -7  -6   25.34    0.91
 -13  -7  -5   39.97    1.25
 -13  -7  -4    0.64    0.44
 -13  -7  -3    1.84    0.51
 -13  -7  -2   58.42    1.49
 -13  -7  -1    3.59    0.49
 -13  -7   0    6.47    0.73
 -13  -7   1   53.48    1.50
 -13  -7   2   55.41    1.65
 -13  -7   3   42.67    1.43
 -13  -7   4    0.14    0.61
 -13  -7   5    3.16    0.62
 -13  -7   6   57.79    1.89
 -13  -7   7  130.72    3.27
 -13  -7   8    1.94    0.63
 -13  -7   9    1.16    0.67
 -13  -7  10   22.02    0.97
 -13  -7  11    2.57    0.65
 -13  -7  12   19.43    0.98
 -13  -7  13   12.33    0.90
 -13  -7  14    1.10    0.68
 -13  -7  15   61.17    2.00
 -13  -7  16   11.09    0.93
 -13  -7  17   17.60    1.26
 -13  -7  18   22.07    1.07
 -13  -7  19    0.16    0.82
 -13  -7  20    7.00    0.81
 -12  -7 -13   36.20    1.07
 -12  -7 -12    0.68    0.43
 -12  -7 -11   45.10    2.03
 -12  -7 -10    0.25    0.40
 -12  -7  -9    0.08    0.41
 -12  -7  -8    6.56    0.49
 -12  -7  -7  139.74    3.12
 -12  -7  -6    3.50    0.49
 -12  -7  -5   50.70    1.35
 -12  -7  -4   10.03    0.60
 -12  -7  -3   11.39    0.67
 -12  -7  -2  101.88    2.19
 -12  -7  -1    2.03    0.52
 -12  -7   0   44.22    1.28
 -12  -7   1   29.52    1.15
 -12  -7   2    0.53    0.49
 -12  -7   3   52.50    1.74
 -12  -7   4    0.34    0.46
 -12  -7   5    1.06    0.63
 -12  -7   6   40.05    1.31
 -12  -7   7    3.50    0.89
 -12  -7   8    9.06    0.66
 -12  -7   9   46.40    1.44
 -12  -7  10    9.92    0.75
 -12  -7  11   77.34    2.16
 -12  -7  12   19.69    0.92
 -12  -7  13   -0.31    0.54
 -12  -7  14    9.07    0.91
 -12  -7  15    0.59    0.70
 -12  -7  16    3.13    0.93
 -12  -7  17   34.90    1.32
 -12  -7  18    2.46    0.79
 -12  -7  19   -0.36    0.66
 -12  -7  20    3.19    0.84
 -12  -7  21    0.90    0.82
 -11  -7 -13   14.24    1.04
 -11  -7 -12   12.54    0.77
 -11  -7 -11    3.19    0.40
 -11  -7 -10    0.18    0.32
 -11  -7  -9   20.80    0.85
 -11  -7  -8  147.50    2.94
 -11  -7  -7   20.04    0.77
 -11  -7  -6   76.41    1.99
 -11  -7  -5   44.99    1.30
 -11  -7  -4   19.82    0.80
 -11  -7  -3  106.91    2.45
 -11  -7  -2   24.54    0.87
 -11  -7  -1   27.32    1.00
 -11  -7   0   14.70    0.77
 -11  -7   1   57.90    1.73
 -11  -7   2   36.53    1.25
 -11  -7   3    7.67    0.63
 -11  -7   4   -0.11    0.68
 -11  -7   5   49.88    1.55
 -11  -7   6   30.60    1.22
 -11  -7   7   66.28    1.87
 -11  -7   8   14.73    0.86
 -11  -7   9    3.41    0.59
 -11  -7  10    0.84    0.66
 -11  -7  11   16.15    0.95
 -11  -7  12   15.66    0.87
 -11  -7  13   37.14    1.44
 -11  -7  14  111.65    3.15
 -11  -7  15    9.27    0.97
 -11  -7  16   35.50    1.26
 -11  -7  17    0.75    0.71
 -11  -7  18    2.32    0.64
 -11  -7  19    4.40    0.70
 -11  -7  20   21.58    1.15
 -11  -7  21   -0.23    0.72
 -11  -7  22   16.51    1.05
 -10  -7 -12   15.44    0.82
 -10  -7 -11    0.22    0.19
 -10  -7 -10   15.55    0.73
 -10  -7  -9   56.20    1.46
 -10  -7  -8   71.98    1.66
 -10  -7  -7    9.61    0.49
 -10  -7  -6    1.63    0.33
 -10  -7  -5   11.08    0.56
 -10  -7  -4  361.69    6.92
 -10  -7  -3  101.84    2.48
 -10  -7  -2   14.39    0.72
 -10  -7  -1   75.59    1.94
 -10  -7   0   86.18    2.14
 -10  -7   1    1.06    0.45
 -10  -7   2   50.96    1.61
 -10  -7   3   22.96    0.86
 -10  -7   4   18.74    0.83
 -10  -7   5  142.40    3.49
 -10  -7   6    1.17    0.53
 -10  -7   7    0.54    0.61
 -10  -7   8  112.87    2.88
 -10  -7   9   -0.13    0.59
 -10  -7  10    0.87    0.63
 -10  -7  11   91.75    3.09
 -10  -7  12   92.32    2.39
 -10  -7  13  167.32    3.43
 -10  -7  14   69.62    1.79
 -10  -7  15    0.52    0.58
 -10  -7  16   18.30    0.97
 -10  -7  17   15.06    0.91
 -10  -7  18    0.91    0.61
 -10  -7  19   17.20    0.99
 -10  -7  20   16.62    1.01
 -10  -7  21    1.28    0.92
 -10  -7  22   12.45    0.93
  -9  -7 -10    1.19    0.16
  -9  -7  -9    9.54    0.45
  -9  -7  -8    7.19    0.39
  -9  -7  -7    1.22    0.27
  -9  -7  -6   91.25    2.24
  -9  -7  -5   94.77    2.04
  -9  -7  -4  137.43    3.14
  -9  -7  -3  120.21    2.88
  -9  -7  -2  109.69    2.80
  -9  -7  -1   40.55    1.18
  -9  -7   0    0.16    0.35
  -9  -7   1   20.01    0.80
  -9  -7   2   54.77    1.53
  -9  -7   3    1.01    0.51
  -9  -7   4   36.01    1.20
  -9  -7   5   26.91    0.99
  -9  -7   6   79.61    2.37
  -9  -7   7   57.21    1.67
  -9  -7   8   17.24    0.85
  -9  -7   9   51.88    1.52
  -9  -7  10  157.09    3.62
  -9  -7  11    1.62    0.69
  -9  -7  12  164.96    3.65
  -9  -7  13    2.61    0.56
  -9  -7  14    3.61    0.72
  -9  -7  15   19.98    1.02
  -9  -7  16    5.86    0.86
  -9  -7  17   85.74    2.27
  -9  -7  18   19.06    1.09
  -9  -7  19    0.23    0.68
  -9  -7  20   14.50    1.19
  -9  -7  21    0.36    0.57
  -9  -7  22    1.99    0.82
  -8  -7  -8    0.29    0.16
  -8  -7  -7   90.78    2.19
  -8  -7  -6   20.44    0.73
  -8  -7  -5   73.54    1.65
  -8  -7  -4    1.25    0.26
  -8  -7  -3  102.21    2.46
  -8  -7  -2    2.50    0.36
  -8  -7  -1  211.94    4.33
  -8  -7   0   46.37    1.38
  -8  -7   1   85.66    2.14
  -8  -7   2    0.05    0.48
  -8  -7   3   83.20    2.09
  -8  -7   4   91.74    2.30
  -8  -7   5    3.61    0.57
  -8  -7   6    2.53    0.48
  -8  -7   7  213.10    4.86
  -8  -7   8   14.27    0.78
  -8  -7   9  101.08    2.52
  -8  -7  10   46.98    1.36
  -8  -7  11   58.87    1.74
  -8  -7  12    5.52    0.64
  -8  -7  13   98.60    2.80
  -8  -7  14    9.35    0.77
  -8  -7  15   71.92    1.98
  -8  -7  16    7.98    0.71
  -8  -7  17    2.61    0.64
  -8  -7  18    3.18    0.64
  -8  -7  19   15.31    0.91
  -8  -7  20    2.39    0.73
  -8  -7  21   44.20    1.48
  -8  -7  22   10.73    0.92
  -8  -7  23    8.87    0.81
  -7  -7  -6  146.03    3.06
  -7  -7  -5    9.28    0.42
  -7  -7  -4  114.15    2.35
  -7  -7  -3   23.26    0.70
  -7  -7  -2   47.51    1.37
  -7  -7  -1   65.10    1.61
  -7  -7   0    4.06    0.38
  -7  -7   1   13.31    0.64
  -7  -7   2   38.15    1.16
  -7  -7   3  647.79   12.37
  -7  -7   4   27.38    0.99
  -7  -7   5   21.55    0.97
  -7  -7   6  462.20    9.03
  -7  -7   7   25.13    0.99
  -7  -7   8   88.09    2.33
  -7  -7   9  166.14    3.75
  -7  -7  10    0.96    0.54
  -7  -7  11    1.75    0.59
  -7  -7  12   15.66    0.95
  -7  -7  13   68.72    2.12
  -7  -7  14   46.43    1.49
  -7  -7  15    0.14    0.82
  -7  -7  16    0.17    0.55
  -7  -7  17   33.96    1.34
  -7  -7  18    1.52    0.58
  -7  -7  19    4.57    0.77
  -7  -7  20   38.07    1.44
  -7  -7  21    1.70    0.77
  -7  -7  22    0.10    0.59
  -7  -7  23    2.20    0.85
  -6  -7  -5   86.43    1.76
  -6  -7  -4   21.89    0.75
  -6  -7  -3   21.44    0.73
  -6  -7  -2    2.36    0.32
  -6  -7  -1   69.07    1.90
  -6  -7   0  173.77    3.69
  -6  -7   1    0.57    0.35
  -6  -7   2    1.34    0.40
  -6  -7   3   28.79    1.09
  -6  -7   4   14.19    0.67
  -6  -7   5  196.48    4.14
  -6  -7   6   71.01    1.80
  -6  -7   7   90.82    2.29
  -6  -7   8   29.21    1.02
  -6  -7   9   10.98    0.64
  -6  -7  10    0.79    0.60
  -6  -7  11  231.51    5.24
  -6  -7  12   53.47    1.85
  -6  -7  13  196.33    4.13
  -6  -7  14   27.53    1.11
  -6  -7  15    6.47    0.84
  -6  -7  16   33.16    1.33
  -6  -7  17   18.29    1.00
  -6  -7  18    4.12    0.62
  -6  -7  19   47.15    1.72
  -6  -7  20   13.54    0.94
  -6  -7  21    0.51    0.70
  -6  -7  22    1.27    0.61
  -6  -7  23    6.49    0.96
  -5  -7  -4  154.41    3.03
  -5  -7  -3    0.20    0.19
  -5  -7  -2   46.79    1.29
  -5  -7  -1  823.09   14.12
  -5  -7   0    2.41    0.36
  -5  -7   1   31.55    0.98
  -5  -7   2  244.43    5.04
  -5  -7   3  637.20   11.35
  -5  -7   4    1.99    0.44
  -5  -7   5  220.24    4.75
  -5  -7   6   17.75    0.82
  -5  -7   7  140.64    3.33
  -5  -7   8   16.35    0.81
  -5  -7   9   82.45    2.30
  -5  -7  10  217.28    4.73
  -5  -7  11    8.20    0.73
  -5  -7  12    2.10    0.76
  -5  -7  13    1.76    0.56
  -5  -7  14   87.31    2.23
  -5  -7  15    6.66    0.73
  -5  -7  16    3.48    0.73
  -5  -7  17    8.72    0.81
  -5  -7  18    2.93    0.69
  -5  -7  19   18.92    1.13
  -5  -7  20   -0.40    0.61
  -5  -7  21    0.37    0.73
  -5  -7  22   19.32    1.03
  -5  -7  23    0.25    0.65
  -4  -7 -20    0.98    0.48
  -4  -7 -19    4.82    0.89
  -4  -7 -18    0.39    0.34
  -4  -7 -17   13.87    1.22
  -4  -7  -4  157.40    3.35
  -4  -7  -3    3.61    0.24
  -4  -7  -2  816.22   13.94
  -4  -7  -1  457.38    8.28
  -4  -7   0  177.76    3.88
  -4  -7   1   14.49    0.69
  -4  -7   2   75.44    1.93
  -4  -7   3  135.82    2.98
  -4  -7   4   33.15    1.09
  -4  -7   5   19.55    0.85
  -4  -7   6    6.48    0.57
  -4  -7   7   17.79    0.88
  -4  -7   8    1.80    0.66
  -4  -7   9  240.34    5.13
  -4  -7  10   11.77    0.71
  -4  -7  11   49.23    1.51
  -4  -7  12   77.80    2.09
  -4  -7  13   76.31    2.05
  -4  -7  14    1.34    0.64
  -4  -7  15    2.55    0.59
  -4  -7  16  127.49    3.12
  -4  -7  17   31.20    1.41
  -4  -7  18  156.31    3.43
  -4  -7  19    6.77    0.87
  -4  -7  20    6.42    0.76
  -4  -7  21   24.24    1.15
  -4  -7  22    0.66    0.72
  -4  -7  23    4.77    0.72
  -3  -7 -21   -0.21    0.31
  -3  -7 -20   22.30    0.95
  -3  -7 -19   28.89    1.54
  -3  -7 -18    0.40    0.47
  -3  -7 -17   84.48    1.96
  -3  -7 -16    6.31    0.42
  -3  -7 -15   30.46    0.99
  -3  -7  -4  143.42    3.84
  -3  -7  -3  238.17    4.45
  -3  -7  -2  772.23   13.19
  -3  -7  -1   15.55    0.56
  -3  -7   0  396.14    7.32
  -3  -7   1  270.82    5.33
  -3  -7   2  489.51    8.89
  -3  -7   3   19.05    0.74
  -3  -7   4   11.78    0.58
  -3  -7   5   27.79    0.95
  -3  -7   6    3.01    0.52
  -3  -7   7  498.59    9.57
  -3  -7   8  147.60    3.58
  -3  -7   9    3.15    0.52
  -3  -7  10    9.74    0.71
  -3  -7  11   17.48    0.89
  -3  -7  12  106.37    2.74
  -3  -7  13    3.07    0.57
  -3  -7  14    2.91    0.82
  -3  -7  15   12.00    0.78
  -3  -7  16   14.17    0.79
  -3  -7  17  168.61    3.79
  -3  -7  18   71.81    2.04
  -3  -7  19   48.04    1.74
  -3  -7  20    5.57    0.76
  -3  -7  21    1.73    0.61
  -3  -7  22    8.95    0.76
  -3  -7  23    0.47    0.61
  -2  -7 -22    2.24    0.83
  -2  -7 -21   14.24    0.88
  -2  -7 -20    3.71    0.57
  -2  -7 -19    3.57    0.58
  -2  -7 -18   11.98    0.75
  -2  -7 -17   25.69    1.12
  -2  -7 -16    9.48    0.53
  -2  -7 -15   58.35    1.74
  -2  -7 -14   21.57    0.86
  -2  -7 -13    5.80    0.31
  -2  -7  -4   30.86    0.80
  -2  -7  -3  268.82    5.00
  -2  -7  -2  463.83    8.30
  -2  -7  -1    1.42    0.33
  -2  -7   0  367.14    6.80
  -2  -7   1   53.46    1.50
  -2  -7   2   52.36    1.51
  -2  -7   3  276.66    5.51
  -2  -7   4   20.11    0.87
  -2  -7   5   16.11    0.71
  -2  -7   6   61.23    1.64
  -2  -7   7  166.64    3.69
  -2  -7   8   13.88    0.75
  -2  -7   9   15.95    0.77
  -2  -7  10   39.32    1.35
  -2  -7  11   44.12    1.38
  -2  -7  12    3.88    0.58
  -2  -7  13   59.34    1.62
  -2  -7  14   38.66    1.33
  -2  -7  15   31.51    1.29
  -2  -7  16   38.75    1.50
  -2  -7  17   71.21    2.23
  -2  -7  18   22.15    1.11
  -2  -7  19   42.27    1.41
  -2  -7  20   75.40    2.09
  -2  -7  21   13.22    0.89
  -2  -7  22    6.18    0.71
  -2  -7  23   -0.03    0.66
  -1  -7 -23    0.35    1.28
  -1  -7 -22    2.07    0.74
  -1  -7 -21    2.96    0.68
  -1  -7 -20    2.65    0.57
  -1  -7 -19    0.36    0.57
  -1  -7 -18   28.43    1.19
  -1  -7 -17    6.06    0.55
  -1  -7 -16   11.61    0.57
  -1  -7 -15   53.39    1.53
  -1  -7 -14    5.67    0.40
  -1  -7 -13   38.42    1.20
  -1  -7 -12  155.02    3.00
  -1  -7 -11   27.53    0.85
  -1  -7 -10   25.19    0.69
  -1  -7  -9  290.42    7.08
  -1  -7  -6    3.19    0.18
  -1  -7  -5  901.52   29.60
  -1  -7  -4   45.95    1.12
  -1  -7  -3  364.73    6.73
  -1  -7  -2   50.88    1.25
  -1  -7  -1  666.66   11.61
  -1  -7   0    0.32    0.35
  -1  -7   1   56.95    1.45
  -1  -7   2  171.75    3.55
  -1  -7   3   25.60    0.96
  -1  -7   4   70.04    1.86
  -1  -7   5  401.44    7.59
  -1  -7   6    2.21    0.48
  -1  -7   7    5.80    0.73
  -1  -7   8  190.17    3.98
  -1  -7   9  113.15    2.80
  -1  -7  10  351.03    7.33
  -1  -7  11   19.08    0.93
  -1  -7  12   18.05    0.83
  -1  -7  13   93.06    2.40
  -1  -7  14  113.02    2.86
  -1  -7  15   31.46    1.39
  -1  -7  16  197.11    4.36
  -1  -7  17   54.94    1.87
  -1  -7  18    1.41    0.63
  -1  -7  19   61.84    1.86
  -1  -7  20    0.89    0.60
  -1  -7  21   16.65    1.09
  -1  -7  22    5.91    0.69
  -1  -7  23    2.23    0.72
   0  -7 -23    1.95    0.86
   0  -7 -22    8.61    0.94
   0  -7 -21   21.81    1.05
   0  -7 -20   16.74    1.05
   0  -7 -19   14.91    0.87
   0  -7 -18   18.27    0.87
   0  -7 -17    1.97    0.43
   0  -7 -16    2.45    0.41
   0  -7 -15   47.19    1.34
   0  -7 -14    0.82    0.34
   0  -7 -13   90.28    2.32
   0  -7 -12   27.62    0.89
   0  -7 -11   79.56    1.94
   0  -7 -10   18.85    0.64
   0  -7  -9    4.81    0.29
   0  -7  -8   15.91    0.57
   0  -7  -7  188.82    3.77
   0  -7  -6  744.77   12.62
   0  -7  -5   68.35    1.52
   0  -7  -4    9.32    0.36
   0  -7  -3  380.97    7.17
   0  -7  -2  172.15    3.53
   0  -7  -1   19.41    0.67
   0  -7   0   -0.87    0.44
   0  -7   1   18.75    0.74
   0  -7   2  178.73    3.72
   0  -7   3  390.44    7.38
   0  -7   4   10.31    0.66
   0  -7   5   68.03    1.78
   0  -7   6  746.72   13.21
   0  -7   7  197.56    4.24
   0  -7   8   16.11    0.80
   0  -7   9    4.91    0.55
   0  -7  10   21.04    0.93
   0  -7  11   84.72    2.31
   0  -7  12   30.16    1.24
   0  -7  13   93.78    2.29
   0  -7  14    1.79    0.67
   0  -7  15   51.89    1.68
   0  -7  16    2.60    0.62
   0  -7  17    2.59    0.67
   0  -7  18   19.81    1.00
   0  -7  19   21.87    1.12
   0  -7  20   18.78    0.94
   0  -7  21   24.20    1.24
   0  -7  22    8.95    0.82
   0  -7  23    2.53    0.65
   1  -7 -23    2.02    0.77
   1  -7 -22    3.21    0.63
   1  -7 -21   15.45    0.96
   1  -7 -20    0.06    0.52
   1  -7 -19   55.25    2.02
   1  -7 -18    1.69    0.43
   1  -7 -17   48.49    1.40
   1  -7 -16  184.43    3.89
   1  -7 -15   30.14    1.06
   1  -7 -14  106.46    2.62
   1  -7 -13   88.78    2.20
   1  -7 -12   16.44    0.63
   1  -7 -11   19.86    0.69
   1  -7 -10  336.00    6.51
   1  -7  -9  109.35    2.42
   1  -7  -8  184.85    3.77
   1  -7  -7    5.73    0.37
   1  -7  -6    2.37    0.28
   1  -7  -5  398.31    7.47
   1  -7  -4   67.73    1.58
   1  -7  -3   26.59    0.85
   1  -7  -2  174.89    3.54
   1  -7  -1   57.80    1.52
   1  -7   0    0.74    0.38
   1  -7   1  671.95   12.44
   1  -7   2   51.36    1.46
   1  -7   3  361.09    6.83
   1  -7   4   47.92    1.49
   1  -7   5  930.50   15.87
   1  -7   6    2.32    0.51
   1  -7   7  103.90    2.57
   1  -7   8   64.07    1.91
   1  -7   9  294.05    6.42
   1  -7  10   27.86    1.07
   1  -7  11   29.37    1.04
   1  -7  12  164.24    3.67
   1  -7  13   39.80    1.27
   1  -7  14    7.13    0.66
   1  -7  15   60.93    1.67
   1  -7  16   14.15    0.78
   1  -7  17    7.53    0.91
   1  -7  18   32.07    1.12
   1  -7  19   -0.29    0.61
   1  -7  20    2.80    0.66
   1  -7  21    3.59    0.77
   1  -7  22    1.76    0.65
   1  -7  23    0.87    0.61
   2  -7 -23   -0.21    0.70
   2  -7 -22    4.61    0.65
   2  -7 -21   11.13    0.84
   2  -7 -20   67.88    2.14
   2  -7 -19   33.94    1.20
   2  -7 -18   19.11    0.79
   2  -7 -17   64.17    1.64
   2  -7 -16   34.50    1.09
   2  -7 -15   28.48    0.93
   2  -7 -14   34.67    1.09
   2  -7 -13   56.85    1.45
   2  -7 -12    3.06    0.37
   2  -7 -11   43.21    1.21
   2  -7 -10   36.40    1.17
   2  -7  -9   15.86    0.61
   2  -7  -8   13.45    0.57
   2  -7  -7  161.18    3.40
   2  -7  -6   64.38    1.79
   2  -7  -5   16.65    0.70
   2  -7  -4   19.36    0.76
   2  -7  -3  271.56    5.35
   2  -7  -2   52.73    1.34
   2  -7  -1   53.41    1.36
   2  -7   0  363.45    7.10
   2  -7   1    0.70    0.45
   2  -7   2  474.85    9.11
   2  -7   3  267.17    5.32
   2  -7   4   29.28    1.04
   2  -7   5    5.91    0.63
   2  -7   6   12.73    0.82
   2  -7   7    1.02    0.51
   2  -7   8   16.04    0.78
   2  -7   9  375.42    7.47
   2  -7  10  110.64    2.69
   2  -7  11  213.16    4.83
   2  -7  12   24.90    0.92
   2  -7  13    7.73    0.68
   2  -7  14   26.18    1.20
   2  -7  15   64.09    1.85
   2  -7  16   10.39    0.77
   2  -7  17   29.02    1.15
   2  -7  18   15.30    0.79
   2  -7  19    3.56    0.60
   2  -7  20    4.94    0.86
   2  -7  21   15.86    0.85
   2  -7  22    3.09    0.64
   3  -7 -23    0.51    0.56
   3  -7 -22    9.70    0.96
   3  -7 -21    1.32    0.58
   3  -7 -20    4.31    0.67
   3  -7 -19   42.05    1.23
   3  -7 -18   64.46    1.78
   3  -7 -17  158.00    3.63
   3  -7 -16   12.11    0.65
   3  -7 -15   13.27    0.71
   3  -7 -14    3.63    0.42
   3  -7 -13    2.95    0.42
   3  -7 -12   99.72    2.39
   3  -7 -11   17.39    0.75
   3  -7 -10    9.00    0.49
   3  -7  -9    2.40    0.38
   3  -7  -8  145.01    3.06
   3  -7  -7  483.11    9.23
   3  -7  -6    2.61    0.39
   3  -7  -5   26.39    0.87
   3  -7  -4   11.20    0.58
   3  -7  -3   18.76    0.75
   3  -7  -2  474.54    9.29
   3  -7  -1  278.46    5.55
   3  -7   0  396.36    7.54
   3  -7   1   14.80    0.68
   3  -7   2  774.60   13.72
   3  -7   3  235.51    4.76
   3  -7   4  138.49    3.06
   3  -7   5    3.26    0.48
   3  -7   6    1.18    0.56
   3  -7   7   12.52    0.69
   3  -7   8    1.56    0.60
   3  -7   9   44.20    1.57
   3  -7  10  281.52    5.73
   3  -7  11   17.76    0.74
   3  -7  12   84.24    2.37
   3  -7  13   45.06    1.37
   3  -7  14  144.05    3.48
   3  -7  15   40.22    1.32
   3  -7  16    8.95    0.69
   3  -7  17  103.27    2.69
   3  -7  18   -0.36    0.60
   3  -7  19   39.44    1.35
   3  -7  20   27.51    1.12
   3  -7  21    0.04    0.71
   3  -7  22    7.64    0.75
   4  -7 -23    2.34    0.61
   4  -7 -22    0.36    0.58
   4  -7 -21   18.42    1.09
   4  -7 -20    4.81    0.75
   4  -7 -19    6.32    0.63
   4  -7 -18  145.58    2.99
   4  -7 -17   29.49    1.09
   4  -7 -16  112.42    2.63
   4  -7 -15    2.06    0.52
   4  -7 -14    1.27    0.41
   4  -7 -13   71.29    1.78
   4  -7 -12   71.88    1.98
   4  -7 -11   48.09    1.44
   4  -7 -10   10.10    0.59
   4  -7  -9  240.45    5.19
   4  -7  -8    2.05    0.39
   4  -7  -7   18.04    0.71
   4  -7  -6    6.35    0.51
   4  -7  -5   20.16    0.79
   4  -7  -4   33.36    1.05
   4  -7  -3  137.31    3.57
   4  -7  -2   73.99    1.97
   4  -7  -1   14.57    0.64
   4  -7   0  176.90    3.71
   4  -7   1  456.50    8.70
   4  -7   2  832.31   14.87
   4  -7   3    3.59    0.59
   4  -7   4  153.75    3.35
   4  -7   5   25.84    1.03
   4  -7   6   13.56    0.90
   4  -7   7  186.10    4.28
   4  -7   8    8.33    0.64
   4  -7   9  280.48    5.62
   4  -7  10   22.21    1.25
   4  -7  11   39.39    1.27
   4  -7  12   36.37    1.26
   4  -7  13  149.99    3.33
   4  -7  14   16.98    0.87
   4  -7  15   21.24    1.02
   4  -7  16   15.25    0.80
   4  -7  17   24.59    1.05
   4  -7  18   -0.24    0.65
   4  -7  19    9.30    0.92
   4  -7  20    2.45    0.61
   4  -7  21    5.89    0.66
   4  -7  22    8.01    1.26
   5  -7 -23    0.23    0.59
   5  -7 -22   17.94    1.08
   5  -7 -21    0.28    0.54
   5  -7 -20    0.37    0.58
   5  -7 -19   17.03    0.84
   5  -7 -18    3.16    0.56
   5  -7 -17    9.13    0.64
   5  -7 -16    2.88    0.58
   5  -7 -15    4.04    0.52
   5  -7 -14   78.35    2.10
   5  -7 -13    1.80    0.46
   5  -7 -12    2.32    0.47
   5  -7 -11    8.01    0.54
   5  -7 -10  204.65    4.34
   5  -7  -9   80.69    1.98
   5  -7  -8   15.26    0.70
   5  -7  -7  138.57    3.18
   5  -7  -6   17.46    0.78
   5  -7  -5  225.30    4.79
   5  -7  -4    1.90    0.47
   5  -7  -3  642.98   12.04
   5  -7  -2  239.65    5.21
   5  -7  -1   31.49    1.00
   5  -7   0    2.84    0.51
   5  -7   1  847.82   15.22
   5  -7   2   49.09    1.53
   5  -7   3    0.23    0.48
   5  -7   4  156.06    3.68
   5  -7   5   41.09    1.43
   5  -7   6   94.59    2.55
   5  -7   7  132.86    3.02
   5  -7   8    1.26    0.57
   5  -7   9   -0.01    0.60
   5  -7  10  339.60    6.76
   5  -7  11  140.27    3.33
   5  -7  12   19.81    0.91
   5  -7  13    9.37    0.76
   5  -7  14   10.69    0.82
   5  -7  15  124.19    3.24
   5  -7  16   16.61    1.14
   5  -7  17    0.72    0.62
   5  -7  18   78.52    2.13
   5  -7  19   16.96    0.89
   5  -7  20    6.44    0.76
   5  -7  21    5.47    0.68
   6  -7 -23    5.63    0.89
   6  -7 -22    0.66    0.74
   6  -7 -21    0.45    0.60
   6  -7 -20   11.81    0.79
   6  -7 -19   41.64    1.27
   6  -7 -18    4.25    0.75
   6  -7 -17   17.18    0.86
   6  -7 -16   29.64    1.04
   6  -7 -15    7.61    0.70
   6  -7 -14   24.44    0.91
   6  -7 -13  190.48    4.27
   6  -7 -12   50.73    1.38
   6  -7 -11  225.48    4.59
   6  -7 -10    1.96    0.45
   6  -7  -9   11.75    0.76
   6  -7  -8   28.97    1.28
   6  -7  -7   90.47    2.23
   6  -7  -6   69.33    1.79
   6  -7  -5  196.84    4.25
   6  -7  -4   13.56    0.67
   6  -7  -3   30.24    1.15
   6  -7  -2    1.18    0.49
   6  -7  -1    1.03    0.49
   6  -7   0  177.89    4.01
   6  -7   1   69.00    1.93
   6  -7   2    2.00    0.64
   6  -7   3   20.63    0.88
   6  -7   4   22.59    0.91
   6  -7   5   88.28    2.38
   6  -7   6   34.15    1.26
   6  -7   7   13.26    0.82
   6  -7   8  104.95    2.59
   6  -7   9  290.73    5.76
   6  -7  10   21.45    1.10
   6  -7  11   13.87    0.83
   6  -7  12    4.77    0.71
   6  -7  13   31.89    1.13
   6  -7  14   16.80    0.83
   6  -7  15   21.89    0.93
   6  -7  16    2.61    0.55
   6  -7  17   70.80    2.05
   6  -7  18   23.21    1.02
   6  -7  19    1.97    0.58
   6  -7  20   -0.48    0.53
   7  -7 -23    0.39    0.67
   7  -7 -22    0.96    0.57
   7  -7 -21    2.06    0.63
   7  -7 -20   38.44    1.38
   7  -7 -19    4.64    0.70
   7  -7 -18    0.61    0.60
   7  -7 -17   32.02    1.20
   7  -7 -16    0.23    0.67
   7  -7 -15    0.28    0.48
   7  -7 -14   44.50    1.35
   7  -7 -13   67.69    1.66
   7  -7 -12   16.33    0.85
   7  -7 -11    1.52    0.43
   7  -7 -10    1.41    0.54
   7  -7  -9  157.85    3.53
   7  -7  -8   86.51    2.19
   7  -7  -7   25.45    0.92
   7  -7  -6  446.89    8.40
   7  -7  -5   23.55    0.94
   7  -7  -4   27.67    1.09
   7  -7  -3  655.78   12.00
   7  -7  -2   36.33    1.35
   7  -7  -1   13.32    0.78
   7  -7   0    3.96    0.56
   7  -7   1   66.39    1.82
   7  -7   2   47.33    1.44
   7  -7   3   23.58    1.09
   7  -7   4  119.72    2.83
   7  -7   5    9.76    0.82
   7  -7   6  151.61    3.46
   7  -7   7  224.51    4.71
   7  -7   8   59.33    1.82
   7  -7   9    0.48    0.55
   7  -7  10   82.07    2.09
   7  -7  11    1.84    0.70
   7  -7  12   95.76    2.46
   7  -7  13   99.96    2.35
   7  -7  14  109.29    2.67
   7  -7  15    0.84    0.51
   7  -7  16   17.90    0.89
   7  -7  17    3.53    0.58
   7  -7  18    0.28    0.57
   7  -7  19   21.16    1.02
   7  -7  20    5.74    0.90
   8  -7 -23    9.52    0.89
   8  -7 -22    9.66    0.76
   8  -7 -21   39.12    1.37
   8  -7 -20    1.89    0.76
   8  -7 -19   14.06    0.93
   8  -7 -18    3.28    0.70
   8  -7 -17    1.67    0.56
   8  -7 -16    7.52    0.70
   8  -7 -15   68.02    1.88
   8  -7 -14    8.90    0.64
   8  -7 -13   92.85    2.25
   8  -7 -12    4.31    0.56
   8  -7 -11   55.28    1.76
   8  -7 -10   46.04    1.34
   8  -7  -9   96.92    2.27
   8  -7  -8   15.21    0.78
   8  -7  -7  209.78    4.56
   8  -7  -6    3.48    0.56
   8  -7  -5    4.21    0.62
   8  -7  -4   92.44    2.41
   8  -7  -3   86.50    2.19
   8  -7  -2    0.27    0.58
   8  -7  -1   87.36    2.25
   8  -7   0   48.04    1.42
   8  -7   1  222.90    4.73
   8  -7   2    3.43    0.66
   8  -7   3  108.79    2.86
   8  -7   4    0.85    0.51
   8  -7   5   79.32    2.10
   8  -7   6   21.29    0.99
   8  -7   7   98.36    2.58
   8  -7   8    0.39    0.53
   8  -7   9    9.87    0.71
   8  -7  10   28.12    1.00
   8  -7  11    7.56    0.68
   8  -7  12    2.02    0.57
   8  -7  13   47.96    1.59
   8  -7  14    1.06    0.68
   8  -7  15    4.35    0.63
   8  -7  16   12.53    0.91
   8  -7  17   35.64    1.38
   8  -7  18    0.98    0.63
   8  -7  19    1.25    0.69
   9  -7 -22    1.07    0.74
   9  -7 -21    0.25    0.78
   9  -7 -20   13.89    0.94
   9  -7 -19    0.49    0.73
   9  -7 -18   17.18    0.94
   9  -7 -17   82.15    2.15
   9  -7 -16    5.23    0.67
   9  -7 -15   20.69    0.99
   9  -7 -14    2.39    0.52
   9  -7 -13    3.04    0.62
   9  -7 -12  160.57    3.75
   9  -7 -11    1.34    0.50
   9  -7 -10  155.85    3.55
   9  -7  -9   49.15    1.55
   9  -7  -8   16.19    0.81
   9  -7  -7   57.74    1.76
   9  -7  -6   80.17    2.08
   9  -7  -5   28.61    1.02
   9  -7  -4   37.71    1.30
   9  -7  -3    0.98    0.55
   9  -7  -2   58.00    1.70
   9  -7  -1   21.05    0.89
   9  -7   0   -0.05    0.53
   9  -7   1   41.21    1.29
   9  -7   2  117.37    2.66
   9  -7   3  128.88    3.03
   9  -7   4  148.93    3.60
   9  -7   5  104.60    2.55
   9  -7   6   97.92    2.46
   9  -7   7    1.76    0.73
   9  -7   8    7.19    0.69
   9  -7   9   11.94    0.88
   9  -7  10    1.68    0.81
   9  -7  11   31.62    1.27
   9  -7  12   56.21    1.65
   9  -7  13    1.34    0.64
   9  -7  14    7.39    0.67
   9  -7  15   25.37    1.08
   9  -7  16    2.59    0.68
   9  -7  17   11.07    0.88
   9  -7  18   15.72    0.89
  10  -7 -22   10.93    0.81
  10  -7 -21    1.57    0.58
  10  -7 -20   16.47    0.90
  10  -7 -19   16.41    0.96
  10  -7 -18    0.55    0.80
  10  -7 -17   14.28    0.89
  10  -7 -16   18.65    0.90
  10  -7 -15    0.37    0.53
  10  -7 -14   68.22    1.70
  10  -7 -13  161.73    3.61
  10  -7 -12   90.00    2.49
  10  -7 -11   89.34    2.31
  10  -7 -10    0.78    0.54
  10  -7  -9   -0.01    0.72
  10  -7  -8  113.80    2.77
  10  -7  -7    0.72    0.52
  10  -7  -6    0.82    0.61
  10  -7  -5  145.75    3.43
  10  -7  -4   19.48    0.89
  10  -7  -3   22.36    0.90
  10  -7  -2   53.97    1.63
  10  -7  -1    1.63    0.56
  10  -7   0   89.41    2.30
  10  -7   1   77.47    2.02
  10  -7   2   16.43    0.83
  10  -7   3  106.00    2.59
  10  -7   4  381.00    7.26
  10  -7   5   11.66    0.76
  10  -7   6    1.85    0.65
  10  -7   7   10.67    0.70
  10  -7   8   82.46    2.22
  10  -7   9   64.38    1.87
  10  -7  10   17.12    0.86
  10  -7  11    0.02    0.67
  10  -7  12   24.29    1.06
  10  -7  13    3.65    0.70
  10  -7  14   14.23    0.85
  10  -7  15   17.14    0.95
  10  -7  16    2.21    0.70
  10  -7  17    5.85    0.79
  10  -7  18    3.55    1.01
  11  -7 -22   15.29    1.85
  11  -7 -21    0.28    0.76
  11  -7 -20   20.41    1.08
  11  -7 -19    3.46    0.68
  11  -7 -18    1.23    0.62
  11  -7 -17    0.14    0.55
  11  -7 -16   33.44    1.28
  11  -7 -15    8.69    0.83
  11  -7 -14  110.09    2.72
  11  -7 -13   36.99    1.43
  11  -7 -12   15.69    0.85
  11  -7 -11   15.82    0.92
  11  -7 -10    1.10    0.61
  11  -7  -9    3.76    0.66
  11  -7  -8   15.69    0.82
  11  -7  -7   65.09    2.04
  11  -7  -6   31.91    1.15
  11  -7  -5   49.94    1.55
  11  -7  -4    0.22    0.57
  11  -7  -3    8.80    0.72
  11  -7  -2   38.32    1.36
  11  -7  -1   60.95    1.69
  11  -7   0   13.81    0.81
  11  -7   1   31.19    1.14
  11  -7   2   26.54    0.98
  11  -7   3  113.63    2.90
  11  -7   4   20.62    0.93
  11  -7   5   50.19    1.67
  11  -7   6   83.80    2.20
  11  -7   7   20.63    0.90
  11  -7   8  163.21    3.56
  11  -7   9   25.08    1.08
  11  -7  10    0.52    0.61
  11  -7  11    3.15    0.86
  11  -7  12   18.06    1.10
  11  -7  13   22.08    1.07
  11  -7  14   48.77    1.56
  11  -7  15    5.26    0.69
  11  -7  16    7.11    0.68
  11  -7  17   12.88    0.92
  12  -7 -21    0.85    0.70
  12  -7 -20    3.30    0.78
  12  -7 -19   -0.54    0.66
  12  -7 -18    2.11    0.86
  12  -7 -17   30.65    1.26
  12  -7 -16    2.87    0.61
  12  -7 -15   -0.38    0.55
  12  -7 -14    9.30    0.82
  12  -7 -13    0.60    0.61
  12  -7 -12   17.87    0.97
  12  -7 -11   78.02    2.11
  12  -7 -10    9.01    0.85
  12  -7  -9   46.33    1.52
  12  -7  -8    9.12    0.78
  12  -7  -7    2.72    0.66
  12  -7  -6   38.90    1.41
  12  -7  -5    1.25    0.59
  12  -7  -4    0.59    0.53
  12  -7  -3   55.91    1.64
  12  -7  -2   -0.03    0.58
  12  -7  -1   32.18    1.21
  12  -7   0   46.04    1.55
  12  -7   1    1.55    0.69
  12  -7   2  107.65    2.81
  12  -7   3   12.92    0.90
  12  -7   4   10.46    0.83
  12  -7   5   54.52    1.78
  12  -7   6    4.12    0.89
  12  -7   7  151.73    3.59
  12  -7   8    6.08    0.80
  12  -7   9    0.02    0.66
  12  -7  10    1.14    0.66
  12  -7  11   49.81    1.52
  12  -7  12    1.51    0.70
  12  -7  13   43.64    1.47
  12  -7  14   14.28    0.82
  12  -7  15    0.42    0.59
  12  -7  16   12.69    0.87
  13  -7 -20    6.33    0.86
  13  -7 -19    0.12    0.64
  13  -7 -18   20.60    0.92
  13  -7 -17   14.90    0.97
  13  -7 -16   11.70    0.93
  13  -7 -15   58.28    1.62
  13  -7 -14    1.09    0.59
  13  -7 -13   11.24    0.85
  13  -7 -12   18.35    0.95
  13  -7 -11    3.29    0.75
  13  -7 -10   21.70    1.06
  13  -7  -9    1.08    0.67
  13  -7  -8    0.67    0.60
  13  -7  -7  132.83    3.00
  13  -7  -6   62.00    1.85
  13  -7  -5    3.57    0.74
  13  -7  -4    1.32    0.57
  13  -7  -3   45.26    1.55
  13  -7  -2   57.37    1.62
  13  -7  -1   57.24    1.55
  13  -7   0    5.70    0.72
  13  -7   1    4.19    0.90
  13  -7   2   63.31    1.95
  13  -7   3    1.75    0.75
  13  -7   4    1.29    0.75
  13  -7   5   43.13    1.49
  13  -7   6   27.60    1.22
  13  -7   7   20.21    1.01
  13  -7   8    9.91    0.75
  13  -7   9    7.06    0.80
  13  -7  10    2.31    0.61
  13  -7  11   -0.52    0.55
  13  -7  12    2.91    0.74
  13  -7  13   50.62    1.71
  13  -7  14   18.26    0.94
  13  -7  15   24.24    1.37
  14  -7 -20    0.33    1.19
  14  -7 -19    5.80    0.77
  14  -7 -18    1.94    0.76
  14  -7 -17    1.44    0.81
  14  -7 -16   -0.05    0.66
  14  -7 -15    3.50    0.70
  14  -7 -14    2.18    0.76
  14  -7 -13   60.74    1.90
  14  -7 -12   18.18    0.95
  14  -7 -11    4.09    0.71
  14  -7 -10    6.22    0.71
  14  -7  -9    0.67    0.60
  14  -7  -8    2.75    0.74
  14  -7  -7   51.79    1.52
  14  -7  -6    0.51    0.61
  14  -7  -5    0.70    0.61
  14  -7  -4   12.79    1.00
  14  -7  -3   80.55    2.12
  14  -7  -2    3.80    0.75
  14  -7  -1    7.89    0.74
  14  -7   0    3.39    0.69
  14  -7   1   20.34    1.12
  14  -7   2    2.54    0.72
  14  -7   3   10.16    0.91
  14  -7   4    2.43    0.89
  14  -7   5    1.11    0.64
  14  -7   6   47.31    1.56
  14  -7   7   15.01    0.85
  14  -7   8    2.10    0.60
  14  -7   9   12.10    0.86
  14  -7  10    2.32    0.62
  14  -7  11    0.54    0.60
  14  -7  12    8.37    0.75
  14  -7  13    2.76    0.76
  15  -7 -19    0.94    1.14
  15  -7 -18    2.48    0.79
  15  -7 -17    0.14    0.73
  15  -7 -16   18.07    1.19
  15  -7 -15    8.93    1.02
  15  -7 -14   27.38    1.15
  15  -7 -13   11.72    0.99
  15  -7 -12   25.99    1.15
  15  -7 -11   15.70    0.90
  15  -7 -10    5.45    0.76
  15  -7  -9    0.04    0.79
  15  -7  -8    6.65    0.74
  15  -7  -7   48.74    1.52
  15  -7  -6    6.36    0.89
  15  -7  -5   13.74    0.91
  15  -7  -4    1.45    0.67
  15  -7  -3    9.89    0.87
  15  -7  -2    9.39    0.88
  15  -7  -1    4.83    0.78
  15  -7   0   60.24    1.78
  15  -7   1   46.77    1.51
  15  -7   2    0.10    0.82
  15  -7   3   30.97    1.49
  15  -7   4   39.18    1.55
  15  -7   5    5.38    0.73
  15  -7   6   66.09    1.89
  15  -7   7   13.93    0.95
  15  -7   8   45.75    1.51
  15  -7   9    1.23    0.69
  15  -7  10    2.97    0.62
  15  -7  11    9.61    0.80
  15  -7  12    9.57    0.83
  16  -7 -17   12.79    0.98
  16  -7 -16    2.88    0.86
  16  -7 -15   10.40    0.94
  16  -7 -14   11.13    1.07
  16  -7 -13    1.11    0.67
  16  -7 -12   51.73    1.53
  16  -7 -11    4.52    0.76
  16  -7 -10   47.58    1.31
  16  -7  -9   33.50    1.12
  16  -7  -8    4.40    0.92
  16  -7  -7    2.01    0.67
  16  -7  -6   23.15    1.07
  16  -7  -5   46.31    1.48
  16  -7  -4   23.06    1.01
  16  -7  -3   48.32    1.79
  16  -7  -2   -0.09    0.73
  16  -7  -1   69.48    2.12
  16  -7   0    1.26    0.72
  16  -7   1    0.93    0.64
  16  -7   2   77.50    2.14
  16  -7   3   18.69    1.04
  16  -7   4   -0.06    0.75
  16  -7   5   19.65    1.10
  16  -7   6   22.38    1.09
  16  -7   7    2.09    0.68
  16  -7   8    2.03    0.60
  16  -7   9   11.93    0.96
  16  -7  10   17.87    0.94
  17  -7 -16    0.57    1.04
  17  -7 -15   13.69    1.13
  17  -7 -14   -0.33    0.69
  17  -7 -13    5.48    0.78
  17  -7 -12   12.02    0.90
  17  -7 -11    3.50    0.74
  17  -7 -10   17.32    0.88
  17  -7  -9   17.15    1.04
  17  -7  -8    0.32    0.66
  17  -7  -7    1.70    0.73
  17  -7  -6   19.29    0.92
  17  -7  -5    0.16    0.77
  17  -7  -4    0.89    0.63
  17  -7  -3   68.13    1.82
  17  -7  -2    5.02    0.79
  17  -7  -1    3.03    0.77
  17  -7   0    0.51    0.68
  17  -7   1   12.60    1.02
  17  -7   2    2.62    0.70
  17  -7   3   35.81    1.47
  17  -7   4   19.53    1.11
  17  -7   5   45.70    1.54
  17  -7   6    7.52    0.86
  17  -7   7    0.62    0.66
  17  -7   8   15.20    0.91
  18  -7 -14    2.52    0.85
  18  -7 -13    6.44    0.80
  18  -7 -12    2.05    0.67
  18  -7 -11    5.65    0.75
  18  -7 -10   28.92    1.25
  18  -7  -9    5.08    0.77
  18  -7  -8    2.29    0.69
  18  -7  -7    9.48    0.85
  18  -7  -6    0.17    0.74
  18  -7  -5    5.91    0.82
  18  -7  -4   27.96    1.17
  18  -7  -3    0.20    0.78
  18  -7  -2   12.14    0.92
  18  -7  -1   24.47    1.27
  18  -7   0    4.42    0.90
  18  -7   1   27.83    1.33
  18  -7   2   26.20    1.17
  18  -7   3    5.30    0.86
  18  -7   4   17.79    0.96
  18  -7   5    8.86    1.06
  18  -7   6    1.16    0.71
  19  -7 -12    1.05    0.72
  19  -7 -11    1.31    0.81
  19  -7 -10   12.64    0.84
  19  -7  -9    1.63    0.70
  19  -7  -8   10.09    1.05
  19  -7  -7    3.41    0.77
  19  -7  -6    0.24    0.67
  19  -7  -5    9.23    1.23
  19  -7  -4   13.83    0.94
  19  -7  -3    8.10    0.71
  19  -7  -2   18.00    1.23
  19  -7  -1    1.74    0.69
  19  -7   0   17.26    1.08
  19  -7   1    8.40    0.88
  19  -7   2    0.63    0.78
  19  -7   3    1.20    0.75
  20  -7  -8    4.70    1.14
  20  -7  -7    2.30    0.67
  20  -7  -6    0.84    0.82
  20  -7  -5    3.45    0.74
  20  -7  -4   -0.32    0.89
  20  -7  -3    2.56    0.71
  20  -7  -2    0.07    0.68
  20  -7  -1    4.08    1.27
 -19  -8  -2    0.64    0.89
 -19  -8  -1    3.72    0.75
 -19  -8   0    2.02    0.66
 -19  -8   1    9.27    0.83
 -19  -8   2    0.08    0.84
 -19  -8   3    6.66    0.96
 -19  -8   4    0.25    0.81
 -19  -8   5    1.80    0.79
 -19  -8   6   -0.04    0.65
 -19  -8   7   18.86    0.95
 -19  -8   8    4.28    1.05
 -19  -8   9   27.79    1.09
 -19  -8  10    0.77    0.85
 -18  -8  -5    0.55    0.69
 -18  -8  -4   -0.02    0.59
 -18  -8  -3    5.15    0.80
 -18  -8  -2    8.02    0.82
 -18  -8  -1    4.91    0.77
 -18  -8   0   41.19    1.34
 -18  -8   1    6.34    0.76
 -18  -8   2    8.71    0.89
 -18  -8   3    0.67    0.60
 -18  -8   4    1.17    0.68
 -18  -8   5    3.10    0.87
 -18  -8   6   20.44    1.02
 -18  -8   7    0.82    0.66
 -18  -8   8   12.93    1.05
 -18  -8   9    2.15    0.68
 -18  -8  10    2.75    0.77
 -18  -8  11    4.71    0.73
 -18  -8  12    6.52    0.88
 -18  -8  13    1.18    0.72
 -17  -8  -8    0.42    0.67
 -17  -8  -7    9.67    1.28
 -17  -8  -6    0.08    0.55
 -17  -8  -5   14.27    0.95
 -17  -8  -4    4.37    0.63
 -17  -8  -3   43.83    1.39
 -17  -8  -2   -0.38    0.62
 -17  -8  -1   57.45    1.75
 -17  -8   0    1.21    0.53
 -17  -8   1    5.68    0.65
 -17  -8   2    0.54    0.73
 -17  -8   3    4.65    0.74
 -17  -8   4    2.23    0.67
 -17  -8   5   30.83    1.29
 -17  -8   6    0.66    0.57
 -17  -8   7    4.74    0.69
 -17  -8   8    8.52    0.84
 -17  -8   9    6.96    0.75
 -17  -8  10    0.30    0.74
 -17  -8  11   37.35    1.33
 -17  -8  12    6.31    0.93
 -17  -8  13    2.32    0.69
 -17  -8  14    0.35    0.99
 -17  -8  15    0.74    0.74
 -16  -8 -10    5.39    1.05
 -16  -8  -9    0.24    0.65
 -16  -8  -8    1.14    0.86
 -16  -8  -7    0.50    0.58
 -16  -8  -6   11.30    0.86
 -16  -8  -5    4.57    0.61
 -16  -8  -4   17.35    0.83
 -16  -8  -3    2.23    0.53
 -16  -8  -2   30.91    1.12
 -16  -8  -1    3.69    0.74
 -16  -8   0   32.54    1.07
 -16  -8   1    6.70    0.67
 -16  -8   2   15.66    1.00
 -16  -8   3    8.01    0.76
 -16  -8   4   42.02    1.45
 -16  -8   5   -0.24    0.68
 -16  -8   6   11.33    0.80
 -16  -8   7    3.79    0.75
 -16  -8   8   53.69    1.53
 -16  -8   9    9.94    1.01
 -16  -8  10   35.04    1.40
 -16  -8  11    0.11    0.72
 -16  -8  12    7.69    0.81
 -16  -8  13    3.15    0.70
 -16  -8  14    5.78    0.89
 -16  -8  15    4.63    0.68
 -16  -8  16   11.63    0.79
 -16  -8  17    0.15    0.74
 -15  -8 -11   15.41    0.68
 -15  -8 -10    0.36    0.59
 -15  -8  -9    5.52    0.82
 -15  -8  -8    0.80    0.59
 -15  -8  -7   34.06    1.25
 -15  -8  -6   -0.64    0.64
 -15  -8  -5   59.27    1.66
 -15  -8  -4   20.10    0.85
 -15  -8  -3    5.89    0.64
 -15  -8  -2    2.77    0.73
 -15  -8  -1   56.06    1.67
 -15  -8   0   -0.06    0.46
 -15  -8   1    7.12    0.72
 -15  -8   2    5.50    0.78
 -15  -8   3   44.06    1.33
 -15  -8   4   12.22    0.91
 -15  -8   5    4.54    0.67
 -15  -8   6   40.30    1.53
 -15  -8   7   33.19    1.24
 -15  -8   8    7.21    0.76
 -15  -8   9   11.37    0.92
 -15  -8  10    0.93    0.63
 -15  -8  11    7.54    1.06
 -15  -8  12   27.87    1.05
 -15  -8  13   27.43    1.23
 -15  -8  14   -0.31    0.83
 -15  -8  15    9.29    0.86
 -15  -8  16   -0.02    0.70
 -15  -8  17    1.74    0.88
 -15  -8  18    0.30    0.63
 -14  -8 -11    0.42    0.55
 -14  -8 -10    6.85    0.65
 -14  -8  -9    0.40    0.42
 -14  -8  -8   63.57    2.24
 -14  -8  -7    0.38    0.55
 -14  -8  -6   16.15    0.77
 -14  -8  -5   -0.33    0.49
 -14  -8  -4    1.48    0.53
 -14  -8  -3   10.04    0.77
 -14  -8  -2   49.59    1.51
 -14  -8  -1   17.77    0.86
 -14  -8   0    2.70    0.57
 -14  -8   1   81.82    2.26
 -14  -8   2    2.45    0.60
 -14  -8   3    0.11    0.54
 -14  -8   4    1.18    0.54
 -14  -8   5   44.46    1.40
 -14  -8   6  180.77    3.82
 -14  -8   7   12.02    0.85
 -14  -8   8   20.32    1.06
 -14  -8   9   13.06    0.82
 -14  -8  10    5.58    0.84
 -14  -8  11   14.89    0.93
 -14  -8  12   33.10    1.37
 -14  -8  13   21.99    1.06
 -14  -8  14    9.62    1.06
 -14  -8  15    3.61    0.68
 -14  -8  16   13.01    0.98
 -14  -8  17    6.98    0.78
 -14  -8  18    0.64    0.83
 -14  -8  19    1.53    0.69
 -13  -8 -11   24.24    0.78
 -13  -8 -10    0.82    0.36
 -13  -8  -9   62.33    2.04
 -13  -8  -8   29.69    1.16
 -13  -8  -7    6.88    0.55
 -13  -8  -6   41.82    1.36
 -13  -8  -5   99.66    2.34
 -13  -8  -4   88.92    2.19
 -13  -8  -3  102.78    2.49
 -13  -8  -2    1.43    0.49
 -13  -8  -1    3.40    0.59
 -13  -8   0   58.11    1.61
 -13  -8   1   -0.25    0.56
 -13  -8   2    0.76    0.48
 -13  -8   3    9.22    0.73
 -13  -8   4    3.27    0.64
 -13  -8   5   91.26    2.21
 -13  -8   6    8.76    0.71
 -13  -8   7    9.08    0.86
 -13  -8   8   47.04    1.56
 -13  -8   9   23.04    1.12
 -13  -8  10   -0.55    0.70
 -13  -8  11   71.99    1.97
 -13  -8  12   21.22    1.04
 -13  -8  13   23.04    1.23
 -13  -8  14    0.62    0.64
 -13  -8  15    0.62    0.69
 -13  -8  16    0.25    0.72
 -13  -8  17   29.17    1.25
 -13  -8  18    0.07    0.69
 -13  -8  19   60.34    1.57
 -13  -8  20   -0.47    0.66
 -12  -8 -10   83.97    2.46
 -12  -8  -9    6.81    0.55
 -12  -8  -8   32.77    1.32
 -12  -8  -7    7.41    0.51
 -12  -8  -6   43.51    1.43
 -12  -8  -5   14.03    0.64
 -12  -8  -4  128.69    2.86
 -12  -8  -3    1.64    0.46
 -12  -8  -2   34.70    1.13
 -12  -8  -1    1.74    0.55
 -12  -8   0   51.70    1.54
 -12  -8   1    4.70    0.60
 -12  -8   2   83.68    1.97
 -12  -8   3    0.38    0.58
 -12  -8   4    0.74    0.58
 -12  -8   5   26.15    1.08
 -12  -8   6    0.43    0.71
 -12  -8   7    2.07    0.51
 -12  -8   8   90.38    2.64
 -12  -8   9   39.42    1.39
 -12  -8  10   48.58    1.64
 -12  -8  11   11.79    0.78
 -12  -8  12   -0.44    0.83
 -12  -8  13    0.08    0.66
 -12  -8  14   17.67    1.02
 -12  -8  15    0.64    0.63
 -12  -8  16    2.13    0.74
 -12  -8  17    5.97    0.72
 -12  -8  18   19.32    1.05
 -12  -8  19    3.72    0.79
 -12  -8  20   -0.31    0.78
 -11  -8  -9    4.43    0.37
 -11  -8  -8   52.99    1.84
 -11  -8  -7    8.40    0.50
 -11  -8  -6    1.88    0.38
 -11  -8  -5    4.04    0.48
 -11  -8  -4    1.47    0.39
 -11  -8  -3   36.58    1.12
 -11  -8  -2    7.46    0.55
 -11  -8  -1   34.92    1.21
 -11  -8   0   17.34    0.78
 -11  -8   1   62.59    1.89
 -11  -8   2    8.82    0.67
 -11  -8   3   57.07    1.53
 -11  -8   4    0.41    0.50
 -11  -8   5   39.52    1.37
 -11  -8   6    0.85    0.51
 -11  -8   7   40.90    1.38
 -11  -8   8  130.89    2.98
 -11  -8   9    6.45    0.75
 -11  -8  10    9.26    0.65
 -11  -8  11    0.95    0.81
 -11  -8  12    2.73    0.66
 -11  -8  13   32.33    1.46
 -11  -8  14   31.43    1.21
 -11  -8  15   42.31    1.57
 -11  -8  16   -0.47    0.61
 -11  -8  17   16.01    1.01
 -11  -8  18   24.32    1.12
 -11  -8  19   28.09    1.13
 -11  -8  20    0.21    0.68
 -11  -8  21   26.04    1.39
 -10  -8  -8   58.80    1.62
 -10  -8  -7   22.85    0.79
 -10  -8  -6   10.60    0.56
 -10  -8  -5   10.16    0.49
 -10  -8  -4   22.80    0.86
 -10  -8  -3    0.02    0.32
 -10  -8  -2   52.95    1.44
 -10  -8  -1   16.46    0.74
 -10  -8   0  103.45    2.50
 -10  -8   1    6.17    0.53
 -10  -8   2    7.51    0.65
 -10  -8   3  101.40    2.66
 -10  -8   4   34.03    1.09
 -10  -8   5   29.37    1.21
 -10  -8   6   76.20    2.12
 -10  -8   7   27.20    1.14
 -10  -8   8    5.06    0.62
 -10  -8   9    4.25    0.64
 -10  -8  10   54.07    1.84
 -10  -8  11   22.98    1.07
 -10  -8  12  156.15    3.71
 -10  -8  13    0.76    0.60
 -10  -8  14    7.01    0.78
 -10  -8  15    2.34    0.70
 -10  -8  16   -0.13    0.70
 -10  -8  17   13.20    0.78
 -10  -8  18   25.04    1.19
 -10  -8  19    5.51    0.76
 -10  -8  20   11.76    0.88
 -10  -8  21    0.97    0.64
 -10  -8  22    1.83    1.53
  -9  -8  -7    1.81    0.23
  -9  -8  -6   58.66    1.40
  -9  -8  -5    6.31    0.37
  -9  -8  -4  245.10    4.91
  -9  -8  -3   36.84    1.09
  -9  -8  -2   61.77    1.63
  -9  -8  -1   18.76    0.81
  -9  -8   0    5.75    0.46
  -9  -8   1   52.14    1.45
  -9  -8   2  244.42    5.23
  -9  -8   3  144.11    3.33
  -9  -8   4   -0.36    0.46
  -9  -8   5   17.45    0.95
  -9  -8   6   21.92    0.89
  -9  -8   7   35.92    1.19
  -9  -8   8    6.41    0.64
  -9  -8   9   80.54    2.02
  -9  -8  10   34.98    1.25
  -9  -8  11   85.46    2.25
  -9  -8  12    8.90    0.85
  -9  -8  13   12.52    0.80
  -9  -8  14   17.35    1.15
  -9  -8  15   12.99    0.91
  -9  -8  16   28.90    1.29
  -9  -8  17    7.84    0.74
  -9  -8  18   -0.26    0.59
  -9  -8  19   17.64    0.96
  -9  -8  20    5.79    0.74
  -9  -8  21   -0.51    0.63
  -9  -8  22   -0.10    0.78
  -8  -8  -6   10.42    0.44
  -8  -8  -5  176.00    3.55
  -8  -8  -4   25.42    0.83
  -8  -8  -3   16.68    0.65
  -8  -8  -2   35.86    1.03
  -8  -8  -1   27.60    0.91
  -8  -8   0   38.48    1.18
  -8  -8   1   62.30    1.67
  -8  -8   2   70.76    1.91
  -8  -8   3    0.59    0.42
  -8  -8   4  117.85    2.94
  -8  -8   5   -0.07    0.52
  -8  -8   6    4.76    0.51
  -8  -8   7    1.39    0.59
  -8  -8   8  224.66    4.89
  -8  -8   9  166.92    3.51
  -8  -8  10  141.62    3.33
  -8  -8  11   22.24    1.08
  -8  -8  12    9.16    0.79
  -8  -8  13   10.15    0.78
  -8  -8  14  100.10    2.56
  -8  -8  15   21.36    1.11
  -8  -8  16    1.69    0.67
  -8  -8  17   24.03    1.25
  -8  -8  18    2.48    0.71
  -8  -8  19   20.55    1.19
  -8  -8  20    4.45    0.65
  -8  -8  21    8.25    1.01
  -8  -8  22   20.34    1.15
  -7  -8  -5   30.96    0.88
  -7  -8  -4  143.23    2.93
  -7  -8  -3   16.67    0.63
  -7  -8  -2    6.41    0.46
  -7  -8  -1  252.77    5.33
  -7  -8   0    0.65    0.36
  -7  -8   1   33.34    1.03
  -7  -8   2   13.44    0.62
  -7  -8   3  178.62    3.71
  -7  -8   4  234.18    5.24
  -7  -8   5    2.78    0.50
  -7  -8   6   45.26    1.39
  -7  -8   7  211.99    4.70
  -7  -8   8  162.65    4.10
  -7  -8   9    1.31    0.52
  -7  -8  10   96.32    2.48
  -7  -8  11   57.85    1.63
  -7  -8  12   48.82    1.45
  -7  -8  13   46.05    1.47
  -7  -8  14   42.44    1.37
  -7  -8  15    1.79    0.71
  -7  -8  16   58.51    1.92
  -7  -8  17    1.33    0.92
  -7  -8  18    2.08    0.64
  -7  -8  19   27.89    1.12
  -7  -8  20   12.99    0.85
  -7  -8  21   40.16    1.57
  -7  -8  22    0.04    0.63
  -7  -8  23    5.70    1.68
  -6  -8  -4    8.67    0.37
  -6  -8  -3   21.12    0.72
  -6  -8  -2   12.37    0.52
  -6  -8  -1   42.00    1.24
  -6  -8   0   37.09    1.03
  -6  -8   1    0.19    0.31
  -6  -8   2    2.32    0.41
  -6  -8   3  101.33    2.30
  -6  -8   4  341.92    6.64
  -6  -8   5   63.01    1.88
  -6  -8   6  433.23    8.58
  -6  -8   7   40.33    1.21
  -6  -8   8   54.13    1.54
  -6  -8   9   14.63    0.82
  -6  -8  10  344.35    7.33
  -6  -8  11    8.86    0.74
  -6  -8  12  139.63    3.23
  -6  -8  13   10.19    0.75
  -6  -8  14    0.83    0.59
  -6  -8  15   36.59    1.52
  -6  -8  16    5.69    0.70
  -6  -8  17    0.37    0.73
  -6  -8  18   35.34    1.25
  -6  -8  19    1.03    0.66
  -6  -8  20   24.90    1.12
  -6  -8  21    1.36    0.78
  -6  -8  22    1.95    0.73
  -6  -8  23    3.55    0.70
  -5  -8  -4    6.29    0.27
  -5  -8  -3   19.26    0.69
  -5  -8  -2   27.64    0.83
  -5  -8  -1   96.44    2.10
  -5  -8   0    5.34    0.47
  -5  -8   1   48.58    1.46
  -5  -8   2   10.19    0.51
  -5  -8   3  268.07    5.60
  -5  -8   4   43.39    1.30
  -5  -8   5   99.06    2.42
  -5  -8   6   17.71    0.77
  -5  -8   7   97.14    2.31
  -5  -8   8    0.00    0.49
  -5  -8   9   46.39    1.53
  -5  -8  10    0.03    0.50
  -5  -8  11    8.39    0.64
  -5  -8  12   25.54    1.06
  -5  -8  13   95.33    2.42
  -5  -8  14    0.61    0.66
  -5  -8  15    5.37    0.76
  -5  -8  16   11.17    0.87
  -5  -8  17   47.56    1.60
  -5  -8  18    0.34    0.59
  -5  -8  19    9.83    0.79
  -5  -8  20   49.12    1.81
  -5  -8  21   47.05    1.48
  -5  -8  22   18.66    0.98
  -5  -8  23   23.33    1.14
  -4  -8  -4   16.93    0.47
  -4  -8  -3   72.61    1.60
  -4  -8  -2  243.99    4.78
  -4  -8  -1    5.62    0.40
  -4  -8   0    0.78    0.31
  -4  -8   1   29.21    0.92
  -4  -8   2  562.99   10.20
  -4  -8   3  311.83    6.07
  -4  -8   4   11.91    0.73
  -4  -8   5  196.32    4.26
  -4  -8   6   16.12    0.82
  -4  -8   7   21.27    0.83
  -4  -8   8  257.52    5.36
  -4  -8   9   61.18    1.77
  -4  -8  10   21.64    1.02
  -4  -8  11   33.61    1.23
  -4  -8  12   86.06    2.35
  -4  -8  13    1.57    0.53
  -4  -8  14   35.91    1.19
  -4  -8  15   76.86    2.07
  -4  -8  16  154.45    3.48
  -4  -8  17    2.33    0.62
  -4  -8  18   18.91    1.10
  -4  -8  19    3.01    0.69
  -4  -8  20   45.42    1.71
  -4  -8  21    1.39    0.62
  -4  -8  22    5.72    0.74
  -4  -8  23    4.90    0.84
  -3  -8  -4    0.94    0.14
  -3  -8  -3   88.47    1.96
  -3  -8  -2  246.25    4.85
  -3  -8  -1    9.26    0.41
  -3  -8   0   59.52    1.58
  -3  -8   1  116.26    2.59
  -3  -8   2   33.83    1.11
  -3  -8   3  110.82    2.62
  -3  -8   4  297.41    6.28
  -3  -8   5  163.61    3.89
  -3  -8   6    5.70    0.52
  -3  -8   7    2.28    0.47
  -3  -8   8   33.50    1.10
  -3  -8   9    8.99    0.76
  -3  -8  10   43.87    1.46
  -3  -8  11  259.88    5.55
  -3  -8  12    0.76    0.56
  -3  -8  13   20.02    0.89
  -3  -8  14   26.81    1.12
  -3  -8  15   56.93    1.80
  -3  -8  16    7.70    0.72
  -3  -8  17   30.42    1.16
  -3  -8  18    1.71    0.68
  -3  -8  19   73.70    1.90
  -3  -8  20   20.04    1.24
  -3  -8  21   13.60    0.82
  -3  -8  22    4.40    0.76
  -3  -8  23    0.36    0.70
  -2  -8 -20    4.34    0.58
  -2  -8  -5  100.70    2.19
  -2  -8  -4  214.04    3.98
  -2  -8  -3   13.54    0.56
  -2  -8  -2   37.94    1.02
  -2  -8  -1   50.17    1.39
  -2  -8   0   25.94    0.90
  -2  -8   1   18.75    0.72
  -2  -8   2  124.33    2.97
  -2  -8   3   97.27    2.42
  -2  -8   4    5.19    0.59
  -2  -8   5    9.62    0.69
  -2  -8   6    8.65    0.61
  -2  -8   7    5.21    0.55
  -2  -8   8   12.17    0.76
  -2  -8   9   83.99    2.17
  -2  -8  10   77.29    2.02
  -2  -8  11   42.32    1.33
  -2  -8  12   76.16    2.08
  -2  -8  13    6.06    0.81
  -2  -8  14   32.49    1.25
  -2  -8  15    0.46    0.56
  -2  -8  16   62.65    1.69
  -2  -8  17    9.57    0.88
  -2  -8  18  100.93    2.67
  -2  -8  19   42.89    1.39
  -2  -8  20   28.45    1.33
  -2  -8  21    0.65    0.56
  -2  -8  22   -0.54    0.61
  -2  -8  23    0.38    0.71
  -1  -8 -21   21.79    1.38
  -1  -8 -20    0.08    0.40
  -1  -8 -19   12.64    0.64
  -1  -8 -18    0.03    0.35
  -1  -8 -17   10.81    0.61
  -1  -8 -16   27.68    0.98
  -1  -8 -15    3.31    0.30
  -1  -8 -14    3.55    0.25
  -1  -8 -13   46.82    1.39
  -1  -8  -7  219.41    8.47
  -1  -8  -6   70.16    1.64
  -1  -8  -5  459.97    7.83
  -1  -8  -4   32.52    0.85
  -1  -8  -3   52.10    1.25
  -1  -8  -2  211.28    4.17
  -1  -8  -1   18.24    0.70
  -1  -8   0  193.98    4.15
  -1  -8   1  237.30    5.08
  -1  -8   2  110.78    2.66
  -1  -8   3   98.62    2.56
  -1  -8   4    4.67    0.56
  -1  -8   5  159.37    3.59
  -1  -8   6   99.04    2.43
  -1  -8   7   20.17    0.98
  -1  -8   8    8.04    0.66
  -1  -8   9  202.32    4.41
  -1  -8  10    2.33    0.62
  -1  -8  11   52.48    1.56
  -1  -8  12   42.32    1.36
  -1  -8  13    3.02    0.60
  -1  -8  14    0.88    0.54
  -1  -8  15   22.83    0.97
  -1  -8  16    7.34    0.70
  -1  -8  17   64.14    1.73
  -1  -8  18   63.00    1.94
  -1  -8  19   22.24    0.95
  -1  -8  20    7.33    0.85
  -1  -8  21   -0.05    0.56
  -1  -8  22    0.49    0.62
  -1  -8  23   29.20    1.24
   0  -8 -22   39.95    1.27
   0  -8 -21    1.73    0.50
   0  -8 -20   11.17    0.87
   0  -8 -19   -0.38    0.41
   0  -8 -18   19.39    0.84
   0  -8 -17    0.17    0.39
   0  -8 -16    4.50    0.43
   0  -8 -15    0.27    0.28
   0  -8 -14  110.10    2.72
   0  -8 -13    3.92    0.31
   0  -8 -12   22.43    0.72
   0  -8 -11   33.73    0.97
   0  -8 -10    1.24    0.20
   0  -8  -9    0.66    0.20
   0  -8  -8  829.89   13.72
   0  -8  -7    7.52    0.37
   0  -8  -6   35.92    0.94
   0  -8  -5    2.63    0.27
   0  -8  -4   28.10    0.85
   0  -8  -3   91.05    2.00
   0  -8  -2  129.40    2.78
   0  -8  -1   13.14    0.55
   0  -8   0  288.40    5.66
   0  -8   1   12.38    0.67
   0  -8   2  131.94    2.99
   0  -8   3   92.82    2.43
   0  -8   4   28.01    0.99
   0  -8   5    3.50    0.53
   0  -8   6   34.90    1.18
   0  -8   7    7.49    0.72
   0  -8   8  847.43   15.05
   0  -8   9    0.54    0.51
   0  -8  10    2.10    0.60
   0  -8  11   36.04    1.16
   0  -8  12   24.56    1.06
   0  -8  13    4.42    0.66
   0  -8  14  122.01    3.11
   0  -8  15    0.99    0.54
   0  -8  16    3.92    0.74
   0  -8  17   -0.16    0.58
   0  -8  18   23.11    1.08
   0  -8  19   -0.16    0.72
   0  -8  20   12.91    0.90
   0  -8  21    4.20    0.76
   0  -8  22   45.35    1.38
   1  -8 -23   24.08    1.44
   1  -8 -22    1.02    0.68
   1  -8 -21    0.02    0.52
   1  -8 -20    3.78    0.52
   1  -8 -19   17.01    0.76
   1  -8 -18   55.08    1.64
   1  -8 -17   56.76    1.56
   1  -8 -16    6.47    0.51
   1  -8 -15   20.51    0.79
   1  -8 -14    0.78    0.33
   1  -8 -13    2.79    0.33
   1  -8 -12   39.83    1.10
   1  -8 -11   51.04    1.39
   1  -8 -10    2.24    0.28
   1  -8  -9  193.70    4.14
   1  -8  -8    8.48    0.43
   1  -8  -7   19.24    0.67
   1  -8  -6   97.99    2.22
   1  -8  -5  150.27    3.29
   1  -8  -4    4.98    0.39
   1  -8  -3   94.05    2.29
   1  -8  -2  108.52    2.46
   1  -8  -1  238.39    4.58
   1  -8   0  185.02    4.03
   1  -8   1   18.80    0.80
   1  -8   2  210.15    4.33
   1  -8   3   52.87    1.45
   1  -8   4   33.89    1.23
   1  -8   5  465.62    8.89
   1  -8   6   68.56    1.83
   1  -8   7  215.15    4.41
   1  -8   8  390.86    7.76
   1  -8   9    3.20    0.65
   1  -8  10   38.10    1.41
   1  -8  11  347.39    7.36
   1  -8  12    1.46    0.53
   1  -8  13   54.98    1.67
   1  -8  14    4.22    0.86
   1  -8  15    4.42    0.73
   1  -8  16   32.37    1.26
   1  -8  17   13.52    0.97
   1  -8  18    0.53    0.58
   1  -8  19   16.96    1.08
   1  -8  20    0.75    0.72
   1  -8  21   31.15    1.16
   1  -8  22    5.60    0.75
   2  -8 -23    1.93    1.46
   2  -8 -22   -0.52    0.53
   2  -8 -21   -0.01    0.51
   2  -8 -20   26.16    1.15
   2  -8 -19   36.58    1.07
   2  -8 -18   93.72    2.10
   2  -8 -17    9.62    0.59
   2  -8 -16   55.47    1.49
   2  -8 -15    0.06    0.40
   2  -8 -14   29.34    0.94
   2  -8 -13    4.99    0.40
   2  -8 -12   73.52    1.93
   2  -8 -11   39.03    1.14
   2  -8 -10   72.88    1.88
   2  -8  -9   82.66    1.92
   2  -8  -8   11.90    0.54
   2  -8  -7    4.98    0.39
   2  -8  -6    8.49    0.54
   2  -8  -5    9.77    0.57
   2  -8  -4    4.52    0.43
   2  -8  -3   96.67    2.38
   2  -8  -2  123.75    2.81
   2  -8  -1   18.84    0.76
   2  -8   0   26.53    0.98
   2  -8   1   50.22    1.50
   2  -8   2   37.68    1.14
   2  -8   3   12.97    0.66
   2  -8   4  208.28    4.63
   2  -8   5   96.37    2.44
   2  -8   6  162.60    3.73
   2  -8   7    5.77    0.65
   2  -8   8  132.54    2.95
   2  -8   9   27.30    1.07
   2  -8  10  402.88    7.66
   2  -8  11   35.20    1.19
   2  -8  12  311.12    6.64
   2  -8  13    3.48    0.56
   2  -8  14    0.73    0.67
   2  -8  15  132.45    3.15
   2  -8  16    9.59    0.78
   2  -8  17    8.75    0.82
   2  -8  18   30.26    1.21
   2  -8  19   15.18    0.93
   2  -8  20    7.43    0.77
   2  -8  21    5.51    0.72
   2  -8  22    9.73    0.82
   3  -8 -23   -0.06    1.02
   3  -8 -22    2.53    0.54
   3  -8 -21   11.51    0.94
   3  -8 -20   15.17    0.82
   3  -8 -19   63.12    1.55
   3  -8 -18    1.87    0.55
   3  -8 -17   26.12    1.01
   3  -8 -16    5.88    0.54
   3  -8 -15   51.75    1.41
   3  -8 -14   25.28    0.89
   3  -8 -13   18.90    0.77
   3  -8 -12    1.10    0.45
   3  -8 -11  242.02    4.93
   3  -8 -10   41.77    1.17
   3  -8  -9    8.96    0.48
   3  -8  -8   31.61    1.05
   3  -8  -7    2.49    0.46
   3  -8  -6    6.24    0.43
   3  -8  -5  168.23    3.73
   3  -8  -4  290.94    5.71
   3  -8  -3  109.89    2.57
   3  -8  -2   34.38    1.05
   3  -8  -1  117.66    2.74
   3  -8   0   59.18    1.67
   3  -8   1    9.97    0.58
   3  -8   2  246.00    4.68
   3  -8   3   87.96    2.20
   3  -8   4    0.88    0.52
   3  -8   5   19.84    0.96
   3  -8   6    4.97    0.57
   3  -8   7  105.06    2.69
   3  -8   8   83.82    2.19
   3  -8   9  107.59    2.65
   3  -8  10   73.98    2.24
   3  -8  11    8.74    0.84
   3  -8  12   17.41    0.84
   3  -8  13  203.76    4.73
   3  -8  14    3.47    0.68
   3  -8  15   15.75    0.85
   3  -8  16   20.63    0.91
   3  -8  17    0.52    0.62
   3  -8  18   10.91    0.84
   3  -8  19   13.06    0.82
   3  -8  20    1.40    0.67
   3  -8  21   44.47    1.50
   4  -8 -23    1.21    0.64
   4  -8 -22    6.09    0.79
   4  -8 -21    0.20    0.58
   4  -8 -20   35.72    1.31
   4  -8 -19    2.41    0.51
   4  -8 -18   18.00    0.87
   4  -8 -17    0.91    0.55
   4  -8 -16  146.64    3.17
   4  -8 -15   68.62    1.73
   4  -8 -14   33.71    1.09
   4  -8 -13    0.93    0.55
   4  -8 -12   79.56    1.97
   4  -8 -11   30.36    1.05
   4  -8 -10   21.03    0.76
   4  -8  -9   60.12    1.69
   4  -8  -8  248.12    5.04
   4  -8  -7   21.42    0.79
   4  -8  -6   16.59    0.63
   4  -8  -5  190.95    4.05
   4  -8  -4   11.27    0.66
   4  -8  -3  312.51    6.39
   4  -8  -2  568.38   10.72
   4  -8  -1   30.05    1.10
   4  -8   0    0.75    0.50
   4  -8   1    5.13    0.54
   4  -8   2  249.93    5.28
   4  -8   3   74.61    2.14
   4  -8   4   16.50    0.93
   4  -8   5   95.50    2.51
   4  -8   6  295.65    6.19
   4  -8   7   18.77    0.84
   4  -8   8  214.33    4.70
   4  -8   9    4.69    0.57
   4  -8  10   18.31    0.91
   4  -8  11    9.50    0.86
   4  -8  12  376.36    7.99
   4  -8  13  410.22    7.63
   4  -8  14   50.83    1.68
   4  -8  15    6.72    0.86
   4  -8  16    2.39    0.71
   4  -8  17   32.16    1.37
   4  -8  18   21.79    1.02
   4  -8  19    0.88    0.53
   4  -8  20   37.29    1.26
   4  -8  21    1.58    0.60
   5  -8 -23   23.78    1.46
   5  -8 -22   16.75    0.91
   5  -8 -21   40.77    1.43
   5  -8 -20   41.64    1.42
   5  -8 -19    9.25    0.74
   5  -8 -18    1.00    0.52
   5  -8 -17   43.95    1.36
   5  -8 -16   10.07    0.64
   5  -8 -15    5.04    0.53
   5  -8 -14   -0.47    0.41
   5  -8 -13   91.23    2.20
   5  -8 -12   24.36    0.87
   5  -8 -11    7.72    0.52
   5  -8 -10    0.40    0.41
   5  -8  -9   44.82    1.24
   5  -8  -8    0.15    0.35
   5  -8  -7   93.38    2.42
   5  -8  -6   17.41    0.72
   5  -8  -5   96.62    2.24
   5  -8  -4   42.65    1.27
   5  -8  -3  267.00    5.55
   5  -8  -2    9.89    0.65
   5  -8  -1   48.54    1.57
   5  -8   0    5.81    0.68
   5  -8   1   97.01    2.40
   5  -8   2   28.29    1.12
   5  -8   3   18.86    0.93
   5  -8   4    6.72    0.60
   5  -8   5  177.40    4.04
   5  -8   6   26.60    1.04
   5  -8   7  240.40    4.81
   5  -8   8    9.23    0.71
   5  -8   9    0.33    0.63
   5  -8  10    2.81    0.67
   5  -8  11   22.46    1.03
   5  -8  12   45.49    1.48
   5  -8  13    1.79    0.50
   5  -8  14    2.57    0.57
   5  -8  15   16.02    0.95
   5  -8  16    5.36    0.73
   5  -8  17   43.41    1.40
   5  -8  18   20.72    0.97
   5  -8  19    6.55    0.72
   5  -8  20    1.39    0.66
   5  -8  21    1.41    0.93
   6  -8 -23    1.71    0.80
   6  -8 -22    1.68    0.76
   6  -8 -21    0.07    0.64
   6  -8 -20   23.68    1.03
   6  -8 -19    0.57    0.69
   6  -8 -18   33.05    1.15
   6  -8 -17    0.13    0.54
   6  -8 -16    4.88    0.58
   6  -8 -15   35.44    1.24
   6  -8 -14    0.53    0.45
   6  -8 -13    9.97    0.74
   6  -8 -12  131.75    3.02
   6  -8 -11    8.72    0.54
   6  -8 -10  328.62    6.19
   6  -8  -9   14.31    0.74
   6  -8  -8   52.30    1.55
   6  -8  -7   38.68    1.32
   6  -8  -6  432.01    8.43
   6  -8  -5   62.45    1.65
   6  -8  -4  341.80    6.89
   6  -8  -3   98.93    2.40
   6  -8  -2    2.98    0.55
   6  -8  -1    0.81    0.52
   6  -8   0   39.66    1.51
   6  -8   1   40.64    1.43
   6  -8   2   10.95    0.73
   6  -8   3   21.39    0.91
   6  -8   4    9.14    0.69
   6  -8   5   97.08    2.59
   6  -8   6    5.19    0.53
   6  -8   7   73.08    1.94
   6  -8   8   88.04    2.13
   6  -8   9   11.45    0.72
   6  -8  10  133.94    3.53
   6  -8  11   76.30    2.22
   6  -8  12    2.33    0.66
   6  -8  13   63.94    1.86
   6  -8  14   25.12    1.01
   6  -8  15    6.57    0.69
   6  -8  16   33.39    1.17
   6  -8  17   17.97    0.97
   6  -8  18   14.37    0.79
   6  -8  19    3.60    0.61
   6  -8  20    0.55    0.60
   7  -8 -22    1.27    0.67
   7  -8 -21   37.16    1.30
   7  -8 -20   11.50    0.95
   7  -8 -19   25.96    1.16
   7  -8 -18    1.37    0.57
   7  -8 -17    0.75    0.58
   7  -8 -16   54.05    1.49
   7  -8 -15    1.22    0.54
   7  -8 -14   38.42    1.19
   7  -8 -13   43.03    1.33
   7  -8 -12   47.89    1.57
   7  -8 -11   56.61    1.68
   7  -8 -10   93.16    2.38
   7  -8  -9    1.07    0.44
   7  -8  -8  164.31    3.83
   7  -8  -7  206.42    4.47
   7  -8  -6   46.05    1.43
   7  -8  -5    2.67    0.68
   7  -8  -4  233.29    4.88
   7  -8  -3  175.95    3.84
   7  -8  -2   13.25    0.75
   7  -8  -1   33.28    1.29
   7  -8   0    0.79    0.51
   7  -8   1  261.75    5.67
   7  -8   2    5.74    0.69
   7  -8   3   17.39    0.83
   7  -8   4  155.04    3.56
   7  -8   5   34.69    1.25
   7  -8   6  171.58    3.93
   7  -8   7  192.67    4.22
   7  -8   8    3.00    0.65
   7  -8   9  270.44    5.66
   7  -8  10   72.37    2.08
   7  -8  11   22.48    1.00
   7  -8  12   24.37    1.12
   7  -8  13   22.97    1.02
   7  -8  14   22.05    1.14
   7  -8  15   19.39    0.92
   7  -8  16   12.59    0.82
   7  -8  17   20.55    0.94
   7  -8  18    0.98    0.55
   7  -8  19    5.69    0.85
   8  -8 -22   16.18    0.97
   8  -8 -21    7.70    0.86
   8  -8 -20    4.36    0.66
   8  -8 -19   19.58    0.97
   8  -8 -18    2.31    0.61
   8  -8 -17   23.09    1.19
   8  -8 -16    0.85    0.54
   8  -8 -15   18.05    0.94
   8  -8 -14   92.01    2.40
   8  -8 -13    9.80    0.64
   8  -8 -12    9.60    0.82
   8  -8 -11   20.78    0.93
   8  -8 -10  139.66    3.50
   8  -8  -9  164.80    3.72
   8  -8  -8  217.53    4.95
   8  -8  -7    2.40    0.57
   8  -8  -6    4.16    0.66
   8  -8  -5    0.19    0.49
   8  -8  -4  122.40    2.82
   8  -8  -3    1.01    0.49
   8  -8  -2   75.34    2.04
   8  -8  -1   63.15    1.80
   8  -8   0   40.57    1.44
   8  -8   1   30.26    1.14
   8  -8   2   38.31    1.36
   8  -8   3   17.34    0.97
   8  -8   4   26.65    1.19
   8  -8   5  186.47    4.29
   8  -8   6   11.47    0.84
   8  -8   7   41.33    1.50
   8  -8   8    1.76    0.65
   8  -8   9   56.65    1.86
   8  -8  10   85.96    2.10
   8  -8  11   -0.17    0.56
   8  -8  12   21.85    0.90
   8  -8  13    0.93    0.60
   8  -8  14   10.20    0.81
   8  -8  15    4.19    0.70
   8  -8  16    9.64    0.90
   8  -8  17   12.35    0.94
   8  -8  18    2.12    0.75
   8  -8  19    2.56    0.71
   9  -8 -22   -0.04    0.66
   9  -8 -21   -0.59    0.69
   9  -8 -20    5.86    0.73
   9  -8 -19   14.71    0.85
   9  -8 -18    1.23    0.58
   9  -8 -17    6.52    0.78
   9  -8 -16   27.72    1.04
   9  -8 -15   10.68    0.81
   9  -8 -14   16.47    0.87
   9  -8 -13   11.75    0.77
   9  -8 -12    7.07    0.59
   9  -8 -11   82.23    2.25
   9  -8 -10   35.09    1.25
   9  -8  -9   76.04    1.98
   9  -8  -8    6.43    0.79
   9  -8  -7   37.31    1.31
   9  -8  -6   21.02    0.97
   9  -8  -5   17.87    0.90
   9  -8  -4    0.66    0.51
   9  -8  -3  154.09    3.44
   9  -8  -2  253.10    5.53
   9  -8  -1   52.83    1.62
   9  -8   0    5.92    0.59
   9  -8   1   20.47    0.89
   9  -8   2   62.35    1.68
   9  -8   3   38.22    1.33
   9  -8   4  253.84    5.33
   9  -8   5    6.08    0.65
   9  -8   6   66.39    2.09
   9  -8   7    1.33    0.71
   9  -8   8  254.49    5.13
   9  -8   9  134.21    2.99
   9  -8  10    0.18    0.70
   9  -8  11   55.82    1.60
   9  -8  12   12.51    0.80
   9  -8  13    8.34    0.80
   9  -8  14    4.40    0.86
   9  -8  15   15.60    0.90
   9  -8  16    2.40    0.69
   9  -8  17   18.04    1.08
   9  -8  18   -0.25    0.65
  10  -8 -22    1.79    1.44
  10  -8 -21    0.58    0.85
  10  -8 -20   11.29    1.10
  10  -8 -19    5.49    0.80
  10  -8 -18   22.91    1.02
  10  -8 -17   12.50    0.79
  10  -8 -16    0.32    0.70
  10  -8 -15    1.45    0.68
  10  -8 -14    6.68    0.64
  10  -8 -13   -0.01    0.61
  10  -8 -12  149.77    3.25
  10  -8 -11   22.11    1.01
  10  -8 -10   51.49    1.76
  10  -8  -9    4.74    0.59
  10  -8  -8    5.47    0.78
  10  -8  -7   26.93    1.09
  10  -8  -6   80.02    2.18
  10  -8  -5   31.66    1.19
  10  -8  -4   34.35    1.27
  10  -8  -3  106.83    2.68
  10  -8  -2    6.66    0.74
  10  -8  -1    6.39    0.74
  10  -8   0  113.81    2.79
  10  -8   1   19.55    0.97
  10  -8   2   56.19    1.60
  10  -8   3    0.48    0.56
  10  -8   4   25.57    1.11
  10  -8   5   10.17    0.71
  10  -8   6   10.88    0.90
  10  -8   7   24.10    1.08
  10  -8   8   70.34    2.26
  10  -8   9   38.53    1.47
  10  -8  10  166.88    3.71
  10  -8  11   -0.21    0.60
  10  -8  12    0.06    0.63
  10  -8  13    2.82    0.65
  10  -8  14   96.27    2.23
  10  -8  15    0.15    0.62
  10  -8  16   14.44    0.93
  10  -8  17    0.21    0.71
  11  -8 -21   25.20    1.05
  11  -8 -20    0.32    0.64
  11  -8 -19   25.29    1.07
  11  -8 -18   23.17    1.05
  11  -8 -17   14.48    1.00
  11  -8 -16    0.17    0.61
  11  -8 -15   39.63    1.30
  11  -8 -14   29.70    1.19
  11  -8 -13   32.70    1.33
  11  -8 -12    3.44    0.85
  11  -8 -11    1.34    0.52
  11  -8 -10    9.17    0.78
  11  -8  -9    6.84    0.59
  11  -8  -8  126.54    2.93
  11  -8  -7   41.24    1.44
  11  -8  -6    0.72    0.69
  11  -8  -5   41.76    1.38
  11  -8  -4    0.72    0.52
  11  -8  -3   60.48    1.70
  11  -8  -2    9.68    0.69
  11  -8  -1   63.11    1.82
  11  -8   0   18.32    1.04
  11  -8   1   38.24    1.44
  11  -8   2    7.55    0.79
  11  -8   3   40.11    1.44
  11  -8   4    2.00    0.85
  11  -8   5    4.73    0.69
  11  -8   6    2.92    0.68
  11  -8   7   11.41    0.80
  11  -8   8   58.91    2.02
  11  -8   9    7.16    0.75
  11  -8  10    5.56    0.70
  11  -8  11   10.14    0.86
  11  -8  12   27.68    1.08
  11  -8  13   41.24    1.42
  11  -8  14   11.04    0.92
  11  -8  15    0.74    0.65
  11  -8  16    4.42    0.61
  12  -8 -20    0.41    0.71
  12  -8 -19    2.51    0.70
  12  -8 -18   17.29    1.01
  12  -8 -17    4.57    0.65
  12  -8 -16    2.54    0.66
  12  -8 -15    1.04    0.66
  12  -8 -14   17.57    0.99
  12  -8 -13    0.35    0.72
  12  -8 -12    0.56    0.56
  12  -8 -11   11.43    0.78
  12  -8 -10   46.92    1.69
  12  -8  -9   38.88    1.42
  12  -8  -8   92.74    2.32
  12  -8  -7    2.97    0.62
  12  -8  -6    0.53    0.66
  12  -8  -5   27.06    1.08
  12  -8  -4    0.86    0.58
  12  -8  -3    0.42    0.62
  12  -8  -2   88.74    2.50
  12  -8  -1    4.57    0.76
  12  -8   0   53.11    1.69
  12  -8   1    0.85    0.81
  12  -8   2   36.89    1.19
  12  -8   3    2.35    0.61
  12  -8   4  141.20    3.25
  12  -8   5   16.17    0.86
  12  -8   6   50.99    1.51
  12  -8   7    9.28    0.78
  12  -8   8   39.38    1.53
  12  -8   9    6.95    0.77
  12  -8  10  111.93    2.56
  12  -8  11    9.63    0.99
  12  -8  12  118.47    3.12
  12  -8  13    0.67    0.68
  12  -8  14    0.27    0.63
  12  -8  15    0.96    0.59
  13  -8 -20   -0.01    0.74
  13  -8 -19   55.03    1.73
  13  -8 -18    0.72    0.73
  13  -8 -17   26.50    1.33
  13  -8 -16    1.25    0.91
  13  -8 -15    0.00    0.64
  13  -8 -14   -0.31    0.66
  13  -8 -13   21.75    1.04
  13  -8 -12   20.92    0.94
  13  -8 -11   71.78    2.00
  13  -8 -10   -0.14    0.57
  13  -8  -9   24.01    0.96
  13  -8  -8   47.15    1.49
  13  -8  -7    9.99    0.79
  13  -8  -6    8.50    0.74
  13  -8  -5   92.94    2.43
  13  -8  -4    3.23    0.67
  13  -8  -3   10.27    0.82
  13  -8  -2    0.14    0.68
  13  -8  -1   -0.58    0.60
  13  -8   0   57.99    1.91
  13  -8   1    3.73    0.77
  13  -8   2    2.73    0.76
  13  -8   3  106.70    2.47
  13  -8   4   98.54    2.35
  13  -8   5  109.83    2.78
  13  -8   6   44.92    1.43
  13  -8   7   10.54    0.83
  13  -8   8   31.25    1.41
  13  -8   9   70.45    2.09
  13  -8  10    2.01    0.66
  13  -8  11   39.23    1.42
  13  -8  12    9.63    0.81
  13  -8  13    0.69    0.59
  13  -8  14    1.30    0.59
  14  -8 -19    1.24    0.79
  14  -8 -18    0.78    0.71
  14  -8 -17    7.23    0.75
  14  -8 -16   12.00    0.83
  14  -8 -15    3.82    0.67
  14  -8 -14    8.78    0.79
  14  -8 -13   20.07    1.01
  14  -8 -12   31.09    1.34
  14  -8 -11   14.62    0.89
  14  -8 -10    6.23    0.74
  14  -8  -9   13.84    0.90
  14  -8  -8   21.49    1.01
  14  -8  -7   12.48    1.11
  14  -8  -6  189.27    4.22
  14  -8  -5   45.19    1.49
  14  -8  -4    1.68    0.75
  14  -8  -3   -0.07    0.65
  14  -8  -2    3.38    0.70
  14  -8  -1   86.68    2.46
  14  -8   0    4.20    0.83
  14  -8   1   19.73    1.12
  14  -8   2   54.92    1.84
  14  -8   3   10.78    0.83
  14  -8   4    1.88    0.65
  14  -8   5    0.57    0.65
  14  -8   6   19.58    1.00
  14  -8   7    0.68    0.73
  14  -8   8   68.20    2.39
  14  -8   9    0.34    0.73
  14  -8  10    7.69    0.78
  14  -8  11   -0.20    0.54
  14  -8  12    4.11    0.78
  14  -8  13    1.81    0.61
  15  -8 -18    0.57    0.67
  15  -8 -17    1.73    0.66
  15  -8 -16   -0.35    0.74
  15  -8 -15    9.18    0.76
  15  -8 -14    0.42    0.63
  15  -8 -13   27.39    1.12
  15  -8 -12   27.45    1.04
  15  -8 -11    7.18    0.89
  15  -8 -10    1.01    0.75
  15  -8  -9   10.81    1.01
  15  -8  -8    7.55    0.85
  15  -8  -7   31.84    1.32
  15  -8  -6   42.23    1.40
  15  -8  -5    4.69    0.71
  15  -8  -4   12.40    0.93
  15  -8  -3   44.21    1.69
  15  -8  -2    5.61    0.76
  15  -8  -1    8.66    0.76
  15  -8   0   -0.01    0.77
  15  -8   1   61.83    1.85
  15  -8   2    4.96    0.75
  15  -8   3    6.66    0.84
  15  -8   4   21.99    1.01
  15  -8   5   67.16    1.72
  15  -8   6    0.25    0.65
  15  -8   7   38.76    1.50
  15  -8   8    0.11    0.94
  15  -8   9    4.79    0.69
  15  -8  10   -0.20    0.55
  15  -8  11   18.93    1.12
  16  -8 -17   -0.70    0.90
  16  -8 -16   11.76    0.81
  16  -8 -15    5.78    0.73
  16  -8 -14    7.45    0.85
  16  -8 -13    4.07    0.71
  16  -8 -12    5.64    1.00
  16  -8 -11    0.48    0.77
  16  -8 -10   35.77    1.37
  16  -8  -9   11.01    0.87
  16  -8  -8   56.29    1.66
  16  -8  -7    2.88    0.67
  16  -8  -6   12.47    1.01
  16  -8  -5    0.47    0.72
  16  -8  -4   46.10    1.50
  16  -8  -3    8.35    0.90
  16  -8  -2   18.03    1.04
  16  -8  -1    7.48    0.78
  16  -8   0   35.56    1.24
  16  -8   1    5.57    1.00
  16  -8   2   33.36    1.29
  16  -8   3    3.28    0.79
  16  -8   4   20.85    1.03
  16  -8   5    6.01    0.82
  16  -8   6   12.38    0.85
  16  -8   7   -0.09    0.74
  16  -8   8    0.98    0.91
  16  -8   9   -0.51    0.69
  16  -8  10    7.87    1.24
  17  -8 -15    0.34    0.70
  17  -8 -14    1.37    0.72
  17  -8 -13    3.29    0.90
  17  -8 -12    6.29    0.88
  17  -8 -11   39.81    1.45
  17  -8 -10   -1.18    0.67
  17  -8  -9    7.57    0.77
  17  -8  -8    8.73    0.77
  17  -8  -7    5.29    0.97
  17  -8  -6    0.28    0.63
  17  -8  -5   32.25    1.34
  17  -8  -4    1.52    0.73
  17  -8  -3    6.25    0.81
  17  -8  -2    0.18    0.74
  17  -8  -1    5.45    0.80
  17  -8   0    1.05    0.66
  17  -8   1   60.27    1.65
  17  -8   2    0.61    0.82
  17  -8   3   46.59    1.48
  17  -8   4    4.63    0.76
  17  -8   5   14.72    0.93
  17  -8   6   -0.76    0.62
  17  -8   7   10.47    1.00
  17  -8   8    1.10    1.68
  18  -8 -13    1.13    0.75
  18  -8 -12    6.65    0.73
  18  -8 -11    6.21    0.87
  18  -8 -10    1.50    0.63
  18  -8  -9    2.52    0.95
  18  -8  -8   13.70    0.90
  18  -8  -7    0.46    0.69
  18  -8  -6   22.23    1.16
  18  -8  -5    3.30    0.75
  18  -8  -4    2.33    0.76
  18  -8  -3    0.79    0.65
  18  -8  -2    8.32    0.79
  18  -8  -1    7.10    0.92
  18  -8   0   45.20    1.62
  18  -8   1    6.55    0.74
  18  -8   2    7.51    0.86
  18  -8   3    6.04    0.84
  18  -8   4    0.31    0.72
  18  -8   5   -0.02    0.67
  19  -8 -10    1.12    1.10
  19  -8  -9   28.55    1.27
  19  -8  -8    3.69    0.80
  19  -8  -7   19.73    1.01
  19  -8  -6   -0.36    0.79
  19  -8  -5    1.92    0.67
  19  -8  -4    0.13    0.80
  19  -8  -3    6.91    0.88
  19  -8  -2   -0.62    0.65
  19  -8  -1   10.99    0.91
  19  -8   0    1.98    0.86
  19  -8   1    5.07    0.73
  19  -8   2    0.65    0.64
 -19  -9   0    1.10    1.08
 -19  -9   1    1.03    0.85
 -19  -9   2    2.31    0.76
 -19  -9   3    6.23    0.82
 -19  -9   4    1.51    0.82
 -19  -9   5   15.05    0.94
 -19  -9   6   -0.80    0.73
 -19  -9   7   -0.50    0.77
 -19  -9   8   15.66    1.13
 -18  -9  -4   15.71    1.08
 -18  -9  -3    5.72    0.77
 -18  -9  -2   24.18    0.97
 -18  -9  -1   10.35    0.86
 -18  -9   0    0.87    0.70
 -18  -9   1   15.00    0.98
 -18  -9   2   14.73    0.95
 -18  -9   3    1.90    0.70
 -18  -9   4   19.68    1.07
 -18  -9   5   10.73    0.93
 -18  -9   6    0.87    0.65
 -18  -9   7    8.18    0.87
 -18  -9   8    4.66    0.68
 -18  -9   9    1.92    0.74
 -18  -9  10   11.34    1.00
 -18  -9  11    1.62    0.76
 -18  -9  12    5.96    0.90
 -17  -9  -7    0.33    0.94
 -17  -9  -6    1.93    1.37
 -17  -9  -5    0.04    0.85
 -17  -9  -4    3.81    0.69
 -17  -9  -3    0.14    0.63
 -17  -9  -2   19.00    0.92
 -17  -9  -1    5.78    0.84
 -17  -9   0   26.19    1.16
 -17  -9   1   30.13    1.22
 -17  -9   2   -0.42    0.65
 -17  -9   3    0.40    0.64
 -17  -9   4   20.50    1.09
 -17  -9   5    2.52    0.65
 -17  -9   6    1.60    0.81
 -17  -9   7    8.10    0.93
 -17  -9   8    0.56    0.63
 -17  -9   9    7.99    0.97
 -17  -9  10    3.73    0.69
 -17  -9  11   -0.30    0.65
 -17  -9  12    2.40    0.79
 -17  -9  13   14.95    1.07
 -17  -9  14   -0.57    0.82
 -16  -9  -9    1.38    0.98
 -16  -9  -8    4.78    1.04
 -16  -9  -7    1.30    0.69
 -16  -9  -6   11.07    0.96
 -16  -9  -5    3.15    0.71
 -16  -9  -4    6.80    0.68
 -16  -9  -3    6.54    0.66
 -16  -9  -2   11.23    0.82
 -16  -9  -1   13.82    0.92
 -16  -9   0   27.01    1.04
 -16  -9   1    5.27    0.76
 -16  -9   2    8.59    0.78
 -16  -9   3   15.29    0.93
 -16  -9   4    4.33    0.65
 -16  -9   5    1.82    0.63
 -16  -9   6   16.97    1.08
 -16  -9   7    2.48    0.69
 -16  -9   8    8.63    0.80
 -16  -9   9   23.13    1.39
 -16  -9  10   11.09    0.79
 -16  -9  11    5.46    0.90
 -16  -9  12   58.06    1.78
 -16  -9  13    2.57    0.81
 -16  -9  14    0.35    0.66
 -16  -9  15    0.92    0.67
 -16  -9  16   11.62    1.25
 -15  -9  -9    5.44    0.78
 -15  -9  -8    1.07    0.49
 -15  -9  -7   22.94    1.14
 -15  -9  -6   13.21    0.94
 -15  -9  -5    1.83    0.61
 -15  -9  -4   -0.68    0.55
 -15  -9  -3   56.63    1.57
 -15  -9  -2    0.28    0.58
 -15  -9  -1    7.49    0.76
 -15  -9   0   14.80    0.80
 -15  -9   1    1.08    0.63
 -15  -9   2   11.15    0.78
 -15  -9   3   43.25    1.39
 -15  -9   4    6.23    0.63
 -15  -9   5   60.10    1.85
 -15  -9   6   25.13    1.07
 -15  -9   7   45.55    1.50
 -15  -9   8    8.58    0.95
 -15  -9   9    1.27    0.63
 -15  -9  10    0.39    0.74
 -15  -9  11   25.18    0.98
 -15  -9  12    3.87    0.69
 -15  -9  13   21.49    1.41
 -15  -9  14   -0.04    0.67
 -15  -9  15   -0.13    0.74
 -15  -9  16    3.58    0.71
 -15  -9  17   41.68    1.31
 -14  -9  -9   20.33    0.82
 -14  -9  -8    1.65    0.45
 -14  -9  -7   22.54    1.04
 -14  -9  -6    0.14    0.44
 -14  -9  -5    0.46    0.50
 -14  -9  -4   65.63    1.97
 -14  -9  -3   17.53    0.83
 -14  -9  -2   20.17    0.87
 -14  -9  -1   21.05    0.87
 -14  -9   0    9.48    0.76
 -14  -9   1   21.89    0.94
 -14  -9   2    0.89    0.57
 -14  -9   3    5.00    0.69
 -14  -9   4   36.83    1.35
 -14  -9   5   37.76    1.35
 -14  -9   6   12.05    0.81
 -14  -9   7   18.44    0.97
 -14  -9   8    4.25    0.74
 -14  -9   9   10.02    0.69
 -14  -9  10   24.01    1.00
 -14  -9  11   40.53    1.30
 -14  -9  12    1.44    0.84
 -14  -9  13    1.48    0.67
 -14  -9  14    3.71    0.87
 -14  -9  15    1.47    0.66
 -14  -9  16   35.38    1.47
 -14  -9  17    1.30    0.75
 -14  -9  18    6.01    0.89
 -13  -9  -9    0.48    0.36
 -13  -9  -8   21.04    0.95
 -13  -9  -7   56.44    2.02
 -13  -9  -6   12.05    0.78
 -13  -9  -5   26.99    1.16
 -13  -9  -4    0.11    0.46
 -13  -9  -3    4.41    0.59
 -13  -9  -2   68.50    1.77
 -13  -9  -1    4.64    0.62
 -13  -9   0   40.71    1.36
 -13  -9   1   69.41    1.73
 -13  -9   2   27.36    1.09
 -13  -9   3   34.51    1.27
 -13  -9   4    4.61    0.59
 -13  -9   5    0.38    0.51
 -13  -9   6    6.62    0.87
 -13  -9   7   66.69    1.83
 -13  -9   8   19.62    0.97
 -13  -9   9   10.45    0.91
 -13  -9  10    1.94    0.63
 -13  -9  11    3.74    0.75
 -13  -9  12    1.62    0.68
 -13  -9  13    3.67    0.83
 -13  -9  14    5.29    0.71
 -13  -9  15   25.39    1.09
 -13  -9  16    0.29    0.66
 -13  -9  17    2.31    0.77
 -13  -9  18    3.06    0.82
 -13  -9  19    4.17    0.81
 -12  -9  -8   57.46    1.45
 -12  -9  -7    2.82    0.38
 -12  -9  -6    2.71    0.44
 -12  -9  -5    1.65    0.43
 -12  -9  -4    0.74    0.43
 -12  -9  -3   47.98    1.39
 -12  -9  -2   61.52    1.79
 -12  -9  -1    2.21    0.45
 -12  -9   0   86.55    2.20
 -12  -9   1    0.94    0.66
 -12  -9   2    3.14    0.54
 -12  -9   3    3.31    0.59
 -12  -9   4    0.93    0.66
 -12  -9   5    2.93    0.61
 -12  -9   6   73.67    1.94
 -12  -9   7   76.23    2.27
 -12  -9   8   23.53    0.93
 -12  -9   9   44.31    1.55
 -12  -9  10    3.55    0.63
 -12  -9  11   12.28    0.96
 -12  -9  12    4.40    0.73
 -12  -9  13   -0.50    0.58
 -12  -9  14   37.49    1.42
 -12  -9  15    1.55    0.69
 -12  -9  16    4.93    0.81
 -12  -9  17    0.14    0.79
 -12  -9  18    3.93    0.79
 -12  -9  19    9.34    0.96
 -12  -9  20    7.67    0.99
 -11  -9  -7   13.53    0.57
 -11  -9  -6   22.62    0.81
 -11  -9  -5   -0.09    0.39
 -11  -9  -4    2.01    0.37
 -11  -9  -3  109.38    2.61
 -11  -9  -2    0.48    0.40
 -11  -9  -1    0.29    0.44
 -11  -9   0  137.07    3.13
 -11  -9   1   33.73    1.17
 -11  -9   2    5.50    0.77
 -11  -9   3   76.99    2.11
 -11  -9   4   35.46    1.22
 -11  -9   5    0.41    0.65
 -11  -9   6   35.29    1.18
 -11  -9   7   20.44    0.92
 -11  -9   8   40.83    1.57
 -11  -9   9   16.04    0.91
 -11  -9  10   40.54    1.41
 -11  -9  11    6.74    0.73
 -11  -9  12   27.50    1.15
 -11  -9  13    1.38    0.72
 -11  -9  14    4.14    0.76
 -11  -9  15    8.40    1.05
 -11  -9  16    6.90    0.84
 -11  -9  17   25.72    1.18
 -11  -9  18    4.11    0.82
 -11  -9  19   13.07    0.96
 -11  -9  20    4.45    0.76
 -10  -9  -7   49.84    1.96
 -10  -9  -6   20.41    0.72
 -10  -9  -5   28.08    0.88
 -10  -9  -4   79.69    1.86
 -10  -9  -3    0.57    0.34
 -10  -9  -2   37.85    1.11
 -10  -9  -1   12.49    0.65
 -10  -9   0  174.52    3.76
 -10  -9   1    0.33    0.44
 -10  -9   2   84.75    2.16
 -10  -9   3   11.68    0.73
 -10  -9   4   41.90    1.36
 -10  -9   5    2.10    0.54
 -10  -9   6    5.11    0.61
 -10  -9   7   35.40    1.21
 -10  -9   8   17.82    0.82
 -10  -9   9   27.20    1.17
 -10  -9  10   56.79    1.60
 -10  -9  11   -0.41    0.66
 -10  -9  12   71.78    1.94
 -10  -9  13    0.47    0.74
 -10  -9  14   65.84    1.84
 -10  -9  15    4.38    0.77
 -10  -9  16   13.29    1.07
 -10  -9  17    1.50    0.72
 -10  -9  18   29.39    1.53
 -10  -9  19    0.33    0.75
 -10  -9  20    0.53    0.64
 -10  -9  21    0.18    0.63
  -9  -9  -6   45.39    1.33
  -9  -9  -5  179.33    3.63
  -9  -9  -4   41.93    1.12
  -9  -9  -3    1.57    0.40
  -9  -9  -2    1.17    0.44
  -9  -9  -1  169.71    3.62
  -9  -9   0   28.44    0.93
  -9  -9   1   40.94    1.17
  -9  -9   2  234.38    5.11
  -9  -9   3   16.50    0.76
  -9  -9   4   75.87    2.03
  -9  -9   5   40.28    1.40
  -9  -9   6    3.13    0.58
  -9  -9   7   37.50    1.21
  -9  -9   8   22.19    0.93
  -9  -9   9    1.75    0.62
  -9  -9  10    9.95    0.73
  -9  -9  11    7.74    0.88
  -9  -9  12    0.53    0.76
  -9  -9  13  171.52    3.71
  -9  -9  14    5.74    0.71
  -9  -9  15    0.17    0.55
  -9  -9  16    3.20    0.65
  -9  -9  17    1.37    0.81
  -9  -9  18   16.27    1.02
  -9  -9  19   51.57    2.11
  -9  -9  20   -0.10    0.69
  -9  -9  21    6.60    0.86
  -8  -9  -5    1.42    0.23
  -8  -9  -4   17.38    0.63
  -8  -9  -3    2.10    0.35
  -8  -9  -2  542.99    9.83
  -8  -9  -1   62.49    1.71
  -8  -9   0    7.69    0.53
  -8  -9   1  138.12    2.95
  -8  -9   2   10.09    0.70
  -8  -9   3  101.54    2.56
  -8  -9   4  122.29    2.79
  -8  -9   5   27.77    0.99
  -8  -9   6   31.39    1.26
  -8  -9   7   34.10    1.17
  -8  -9   8   64.23    1.81
  -8  -9   9   86.39    2.15
  -8  -9  10   57.51    1.80
  -8  -9  11   14.74    0.83
  -8  -9  12  125.60    3.09
  -8  -9  13   86.08    2.15
  -8  -9  14    0.47    0.59
  -8  -9  15   22.22    1.07
  -8  -9  16    0.26    0.59
  -8  -9  17    2.39    0.72
  -8  -9  18   27.09    1.04
  -8  -9  19   -0.55    0.68
  -8  -9  20    5.22    0.75
  -8  -9  21    5.41    0.70
  -8  -9  22   -0.39    1.05
  -7  -9  -5  108.87    2.72
  -7  -9  -4   18.08    0.58
  -7  -9  -3  272.22    5.42
  -7  -9  -2   19.73    0.80
  -7  -9  -1    0.94    0.34
  -7  -9   0   11.98    0.61
  -7  -9   1   15.73    0.69
  -7  -9   2   14.42    0.68
  -7  -9   3  107.39    2.67
  -7  -9   4    0.21    0.45
  -7  -9   5    2.06    0.51
  -7  -9   6   28.25    1.02
  -7  -9   7    3.18    0.50
  -7  -9   8    7.68    0.59
  -7  -9   9   60.30    1.72
  -7  -9  10   17.67    0.93
  -7  -9  11   65.91    1.81
  -7  -9  12   44.85    1.43
  -7  -9  13   93.84    2.39
  -7  -9  14   16.41    0.84
  -7  -9  15   13.34    0.92
  -7  -9  16   13.04    0.83
  -7  -9  17  125.00    2.84
  -7  -9  18    1.75    0.89
  -7  -9  19    1.41    0.80
  -7  -9  20    1.98    0.75
  -7  -9  21    3.79    0.67
  -7  -9  22   11.06    0.99
  -6  -9  -4   83.09    1.92
  -6  -9  -3  176.82    3.62
  -6  -9  -2    0.72    0.30
  -6  -9  -1   27.15    0.91
  -6  -9   0    1.76    0.39
  -6  -9   1    2.92    0.37
  -6  -9   2   64.56    1.70
  -6  -9   3   67.39    1.77
  -6  -9   4    0.55    0.46
  -6  -9   5   33.88    1.00
  -6  -9   6    0.79    0.51
  -6  -9   7   47.27    1.47
  -6  -9   8  112.08    2.93
  -6  -9   9   70.29    1.98
  -6  -9  10   67.50    1.93
  -6  -9  11  109.79    2.67
  -6  -9  12    2.67    0.63
  -6  -9  13   22.75    1.03
  -6  -9  14    2.73    0.72
  -6  -9  15   14.80    0.82
  -6  -9  16   49.28    1.80
  -6  -9  17    0.64    0.68
  -6  -9  18    3.06    0.90
  -6  -9  19   23.13    1.18
  -6  -9  20    0.27    0.64
  -6  -9  21    3.10    0.68
  -6  -9  22    5.24    0.79
  -5  -9  -4  144.97    2.94
  -5  -9  -3   11.77    0.50
  -5  -9  -2   57.71    1.54
  -5  -9  -1    1.94    0.30
  -5  -9   0   10.73    0.51
  -5  -9   1   34.15    0.99
  -5  -9   2   90.55    1.97
  -5  -9   3    4.47    0.53
  -5  -9   4  303.14    6.19
  -5  -9   5   67.18    1.74
  -5  -9   6    4.64    0.58
  -5  -9   7   37.65    1.34
  -5  -9   8    9.03    0.75
  -5  -9   9    0.23    0.55
  -5  -9  10   18.53    0.94
  -5  -9  11  160.09    3.71
  -5  -9  12   10.77    0.86
  -5  -9  13    8.14    0.71
  -5  -9  14    7.80    0.64
  -5  -9  15   64.76    2.11
  -5  -9  16    0.02    0.67
  -5  -9  17   10.95    0.78
  -5  -9  18   20.05    1.17
  -5  -9  19   39.28    1.41
  -5  -9  20   -0.60    0.60
  -5  -9  21    7.34    1.02
  -5  -9  22    0.80    0.62
  -4  -9  -4  288.24    5.15
  -4  -9  -3    4.08    0.30
  -4  -9  -2  167.22    3.55
  -4  -9  -1   70.16    1.71
  -4  -9   0  145.89    3.00
  -4  -9   1    0.34    0.35
  -4  -9   2  214.47    4.32
  -4  -9   3   21.95    0.85
  -4  -9   4    6.52    0.50
  -4  -9   5   71.49    1.81
  -4  -9   6  202.29    4.27
  -4  -9   7   67.77    1.84
  -4  -9   8    4.33    0.50
  -4  -9   9   14.24    0.76
  -4  -9  10   58.70    1.76
  -4  -9  11   70.98    1.97
  -4  -9  12   99.31    2.75
  -4  -9  13   38.90    1.28
  -4  -9  14   94.98    2.29
  -4  -9  15   16.02    1.02
  -4  -9  16   39.52    1.43
  -4  -9  17   32.66    1.23
  -4  -9  18   39.58    1.41
  -4  -9  19    3.99    0.68
  -4  -9  20   10.59    0.78
  -4  -9  21   -0.14    0.84
  -4  -9  22   11.93    0.91
  -3  -9  -4    0.13    0.18
  -3  -9  -3  328.68    6.07
  -3  -9  -2   33.61    0.90
  -3  -9  -1   30.67    0.92
  -3  -9   0   20.23    0.71
  -3  -9   1   17.49    0.68
  -3  -9   2  128.31    2.81
  -3  -9   3   64.37    1.71
  -3  -9   4  200.50    4.00
  -3  -9   5    1.16    0.55
  -3  -9   6  134.35    3.45
  -3  -9   7   56.16    1.61
  -3  -9   8   33.95    1.28
  -3  -9   9   14.21    0.86
  -3  -9  10   35.41    1.45
  -3  -9  11   57.84    1.71
  -3  -9  12   21.77    0.92
  -3  -9  13   21.38    1.01
  -3  -9  14    8.35    0.68
  -3  -9  15   70.86    2.00
  -3  -9  16   19.77    1.02
  -3  -9  17   17.82    0.89
  -3  -9  18   19.91    1.11
  -3  -9  19    0.22    0.67
  -3  -9  20   10.89    0.80
  -3  -9  21    9.48    0.82
  -3  -9  22    3.81    0.68
  -2  -9  -5  116.41    2.59
  -2  -9  -4   99.35    2.17
  -2  -9  -3   53.71    1.33
  -2  -9  -2  404.12    7.30
  -2  -9  -1    4.37    0.36
  -2  -9   0 1087.08   18.48
  -2  -9   1   29.83    1.01
  -2  -9   2   58.36    1.49
  -2  -9   3    3.90    0.48
  -2  -9   4   68.86    1.74
  -2  -9   5    9.61    0.72
  -2  -9   6  260.88    5.22
  -2  -9   7   54.49    1.39
  -2  -9   8   40.05    1.36
  -2  -9   9   42.71    1.27
  -2  -9  10  159.77    3.61
  -2  -9  11   73.03    1.97
  -2  -9  12    4.89    0.61
  -2  -9  13   29.39    1.10
  -2  -9  14   64.24    1.87
  -2  -9  15   -0.66    0.70
  -2  -9  16   16.01    0.98
  -2  -9  17   11.39    0.82
  -2  -9  18    6.31    0.80
  -2  -9  19   27.77    1.18
  -2  -9  20    7.58    0.84
  -2  -9  21    3.78    0.69
  -2  -9  22   16.72    1.07
  -1  -9  -7    4.33    0.29
  -1  -9  -6  117.62    2.65
  -1  -9  -5    9.34    0.43
  -1  -9  -4  355.50    6.28
  -1  -9  -3   35.78    0.98
  -1  -9  -2   20.65    0.67
  -1  -9  -1   47.08    1.45
  -1  -9   0   13.97    0.67
  -1  -9   1    2.12    0.38
  -1  -9   2    0.58    0.34
  -1  -9   3   65.71    1.68
  -1  -9   4   15.53    0.76
  -1  -9   5   53.46    1.46
  -1  -9   6  180.46    3.92
  -1  -9   7   32.42    1.10
  -1  -9   8   27.04    1.05
  -1  -9   9    8.46    0.68
  -1  -9  10   52.86    1.50
  -1  -9  11   24.51    1.05
  -1  -9  12  246.59    5.32
  -1  -9  13  101.94    2.61
  -1  -9  14   13.42    0.99
  -1  -9  15   63.05    1.72
  -1  -9  16   16.99    1.02
  -1  -9  17    5.44    0.68
  -1  -9  18   44.11    1.69
  -1  -9  19   71.46    1.99
  -1  -9  20    0.73    0.70
  -1  -9  21    7.41    0.74
  -1  -9  22    7.32    1.02
   0  -9 -22    1.99    0.78
   0  -9 -21   19.62    0.93
   0  -9 -20   11.12    0.58
   0  -9 -19    7.54    0.50
   0  -9 -18   54.11    1.28
   0  -9 -17    9.12    0.55
   0  -9 -16    0.89    0.28
   0  -9 -15    0.57    0.26
   0  -9 -14   -0.02    0.22
   0  -9 -13   29.34    0.94
   0  -9 -12   41.95    1.22
   0  -9 -11    0.39    0.17
   0  -9 -10  174.72    3.52
   0  -9  -9  113.60    2.41
   0  -9  -8   12.93    0.41
   0  -9  -7   12.31    0.46
   0  -9  -6    1.79    0.28
   0  -9  -5  150.61    3.32
   0  -9  -4  143.78    3.03
   0  -9  -3   35.23    0.98
   0  -9  -2   61.02    1.63
   0  -9  -1   17.20    0.67
   0  -9   0    0.00    0.41
   0  -9   1   16.22    0.67
   0  -9   2   61.41    1.68
   0  -9   3   36.90    1.16
   0  -9   4  149.65    3.36
   0  -9   5  155.69    3.70
   0  -9   6    1.92    0.51
   0  -9   7   13.41    0.68
   0  -9   8   12.83    0.78
   0  -9   9  116.98    2.79
   0  -9  10  185.84    4.29
   0  -9  11    0.02    0.60
   0  -9  12   43.91    1.44
   0  -9  13   32.98    1.27
   0  -9  14    0.48    0.67
   0  -9  15    0.34    0.58
   0  -9  16    1.40    0.65
   0  -9  17   11.17    0.79
   0  -9  18   76.02    2.40
   0  -9  19   10.40    0.76
   0  -9  20   16.23    0.87
   0  -9  21   31.47    1.16
   0  -9  22    2.28    0.75
   1  -9 -22    5.86    0.89
   1  -9 -21    4.82    0.52
   1  -9 -20    0.44    0.44
   1  -9 -19   62.71    1.93
   1  -9 -18   38.85    1.25
   1  -9 -17    4.08    0.44
   1  -9 -16   14.83    0.80
   1  -9 -15   56.62    1.52
   1  -9 -14   11.43    0.56
   1  -9 -13   91.59    2.12
   1  -9 -12  230.82    4.69
   1  -9 -11   23.03    0.79
   1  -9 -10   49.37    1.27
   1  -9  -9    7.03    0.40
   1  -9  -8   26.11    0.81
   1  -9  -7   30.98    0.97
   1  -9  -6  178.16    3.64
   1  -9  -5   52.12    1.42
   1  -9  -4   15.69    0.60
   1  -9  -3   65.11    1.67
   1  -9  -2   -0.15    0.34
   1  -9  -1    2.08    0.39
   1  -9   0   13.81    0.68
   1  -9   1   43.28    1.57
   1  -9   2   20.90    0.80
   1  -9   3   37.88    1.22
   1  -9   4  365.07    6.96
   1  -9   5    9.89    0.64
   1  -9   6  122.94    2.96
   1  -9   7    4.64    0.57
   1  -9   8   61.49    1.73
   1  -9   9  150.71    3.40
   1  -9  10   15.14    0.82
   1  -9  11   12.16    0.79
   1  -9  12   80.77    2.21
   1  -9  13    2.23    0.60
   1  -9  14    4.57    0.72
   1  -9  15   10.77    0.75
   1  -9  16    0.82    0.59
   1  -9  17   56.44    1.77
   1  -9  18   10.08    0.82
   1  -9  19   14.26    1.00
   1  -9  20   14.86    0.88
   1  -9  21    6.22    0.85
   1  -9  22    2.65    0.75
   2  -9 -22   13.32    1.19
   2  -9 -21    1.97    0.53
   2  -9 -20    5.56    0.61
   2  -9 -19   23.59    0.96
   2  -9 -18    4.38    0.55
   2  -9 -17    9.57    0.61
   2  -9 -16   16.04    0.69
   2  -9 -15    0.57    0.34
   2  -9 -14   57.26    1.45
   2  -9 -13   26.04    0.83
   2  -9 -12    3.89    0.43
   2  -9 -11   70.79    1.77
   2  -9 -10  145.69    2.95
   2  -9  -9   39.82    1.19
   2  -9  -8   39.29    1.13
   2  -9  -7   53.96    1.45
   2  -9  -6  249.14    5.22
   2  -9  -5    9.69    0.54
   2  -9  -4   68.63    1.68
   2  -9  -3    3.91    0.43
   2  -9  -2   56.49    1.37
   2  -9  -1   29.33    1.05
   2  -9   0 1100.35   19.20
   2  -9   1    5.55    0.52
   2  -9   2  406.87    7.90
   2  -9   3   50.69    1.53
   2  -9   4  103.11    2.48
   2  -9   5  114.73    2.90
   2  -9   6  127.95    3.05
   2  -9   7    0.49    0.50
   2  -9   8   55.19    1.59
   2  -9   9   17.48    0.86
   2  -9  10    0.03    0.56
   2  -9  11  153.20    3.40
   2  -9  12  112.15    2.82
   2  -9  13   11.29    0.78
   2  -9  14   37.93    1.47
   2  -9  15   12.91    0.78
   2  -9  16    4.40    0.77
   2  -9  17    0.08    0.83
   2  -9  18   19.44    0.95
   2  -9  19   21.95    1.18
   2  -9  20   14.03    0.83
   2  -9  21   14.13    0.82
   3  -9 -22    2.76    0.69
   3  -9 -21    7.90    0.81
   3  -9 -20    8.24    0.65
   3  -9 -19    0.46    0.57
   3  -9 -18   17.86    0.81
   3  -9 -17   15.77    0.74
   3  -9 -16   19.53    0.84
   3  -9 -15   62.94    1.72
   3  -9 -14    7.70    0.52
   3  -9 -13   20.82    0.78
   3  -9 -12   21.37    0.87
   3  -9 -11   55.11    1.58
   3  -9 -10   33.81    0.99
   3  -9  -9   13.46    0.59
   3  -9  -8   31.67    1.21
   3  -9  -7   53.05    1.52
   3  -9  -6  130.33    3.13
   3  -9  -5    1.03    0.47
   3  -9  -4  197.33    4.20
   3  -9  -3   66.85    1.74
   3  -9  -2  131.61    3.07
   3  -9  -1   18.04    0.82
   3  -9   0   20.82    0.83
   3  -9   1   30.00    1.18
   3  -9   2   33.68    1.03
   3  -9   3  332.52    6.75
   3  -9   4    0.61    0.51
   3  -9   5   11.62    0.69
   3  -9   6    9.45    0.64
   3  -9   7   10.27    0.77
   3  -9   8  241.44    5.48
   3  -9   9   41.35    1.34
   3  -9  10   41.47    1.37
   3  -9  11   59.74    1.81
   3  -9  12    6.35    0.72
   3  -9  13   59.57    1.97
   3  -9  14    5.77    0.87
   3  -9  15    1.20    0.69
   3  -9  16    9.38    0.82
   3  -9  17   37.74    1.36
   3  -9  18    0.95    0.60
   3  -9  19    1.52    0.60
   3  -9  20    6.92    0.83
   3  -9  21    2.07    0.77
   4  -9 -22   11.56    0.84
   4  -9 -21    0.65    0.58
   4  -9 -20    8.55    0.72
   4  -9 -19    3.40    0.55
   4  -9 -18   36.54    1.18
   4  -9 -17   30.01    1.00
   4  -9 -16   33.75    1.18
   4  -9 -15   14.51    0.74
   4  -9 -14   89.00    2.24
   4  -9 -13   34.47    1.04
   4  -9 -12   89.60    2.09
   4  -9 -11   65.65    1.83
   4  -9 -10   59.33    1.53
   4  -9  -9   13.76    0.59
   4  -9  -8    3.78    0.50
   4  -9  -7   62.98    1.75
   4  -9  -6  195.38    4.12
   4  -9  -5   71.54    1.79
   4  -9  -4    6.58    0.56
   4  -9  -3   23.23    0.84
   4  -9  -2  212.76    4.39
   4  -9  -1    0.36    0.53
   4  -9   0  148.58    3.24
   4  -9   1   69.56    1.76
   4  -9   2  165.67    3.71
   4  -9   3    4.90    0.54
   4  -9   4  287.50    6.01
   4  -9   5   -0.13    0.56
   4  -9   6   39.80    1.33
   4  -9   7    2.49    0.56
   4  -9   8   87.94    2.27
   4  -9   9    4.00    0.66
   4  -9  10   58.27    1.61
   4  -9  11   56.19    1.79
   4  -9  12   69.36    1.90
   4  -9  13    0.82    0.57
   4  -9  14    9.90    0.73
   4  -9  15    3.69    0.72
   4  -9  16   66.64    1.86
   4  -9  17    6.20    0.72
   4  -9  18   15.61    1.20
   4  -9  19    1.66    0.61
   4  -9  20    5.18    0.68
   4  -9  21    7.97    1.76
   5  -9 -22    0.49    0.63
   5  -9 -21    6.49    0.72
   5  -9 -20   -0.15    0.62
   5  -9 -19   35.88    1.21
   5  -9 -18   16.41    0.88
   5  -9 -17    9.21    0.67
   5  -9 -16    0.20    0.51
   5  -9 -15   61.72    1.68
   5  -9 -14    6.78    0.58
   5  -9 -13    7.42    0.58
   5  -9 -12   10.03    0.65
   5  -9 -11  150.46    2.98
   5  -9 -10   17.08    0.71
   5  -9  -9    0.41    0.38
   5  -9  -8   10.69    0.60
   5  -9  -7   37.16    1.17
   5  -9  -6    4.43    0.46
   5  -9  -5   67.13    1.73
   5  -9  -4  304.95    5.95
   5  -9  -3    5.64    0.61
   5  -9  -2   91.31    2.27
   5  -9  -1   34.30    1.31
   5  -9   0   12.37    0.69
   5  -9   1    1.63    0.52
   5  -9   2   60.80    1.65
   5  -9   3   12.87    0.80
   5  -9   4  152.19    3.53
   5  -9   5    0.12    0.65
   5  -9   6  119.46    3.05
   5  -9   7   93.08    2.31
   5  -9   8    0.76    0.56
   5  -9   9    6.15    0.69
   5  -9  10    2.93    0.69
   5  -9  11   17.09    0.90
   5  -9  12   24.84    1.12
   5  -9  13    0.47    0.56
   5  -9  14    8.28    0.72
   5  -9  15   38.39    1.37
   5  -9  16    9.25    0.84
   5  -9  17   20.60    1.02
   5  -9  18    2.80    0.66
   5  -9  19    0.70    0.68
   5  -9  20    3.04    0.65
   6  -9 -22    4.85    0.91
   6  -9 -21    2.02    0.62
   6  -9 -20   -0.17    0.61
   6  -9 -19   20.21    1.00
   6  -9 -18    2.96    0.52
   6  -9 -17    0.34    0.59
   6  -9 -16   46.41    1.38
   6  -9 -15   12.25    0.76
   6  -9 -14    2.66    0.55
   6  -9 -13   21.83    0.85
   6  -9 -12    2.99    0.52
   6  -9 -11  102.48    2.38
   6  -9 -10   62.76    1.63
   6  -9  -9   65.45    1.78
   6  -9  -8  108.38    2.70
   6  -9  -7   47.98    1.49
   6  -9  -6    0.93    0.55
   6  -9  -5   32.29    1.14
   6  -9  -4    0.93    0.51
   6  -9  -3   66.97    1.96
   6  -9  -2   66.37    1.76
   6  -9  -1    3.43    0.59
   6  -9   0    2.30    0.58
   6  -9   1   29.84    1.10
   6  -9   2    1.15    0.56
   6  -9   3  185.62    4.18
   6  -9   4   88.85    2.21
   6  -9   5    0.22    0.55
   6  -9   6  129.37    3.13
   6  -9   7    4.85    0.71
   6  -9   8    2.54    0.76
   6  -9   9   24.32    0.97
   6  -9  10   16.29    0.84
   6  -9  11   27.99    1.19
   6  -9  12  115.11    3.09
   6  -9  13   35.72    1.41
   6  -9  14   30.56    1.21
   6  -9  15    0.14    0.55
   6  -9  16    3.63    0.60
   6  -9  17    3.40    0.68
   6  -9  18   11.11    0.80
   6  -9  19    1.18    0.59
   7  -9 -22   10.69    0.90
   7  -9 -21    3.12    0.75
   7  -9 -20    2.13    0.72
   7  -9 -19    1.34    0.59
   7  -9 -18    2.59    0.66
   7  -9 -17  108.59    2.42
   7  -9 -16   11.26    0.69
   7  -9 -15   11.60    0.69
   7  -9 -14   16.46    0.85
   7  -9 -13   89.87    2.33
   7  -9 -12   44.85    1.38
   7  -9 -11   62.98    1.60
   7  -9 -10   17.03    0.86
   7  -9  -9   57.48    2.18
   7  -9  -8    7.41    0.60
   7  -9  -7    3.19    0.53
   7  -9  -6   28.62    1.07
   7  -9  -5    1.77    0.48
   7  -9  -4    0.61    0.52
   7  -9  -3  113.70    2.89
   7  -9  -2   15.75    0.74
   7  -9  -1   14.76    0.88
   7  -9   0   14.12    0.80
   7  -9   1    0.81    0.57
   7  -9   2   19.97    1.05
   7  -9   3  291.93    6.30
   7  -9   4   19.04    0.87
   7  -9   5  122.33    3.05
   7  -9   6   22.73    0.98
   7  -9   7    0.45    0.55
   7  -9   8   12.52    0.84
   7  -9   9    2.35    0.65
   7  -9  10    0.64    0.68
   7  -9  11   66.61    1.87
   7  -9  12    1.64    0.70
   7  -9  13    0.47    0.72
   7  -9  14    4.13    0.69
   7  -9  15    4.78    0.73
   7  -9  16    0.99    0.61
   7  -9  17    3.57    0.62
   7  -9  18    0.33    0.63
   7  -9  19   15.58    1.16
   8  -9 -22    1.22    0.90
   8  -9 -21    5.23    0.91
   8  -9 -20    3.43    0.72
   8  -9 -19   -0.08    0.60
   8  -9 -18   24.26    1.06
   8  -9 -17    1.89    0.56
   8  -9 -16    0.57    0.67
   8  -9 -15   19.41    0.91
   8  -9 -14    0.51    0.51
   8  -9 -13   81.18    2.17
   8  -9 -12  122.85    2.85
   8  -9 -11   14.88    0.77
   8  -9 -10   57.24    1.79
   8  -9  -9   83.65    2.08
   8  -9  -8   63.08    1.84
   8  -9  -7   32.74    1.16
   8  -9  -6   31.81    1.19
   8  -9  -5   29.45    1.11
   8  -9  -4  123.47    2.85
   8  -9  -3  100.73    2.72
   8  -9  -2    8.70    0.83
   8  -9  -1  146.90    3.51
   8  -9   0    7.87    0.84
   8  -9   1   66.91    2.06
   8  -9   2  571.80   10.68
   8  -9   3    2.17    0.59
   8  -9   4   18.57    1.00
   8  -9   5    2.06    0.63
   8  -9   6    2.41    0.61
   8  -9   7    0.79    0.55
   8  -9   8   13.61    0.80
   8  -9   9   20.76    0.98
   8  -9  10  100.18    2.46
   8  -9  11   28.54    1.27
   8  -9  12   30.28    1.23
   8  -9  13    2.24    0.72
   8  -9  14   34.19    1.39
   8  -9  15    2.06    0.74
   8  -9  16    8.57    0.86
   8  -9  17    0.33    0.88
   8  -9  18   30.02    1.34
   9  -9 -21    7.20    0.81
   9  -9 -20    0.20    0.63
   9  -9 -19   47.36    1.58
   9  -9 -18   16.22    0.91
   9  -9 -17    2.12    0.66
   9  -9 -16    3.44    0.56
   9  -9 -15    1.07    0.61
   9  -9 -14    5.42    0.63
   9  -9 -13  164.06    3.56
   9  -9 -12    0.24    0.70
   9  -9 -11    6.88    0.56
   9  -9 -10    8.95    0.70
   9  -9  -9    1.76    0.59
   9  -9  -8   19.66    0.90
   9  -9  -7   36.85    1.32
   9  -9  -6    3.25    0.54
   9  -9  -5   38.68    1.44
   9  -9  -4   77.76    2.06
   9  -9  -3   15.76    0.89
   9  -9  -2  240.97    5.13
   9  -9  -1   41.46    1.36
   9  -9   0   30.33    1.17
   9  -9   1  174.11    3.92
   9  -9   2    0.99    0.67
   9  -9   3    1.72    0.58
   9  -9   4   43.52    1.48
   9  -9   5  194.37    4.88
   9  -9   6   53.63    1.64
   9  -9   7    4.87    0.88
   9  -9   8    1.10    0.69
   9  -9   9    0.51    0.61
   9  -9  10   60.59    2.05
   9  -9  11    9.49    0.78
   9  -9  12    6.52    0.73
   9  -9  13    0.57    0.59
   9  -9  14    4.48    0.91
   9  -9  15    0.97    0.89
   9  -9  16    1.22    0.72
   9  -9  17    0.11    0.64
  10  -9 -21    0.68    0.69
  10  -9 -20   -0.05    0.63
  10  -9 -19    0.29    0.60
  10  -9 -18   29.97    1.25
  10  -9 -17    1.98    0.83
  10  -9 -16   14.38    0.89
  10  -9 -15    4.10    0.62
  10  -9 -14   63.53    1.91
  10  -9 -13    1.14    0.62
  10  -9 -12   68.76    1.84
  10  -9 -11    0.30    0.49
  10  -9 -10   50.03    1.67
  10  -9  -9   26.29    1.13
  10  -9  -8   17.68    0.81
  10  -9  -7   37.73    1.25
  10  -9  -6    4.01    0.83
  10  -9  -5    3.24    0.68
  10  -9  -4   42.65    1.47
  10  -9  -3   11.71    0.73
  10  -9  -2   88.60    2.38
  10  -9  -1    0.39    0.57
  10  -9   0  184.00    3.66
  10  -9   1   12.99    0.83
  10  -9   2   39.87    1.43
  10  -9   3   -0.35    0.65
  10  -9   4   85.27    2.18
  10  -9   5   29.67    1.23
  10  -9   6   23.65    0.96
  10  -9   7   63.27    1.96
  10  -9   8    3.43    0.64
  10  -9   9   35.86    1.18
  10  -9  10   40.79    1.42
  10  -9  11    5.66    0.83
  10  -9  12   44.49    1.62
  10  -9  13   19.02    0.90
  10  -9  14   10.99    0.78
  10  -9  15   21.88    1.00
  10  -9  16   -0.11    0.69
  11  -9 -20    3.39    0.83
  11  -9 -19    9.18    0.90
  11  -9 -18    3.28    0.70
  11  -9 -17   22.64    0.94
  11  -9 -16    6.61    0.62
  11  -9 -15    8.58    0.99
  11  -9 -14    3.43    0.62
  11  -9 -13    1.45    0.58
  11  -9 -12   27.12    1.00
  11  -9 -11    7.01    0.67
  11  -9 -10   38.60    1.41
  11  -9  -9   14.40    0.88
  11  -9  -8   39.80    1.39
  11  -9  -7   21.89    0.94
  11  -9  -6   35.38    1.45
  11  -9  -5    1.19    0.57
  11  -9  -4   37.70    1.29
  11  -9  -3   79.58    2.05
  11  -9  -2    6.11    0.69
  11  -9  -1   37.43    1.36
  11  -9   0  150.30    3.35
  11  -9   1    0.87    0.74
  11  -9   2    0.28    0.75
  11  -9   3  118.21    2.97
  11  -9   4    1.74    0.66
  11  -9   5   -0.28    0.65
  11  -9   6   25.64    1.09
  11  -9   7   16.01    0.88
  11  -9   8    0.33    0.58
  11  -9   9   70.84    2.17
  11  -9  10    0.80    0.84
  11  -9  11   28.23    1.07
  11  -9  12   -0.27    0.62
  11  -9  13    0.34    0.65
  11  -9  14   15.48    0.86
  11  -9  15    4.37    0.75
  11  -9  16    1.95    1.25
  12  -9 -20    9.64    0.93
  12  -9 -19    8.62    0.78
  12  -9 -18    3.57    0.71
  12  -9 -17    0.60    0.76
  12  -9 -16    3.98    0.95
  12  -9 -15    1.19    0.57
  12  -9 -14   33.92    1.28
  12  -9 -13   -0.18    0.62
  12  -9 -12    3.66    0.67
  12  -9 -11   11.83    0.87
  12  -9 -10    3.81    0.67
  12  -9  -9   45.03    1.69
  12  -9  -8   23.00    1.18
  12  -9  -7   78.35    2.10
  12  -9  -6   74.90    1.92
  12  -9  -5    2.91    0.76
  12  -9  -4   -0.04    0.59
  12  -9  -3    3.58    0.70
  12  -9  -2    3.24    0.83
  12  -9  -1    1.18    0.81
  12  -9   0   91.69    2.49
  12  -9   1    2.74    0.69
  12  -9   2   64.74    1.82
  12  -9   3   53.20    1.70
  12  -9   4    0.38    0.63
  12  -9   5    2.58    0.74
  12  -9   6    2.84    0.71
  12  -9   7    3.62    0.70
  12  -9   8   74.86    1.99
  12  -9   9    3.99    0.70
  12  -9  10   14.88    0.87
  12  -9  11   62.29    1.74
  12  -9  12    5.13    0.85
  12  -9  13   14.76    0.94
  12  -9  14   17.97    1.20
  13  -9 -19    2.99    0.74
  13  -9 -18    3.68    0.79
  13  -9 -17    1.82    0.75
  13  -9 -16   -0.08    0.64
  13  -9 -15   23.46    1.13
  13  -9 -14    5.71    0.75
  13  -9 -13    3.21    0.67
  13  -9 -12    1.90    0.66
  13  -9 -11    3.64    0.67
  13  -9 -10    2.54    0.70
  13  -9  -9   10.61    0.86
  13  -9  -8   18.88    1.10
  13  -9  -7   73.78    1.99
  13  -9  -6    5.72    0.74
  13  -9  -5    0.02    0.73
  13  -9  -4    4.73    0.72
  13  -9  -3   37.90    1.50
  13  -9  -2   29.87    1.16
  13  -9  -1   73.32    2.08
  13  -9   0   42.20    1.57
  13  -9   1    6.13    0.77
  13  -9   2   72.18    1.86
  13  -9   3    5.58    0.71
  13  -9   4    0.77    0.64
  13  -9   5   29.92    1.34
  13  -9   6   13.26    0.97
  13  -9   7   64.18    1.95
  13  -9   8   24.02    1.07
  13  -9   9    0.60    0.64
  13  -9  10   45.34    1.40
  13  -9  11    0.51    0.74
  13  -9  12    9.85    0.90
  13  -9  13    5.78    0.87
  14  -9 -18    4.97    0.79
  14  -9 -17    1.60    0.69
  14  -9 -16   35.71    1.35
  14  -9 -15    1.59    0.69
  14  -9 -14    4.04    0.64
  14  -9 -13    0.74    0.61
  14  -9 -12    1.24    0.71
  14  -9 -11   40.01    1.33
  14  -9 -10   23.76    1.14
  14  -9  -9   11.48    0.83
  14  -9  -8    4.92    0.76
  14  -9  -7   19.84    1.00
  14  -9  -6   13.30    0.95
  14  -9  -5   38.87    1.36
  14  -9  -4   37.51    1.37
  14  -9  -3    5.17    0.81
  14  -9  -2    1.79    0.63
  14  -9  -1   23.07    1.08
  14  -9   0   10.28    1.01
  14  -9   1   23.87    1.11
  14  -9   2   21.39    1.01
  14  -9   3   20.60    1.07
  14  -9   4   74.59    2.08
  14  -9   5   -0.70    0.87
  14  -9   6    0.92    0.66
  14  -9   7   26.17    1.12
  14  -9   8    3.70    0.67
  14  -9   9   27.31    1.17
  14  -9  10   13.57    0.92
  14  -9  11    9.58    1.03
  14  -9  12    1.35    0.72
  15  -9 -17   34.11    1.13
  15  -9 -16    3.29    0.78
  15  -9 -15   -0.03    0.67
  15  -9 -14    0.60    0.64
  15  -9 -13   21.46    1.11
  15  -9 -12    5.18    0.72
  15  -9 -11   24.06    1.13
  15  -9 -10   -0.09    0.62
  15  -9  -9    0.20    0.72
  15  -9  -8    8.95    0.83
  15  -9  -7   47.59    1.83
  15  -9  -6   26.01    1.27
  15  -9  -5   61.78    1.67
  15  -9  -4    8.15    0.96
  15  -9  -3   43.40    1.39
  15  -9  -2   12.48    0.92
  15  -9  -1    0.87    0.64
  15  -9   0   14.70    1.04
  15  -9   1    6.59    0.86
  15  -9   2    0.68    0.63
  15  -9   3   68.60    1.88
  15  -9   4    0.77    0.83
  15  -9   5    2.59    0.90
  15  -9   6   13.75    0.86
  15  -9   7   26.89    1.12
  15  -9   8    1.77    0.64
  15  -9   9    7.59    0.78
  15  -9  10    0.94    0.76
  16  -9 -16   10.63    1.19
  16  -9 -15    0.14    0.65
  16  -9 -14    0.22    0.75
  16  -9 -13    3.46    0.70
  16  -9 -12   58.84    1.75
  16  -9 -11    6.14    0.70
  16  -9 -10   11.47    0.87
  16  -9  -9   23.44    1.18
  16  -9  -8    9.92    0.83
  16  -9  -7    2.95    0.73
  16  -9  -6   17.82    1.02
  16  -9  -5    2.06    0.68
  16  -9  -4    4.08    0.81
  16  -9  -3   17.52    1.09
  16  -9  -2    8.42    0.78
  16  -9  -1    5.75    0.88
  16  -9   0   30.59    1.32
  16  -9   1   14.55    0.93
  16  -9   2   11.83    0.88
  16  -9   3    7.63    0.82
  16  -9   4   10.88    0.96
  16  -9   5    4.43    0.79
  16  -9   6   11.84    0.88
  16  -9   7    1.97    0.79
  16  -9   8    6.41    0.77
  16  -9   9    2.33    0.86
  17  -9 -14   -0.50    0.72
  17  -9 -13   15.39    1.02
  17  -9 -12    2.12    0.69
  17  -9 -11    0.11    0.69
  17  -9 -10    3.62    0.97
  17  -9  -9    8.31    0.89
  17  -9  -8    0.73    0.80
  17  -9  -7    7.91    0.81
  17  -9  -6    2.32    0.83
  17  -9  -5    2.61    0.80
  17  -9  -4   21.86    1.11
  17  -9  -3   -0.08    0.80
  17  -9  -2   -0.27    0.68
  17  -9  -1   33.00    1.37
  17  -9   0   28.77    1.35
  17  -9   1    6.15    0.89
  17  -9   2   23.06    1.11
  17  -9   3    0.82    0.62
  17  -9   4    6.67    0.84
  17  -9   5   -0.24    0.81
  17  -9   6    3.39    0.72
  17  -9   7    2.58    1.54
  18  -9 -12    4.52    1.06
  18  -9 -11    2.72    1.11
  18  -9 -10   11.71    0.91
  18  -9  -9    1.46    0.85
  18  -9  -8    5.50    0.71
  18  -9  -7    8.69    1.00
  18  -9  -6    1.34    0.66
  18  -9  -5   11.58    1.03
  18  -9  -4   22.36    1.06
  18  -9  -3    3.28    0.74
  18  -9  -2   15.74    1.15
  18  -9  -1   17.29    0.91
  18  -9   0    0.86    0.66
  18  -9   1   10.98    1.00
  18  -9   2   28.85    1.21
  18  -9   3    6.14    0.79
  18  -9   4   20.09    1.01
  19  -9  -8   13.67    0.90
  19  -9  -7    0.53    0.61
  19  -9  -6    0.17    0.76
  19  -9  -5   16.81    1.03
  19  -9  -4    2.49    0.75
  19  -9  -3    6.28    0.94
  19  -9  -2    3.62    0.80
  19  -9  -1    1.04    0.95
  19  -9   0    1.03    0.72
 -18 -10  -2    1.78    0.91
 -18 -10  -1    0.14    0.65
 -18 -10   0    0.51    0.86
 -18 -10   1    1.66    0.82
 -18 -10   2    2.27    0.74
 -18 -10   3   14.97    0.92
 -18 -10   4    5.69    0.73
 -18 -10   5    3.56    0.68
 -18 -10   6    0.47    0.86
 -18 -10   7    1.66    0.72
 -18 -10   8    1.18    0.63
 -18 -10   9    9.94    0.96
 -18 -10  10    2.21    0.94
 -17 -10  -5   -0.30    0.78
 -17 -10  -4    9.32    0.96
 -17 -10  -3    7.01    0.91
 -17 -10  -2    3.39    0.79
 -17 -10  -1    5.65    0.80
 -17 -10   0    7.26    0.86
 -17 -10   1   -0.49    0.70
 -17 -10   2    6.68    0.75
 -17 -10   3    8.42    0.77
 -17 -10   4    1.37    0.58
 -17 -10   5    2.88    0.70
 -17 -10   6    1.09    0.66
 -17 -10   7    0.72    0.68
 -17 -10   8    0.30    0.70
 -17 -10   9    1.11    0.73
 -17 -10  10    0.80    0.70
 -17 -10  11    0.14    0.65
 -17 -10  12   -0.08    0.82
 -17 -10  13    4.15    0.77
 -16 -10  -7   32.38    1.53
 -16 -10  -6    0.18    0.61
 -16 -10  -5   16.28    1.06
 -16 -10  -4    6.06    0.74
 -16 -10  -3    7.66    0.93
 -16 -10  -2   13.42    0.94
 -16 -10  -1   18.32    0.98
 -16 -10   0    0.60    0.68
 -16 -10   1   18.64    0.93
 -16 -10   2    5.90    0.73
 -16 -10   3    2.79    0.67
 -16 -10   4    7.12    0.82
 -16 -10   5    3.93    0.79
 -16 -10   6    4.31    0.68
 -16 -10   7   23.85    1.03
 -16 -10   8    3.21    0.90
 -16 -10   9    1.00    0.68
 -16 -10  10    3.84    0.81
 -16 -10  11    0.18    0.82
 -16 -10  12    8.34    0.93
 -16 -10  13    2.05    0.62
 -16 -10  14    1.33    0.73
 -16 -10  15    4.50    1.16
 -15 -10  -8    5.50    0.55
 -15 -10  -7    2.31    0.61
 -15 -10  -6   -0.58    0.49
 -15 -10  -5    9.51    0.84
 -15 -10  -4   69.36    2.01
 -15 -10  -3   15.47    0.86
 -15 -10  -2   52.21    1.63
 -15 -10  -1    0.04    0.55
 -15 -10   0   15.90    0.86
 -15 -10   1    0.60    0.54
 -15 -10   2   22.11    1.01
 -15 -10   3   10.28    0.97
 -15 -10   4    8.33    0.92
 -15 -10   5    0.33    0.65
 -15 -10   6   59.67    1.76
 -15 -10   7    6.36    0.91
 -15 -10   8    0.83    0.62
 -15 -10   9    1.05    0.71
 -15 -10  10    0.85    0.67
 -15 -10  11   -0.14    0.59
 -15 -10  12   21.50    1.15
 -15 -10  13    1.03    0.80
 -15 -10  14   14.54    0.99
 -15 -10  15    5.37    0.93
 -15 -10  16    3.17    0.79
 -14 -10  -8    0.08    0.41
 -14 -10  -7   16.86    0.91
 -14 -10  -6    2.99    0.49
 -14 -10  -5   61.03    1.86
 -14 -10  -4    0.36    0.46
 -14 -10  -3   82.87    2.30
 -14 -10  -2    0.50    0.56
 -14 -10  -1    1.26    0.53
 -14 -10   0    2.18    0.57
 -14 -10   1   33.31    1.26
 -14 -10   2    0.41    0.69
 -14 -10   3   42.37    1.36
 -14 -10   4   13.10    0.75
 -14 -10   5   27.54    1.12
 -14 -10   6    7.05    0.93
 -14 -10   7    9.61    0.84
 -14 -10   8    0.03    0.56
 -14 -10   9   23.11    1.30
 -14 -10  10    1.55    0.59
 -14 -10  11   47.55    1.54
 -14 -10  12   18.76    1.06
 -14 -10  13    0.58    0.66
 -14 -10  14    0.50    0.76
 -14 -10  15    7.66    0.92
 -14 -10  16   -0.23    0.78
 -14 -10  17   32.21    1.23
 -13 -10  -7    5.71    0.44
 -13 -10  -6   30.32    1.11
 -13 -10  -5    2.74    0.46
 -13 -10  -4   19.03    0.84
 -13 -10  -3    4.83    0.48
 -13 -10  -2   23.72    0.84
 -13 -10  -1   11.80    0.74
 -13 -10   0   79.79    2.15
 -13 -10   1    0.87    0.58
 -13 -10   2   25.44    0.96
 -13 -10   3   14.75    0.80
 -13 -10   4   13.57    0.85
 -13 -10   5   18.49    0.92
 -13 -10   6   82.32    2.09
 -13 -10   7    1.64    0.65
 -13 -10   8   23.26    1.11
 -13 -10   9    2.75    0.65
 -13 -10  10   34.41    1.24
 -13 -10  11   19.73    1.07
 -13 -10  12    0.06    0.62
 -13 -10  13    0.42    0.78
 -13 -10  14   62.76    1.79
 -13 -10  15    0.00    0.76
 -13 -10  16   30.74    1.24
 -13 -10  17   -0.32    0.65
 -13 -10  18    1.64    0.74
 -12 -10  -7    0.08    0.20
 -12 -10  -6   13.06    0.65
 -12 -10  -5    1.24    0.40
 -12 -10  -4   76.58    2.07
 -12 -10  -3    3.91    0.52
 -12 -10  -2    0.13    0.49
 -12 -10  -1   37.63    1.35
 -12 -10   0   12.53    0.78
 -12 -10   1   58.83    1.75
 -12 -10   2   84.71    2.32
 -12 -10   3    3.75    0.58
 -12 -10   4    3.23    0.61
 -12 -10   5   61.61    1.68
 -12 -10   6    1.56    0.80
 -12 -10   7   24.59    0.98
 -12 -10   8    7.29    0.73
 -12 -10   9    0.96    0.69
 -12 -10  10   21.46    1.12
 -12 -10  11   11.09    0.81
 -12 -10  12    0.20    0.75
 -12 -10  13   89.42    2.16
 -12 -10  14    0.97    0.82
 -12 -10  15   18.73    1.01
 -12 -10  16    7.58    0.78
 -12 -10  17    1.08    0.78
 -12 -10  18   -0.24    0.66
 -12 -10  19   11.06    1.00
 -11 -10  -6   11.65    0.59
 -11 -10  -5    8.70    0.49
 -11 -10  -4   10.04    0.56
 -11 -10  -3    0.16    0.41
 -11 -10  -2  154.12    3.16
 -11 -10  -1    3.65    0.56
 -11 -10   0   15.90    0.85
 -11 -10   1   40.34    1.25
 -11 -10   2    1.44    0.54
 -11 -10   3   37.42    1.31
 -11 -10   4    4.52    0.57
 -11 -10   5   15.38    0.83
 -11 -10   6   24.70    0.96
 -11 -10   7   20.51    1.14
 -11 -10   8   -0.43    0.53
 -11 -10   9    1.17    0.63
 -11 -10  10    0.83    0.71
 -11 -10  11    0.31    0.53
 -11 -10  12   10.08    0.86
 -11 -10  13    0.43    0.88
 -11 -10  14   -0.08    0.62
 -11 -10  15    0.82    0.66
 -11 -10  16    1.97    0.64
 -11 -10  17    0.66    0.64
 -11 -10  18   24.64    1.18
 -11 -10  19   -0.31    0.65
 -11 -10  20    0.76    0.93
 -10 -10  -6    1.65    0.30
 -10 -10  -5    0.51    0.27
 -10 -10  -4   28.07    0.92
 -10 -10  -3   18.54    0.78
 -10 -10  -2   18.43    0.80
 -10 -10  -1    0.89    0.42
 -10 -10   0  107.34    2.44
 -10 -10   1   23.86    1.00
 -10 -10   2    4.36    0.55
 -10 -10   3    4.44    0.52
 -10 -10   4    4.63    0.58
 -10 -10   5   20.80    0.96
 -10 -10   6    2.52    0.60
 -10 -10   7    4.04    0.61
 -10 -10   8   -0.34    0.70
 -10 -10   9   96.93    2.43
 -10 -10  10    1.11    0.57
 -10 -10  11    5.24    0.87
 -10 -10  12    7.47    0.67
 -10 -10  13   10.03    0.85
 -10 -10  14    1.20    0.77
 -10 -10  15   66.11    1.79
 -10 -10  16    1.18    0.77
 -10 -10  17   12.60    0.84
 -10 -10  18    8.80    0.78
 -10 -10  19    0.37    0.69
 -10 -10  20    0.18    0.74
  -9 -10  -5   17.95    0.71
  -9 -10  -4    0.67    0.28
  -9 -10  -3    2.90    0.42
  -9 -10  -2  199.78    4.11
  -9 -10  -1   59.14    1.63
  -9 -10   0  155.45    3.58
  -9 -10   1    6.06    0.55
  -9 -10   2   51.04    1.41
  -9 -10   3   31.55    1.16
  -9 -10   4    8.25    0.59
  -9 -10   5    5.30    0.62
  -9 -10   6    5.78    0.60
  -9 -10   7    5.17    0.59
  -9 -10   8    5.82    0.68
  -9 -10   9   45.86    1.59
  -9 -10  10   27.77    1.14
  -9 -10  11    1.59    0.63
  -9 -10  12   10.59    0.80
  -9 -10  13    0.72    0.66
  -9 -10  14   56.94    1.77
  -9 -10  15    3.54    0.71
  -9 -10  16   23.27    1.10
  -9 -10  17    1.37    0.74
  -9 -10  18   18.49    1.02
  -9 -10  19   -0.28    0.61
  -9 -10  20   14.82    1.09
  -9 -10  21    0.45    0.70
  -8 -10  -5   22.86    0.66
  -8 -10  -4    0.19    0.23
  -8 -10  -3  279.60    5.58
  -8 -10  -2   17.29    0.67
  -8 -10  -1  306.88    5.48
  -8 -10   0    0.15    0.40
  -8 -10   1   21.46    0.88
  -8 -10   2   19.19    0.80
  -8 -10   3  136.42    2.92
  -8 -10   4   26.05    1.05
  -8 -10   5   52.86    1.68
  -8 -10   6    5.41    0.57
  -8 -10   7  130.64    3.31
  -8 -10   8    8.43    0.71
  -8 -10   9   81.05    2.14
  -8 -10  10   16.84    0.88
  -8 -10  11    0.94    0.56
  -8 -10  12   -0.15    0.65
  -8 -10  13   28.29    1.15
  -8 -10  14   10.97    0.76
  -8 -10  15    3.50    0.73
  -8 -10  16    0.25    0.66
  -8 -10  17    4.75    0.71
  -8 -10  18    7.78    0.89
  -8 -10  19    3.47    0.77
  -8 -10  20   -0.01    0.95
  -8 -10  21    1.53    0.71
  -7 -10  -4  126.10    2.71
  -7 -10  -3   51.90    1.38
  -7 -10  -2   82.20    1.99
  -7 -10  -1    1.35    0.36
  -7 -10   0    7.65    0.53
  -7 -10   1    1.02    0.36
  -7 -10   2  235.13    5.11
  -7 -10   3    5.94    0.48
  -7 -10   4   38.47    1.13
  -7 -10   5   12.73    0.67
  -7 -10   6    0.73    0.44
  -7 -10   7    0.29    0.46
  -7 -10   8    2.71    0.64
  -7 -10   9    1.22    0.70
  -7 -10  10    4.60    0.68
  -7 -10  11    0.06    0.55
  -7 -10  12   48.63    1.52
  -7 -10  13   68.26    2.12
  -7 -10  14   96.26    2.80
  -7 -10  15    9.02    0.84
  -7 -10  16   86.37    2.25
  -7 -10  17    0.51    0.61
  -7 -10  18   58.56    1.64
  -7 -10  19    0.19    0.69
  -7 -10  20   -0.16    0.70
  -7 -10  21    1.59    0.80
  -6 -10  -4   23.59    0.81
  -6 -10  -3   11.02    0.52
  -6 -10  -2  142.75    3.12
  -6 -10  -1  156.22    3.55
  -6 -10   0   34.37    1.01
  -6 -10   1    3.37    0.51
  -6 -10   2    9.39    0.62
  -6 -10   3    8.08    0.65
  -6 -10   4   32.22    1.14
  -6 -10   5   83.83    2.38
  -6 -10   6   33.62    1.26
  -6 -10   7  159.33    3.45
  -6 -10   8   19.92    0.90
  -6 -10   9  172.15    3.93
  -6 -10  10   31.38    1.18
  -6 -10  11   36.05    1.20
  -6 -10  12   37.48    1.24
  -6 -10  13  222.68    4.30
  -6 -10  14   -0.16    0.64
  -6 -10  15  141.58    3.67
  -6 -10  16    4.54    0.79
  -6 -10  17  114.87    2.89
  -6 -10  18    3.37    0.65
  -6 -10  19    0.92    0.95
  -6 -10  20   -0.27    0.62
  -6 -10  21   15.15    0.98
  -5 -10  -4   16.19    0.60
  -5 -10  -3   59.68    1.58
  -5 -10  -2  263.87    5.28
  -5 -10  -1    0.42    0.29
  -5 -10   0  128.70    2.84
  -5 -10   1    0.00    0.40
  -5 -10   2   18.22    0.74
  -5 -10   3    2.01    0.48
  -5 -10   4   39.84    1.24
  -5 -10   5    2.33    0.52
  -5 -10   6   80.72    2.09
  -5 -10   7    1.09    0.55
  -5 -10   8   35.48    1.15
  -5 -10   9   18.95    0.86
  -5 -10  10   29.58    1.14
  -5 -10  11   53.17    1.67
  -5 -10  12   97.67    2.34
  -5 -10  13   19.07    1.00
  -5 -10  14   62.44    1.70
  -5 -10  15   43.96    1.43
  -5 -10  16   97.72    2.91
  -5 -10  17    0.19    0.62
  -5 -10  18   -0.04    0.59
  -5 -10  19    0.44    0.92
  -5 -10  20   21.33    1.09
  -5 -10  21    1.20    0.68
  -5 -10  22    1.09    0.94
  -4 -10  -4   25.56    0.75
  -4 -10  -3   40.37    1.13
  -4 -10  -2    0.18    0.26
  -4 -10  -1   57.90    1.54
  -4 -10   0    7.40    0.48
  -4 -10   1   12.64    0.60
  -4 -10   2   13.40    0.64
  -4 -10   3    0.64    0.40
  -4 -10   4   34.77    1.11
  -4 -10   5  108.03    2.81
  -4 -10   6   17.19    0.79
  -4 -10   7   10.63    0.72
  -4 -10   8   22.64    0.95
  -4 -10   9    2.43    0.53
  -4 -10  10   18.45    0.88
  -4 -10  11  147.26    3.14
  -4 -10  12   25.21    1.29
  -4 -10  13    7.80    0.79
  -4 -10  14   21.26    0.97
  -4 -10  15   12.30    0.79
  -4 -10  16    0.44    0.85
  -4 -10  17   88.35    2.29
  -4 -10  18    0.15    0.65
  -4 -10  19   38.53    1.39
  -4 -10  20    7.24    0.81
  -4 -10  21    2.88    0.71
  -4 -10  22    0.33    0.67
  -3 -10  -5    4.90    0.25
  -3 -10  -4   78.94    1.81
  -3 -10  -3    0.22    0.23
  -3 -10  -2   50.69    1.35
  -3 -10  -1    0.71    0.29
  -3 -10   0  123.15    2.59
  -3 -10   1   11.14    0.55
  -3 -10   2  146.28    3.33
  -3 -10   3    7.77    0.65
  -3 -10   4   40.44    1.27
  -3 -10   5   33.53    1.20
  -3 -10   6   47.58    1.47
  -3 -10   7   30.55    1.10
  -3 -10   8    8.64    0.74
  -3 -10   9   37.95    1.26
  -3 -10  10  165.42    3.89
  -3 -10  11    1.22    0.58
  -3 -10  12    0.14    0.70
  -3 -10  13    7.25    0.77
  -3 -10  14   88.00    2.33
  -3 -10  15   10.15    0.77
  -3 -10  16   86.82    2.59
  -3 -10  17    3.26    0.72
  -3 -10  18   18.17    0.98
  -3 -10  19    0.77    0.67
  -3 -10  20   17.70    1.10
  -3 -10  21    0.96    0.75
  -3 -10  22    2.74    0.64
  -2 -10  -6    3.75    0.26
  -2 -10  -5   99.44    2.28
  -2 -10  -4   11.72    0.52
  -2 -10  -3   27.04    0.87
  -2 -10  -2  101.33    2.35
  -2 -10  -1  116.48    2.56
  -2 -10   0   12.37    0.58
  -2 -10   1  203.10    4.34
  -2 -10   2    2.03    0.41
  -2 -10   3   74.84    1.92
  -2 -10   4   15.58    0.83
  -2 -10   5    7.90    0.72
  -2 -10   6    0.69    0.48
  -2 -10   7   56.82    1.72
  -2 -10   8   10.10    0.71
  -2 -10   9  408.34    7.88
  -2 -10  10   56.56    1.63
  -2 -10  11    9.87    0.77
  -2 -10  12   21.50    1.04
  -2 -10  13    9.84    0.74
  -2 -10  14    2.82    0.71
  -2 -10  15   32.39    1.37
  -2 -10  16    7.54    0.95
  -2 -10  17   -0.10    0.74
  -2 -10  18    0.66    0.62
  -2 -10  19   19.04    0.95
  -2 -10  20    2.78    0.75
  -2 -10  21    7.72    0.80
  -2 -10  22    2.40    0.74
  -1 -10  -7    0.49    0.15
  -1 -10  -6    2.46    0.25
  -1 -10  -5   72.15    1.72
  -1 -10  -4    2.91    0.32
  -1 -10  -3    0.41    0.30
  -1 -10  -2  107.76    2.46
  -1 -10  -1   21.67    0.71
  -1 -10   0   31.75    0.97
  -1 -10   1  227.60    4.53
  -1 -10   2    4.79    0.57
  -1 -10   3    8.67    0.56
  -1 -10   4  100.47    2.52
  -1 -10   5    7.80    0.58
  -1 -10   6   37.06    1.17
  -1 -10   7    0.04    0.70
  -1 -10   8  257.97    5.34
  -1 -10   9   36.55    1.26
  -1 -10  10    1.12    0.57
  -1 -10  11    4.81    0.58
  -1 -10  12   15.16    0.94
  -1 -10  13   13.01    0.82
  -1 -10  14    2.30    0.68
  -1 -10  15    0.56    0.61
  -1 -10  16   -0.61    0.80
  -1 -10  17   -0.02    0.63
  -1 -10  18   87.75    2.12
  -1 -10  19    3.50    0.69
  -1 -10  20   31.10    1.35
  -1 -10  21    0.09    0.57
   0 -10 -11  339.79    8.64
   0 -10 -10   12.44    0.47
   0 -10  -9   46.79    1.31
   0 -10  -8    9.45    0.43
   0 -10  -7    0.86    0.30
   0 -10  -6    4.19    0.35
   0 -10  -5   59.26    1.52
   0 -10  -4    2.48    0.35
   0 -10  -3  370.50    6.88
   0 -10  -2    3.20    0.38
   0 -10  -1   62.21    1.68
   0 -10   0  381.70    7.54
   0 -10   1   62.06    1.48
   0 -10   2    2.60    0.48
   0 -10   3  369.22    6.99
   0 -10   4    2.73    0.47
   0 -10   5   58.68    1.65
   0 -10   6    4.43    0.58
   0 -10   7    1.10    0.48
   0 -10   8    9.64    0.83
   0 -10   9   49.88    1.54
   0 -10  10   13.95    0.83
   0 -10  11  384.65    7.47
   0 -10  12    4.09    0.74
   0 -10  13   53.39    1.67
   0 -10  14    5.43    0.80
   0 -10  15    0.17    0.66
   0 -10  16   29.67    1.46
   0 -10  17  101.93    2.40
   0 -10  18    1.03    0.68
   0 -10  19   42.18    1.36
   0 -10  20   -0.31    0.85
   0 -10  21   -0.05    0.60
   1 -10 -21   -0.42    0.53
   1 -10 -20   18.23    0.90
   1 -10 -19    2.11    0.37
   1 -10 -18   70.26    1.62
   1 -10 -17   -0.18    0.32
   1 -10 -16    0.07    0.30
   1 -10 -15    0.71    0.29
   1 -10 -14    2.25    0.29
   1 -10 -13   10.87    0.48
   1 -10 -12   13.73    0.56
   1 -10 -11    4.82    0.35
   1 -10 -10    0.48    0.25
   1 -10  -9   36.59    1.03
   1 -10  -8  246.14    4.89
   1 -10  -7    0.58    0.27
   1 -10  -6   37.32    0.99
   1 -10  -5    6.99    0.41
   1 -10  -4   94.27    2.24
   1 -10  -3    7.69    0.50
   1 -10  -2    5.47    0.54
   1 -10  -1  232.22    4.53
   1 -10   0   34.11    1.00
   1 -10   1   20.70    0.86
   1 -10   2  111.99    2.67
   1 -10   3    0.22    0.49
   1 -10   4    2.88    0.53
   1 -10   5   71.19    1.83
   1 -10   6    1.85    0.50
   1 -10   7    0.26    0.57
   1 -10   8  115.37    2.82
   1 -10   9   16.85    0.89
   1 -10  10  191.24    4.17
   1 -10  11    8.75    0.78
   1 -10  12  150.01    3.51
   1 -10  13   18.45    1.27
   1 -10  14  134.59    3.76
   1 -10  15   11.04    0.94
   1 -10  16   92.30    2.54
   1 -10  17   35.10    1.24
   1 -10  18    9.75    0.82
   1 -10  19   -0.48    0.62
   1 -10  20    1.39    0.71
   1 -10  21    4.70    0.76
   2 -10 -21    8.04    0.64
   2 -10 -20    1.88    0.44
   2 -10 -19   15.96    0.78
   2 -10 -18    0.47    0.46
   2 -10 -17    0.22    0.41
   2 -10 -16    6.64    0.50
   2 -10 -15   27.02    0.95
   2 -10 -14    2.56    0.38
   2 -10 -13    9.48    0.57
   2 -10 -12   20.40    0.74
   2 -10 -11   10.07    0.52
   2 -10 -10   53.23    1.38
   2 -10  -9  390.13    7.12
   2 -10  -8   10.32    0.52
   2 -10  -7   53.96    1.66
   2 -10  -6    0.65    0.37
   2 -10  -5    7.43    0.51
   2 -10  -4   15.91    0.64
   2 -10  -3   70.47    1.87
   2 -10  -2    1.86    0.42
   2 -10  -1  210.52    4.31
   2 -10   0   11.53    0.67
   2 -10   1  117.09    2.62
   2 -10   2  102.71    2.49
   2 -10   3   26.19    0.99
   2 -10   4   11.63    0.67
   2 -10   5   98.16    2.36
   2 -10   6    3.00    0.63
   2 -10   7   73.15    1.91
   2 -10   8    0.89    0.56
   2 -10   9   55.69    1.69
   2 -10  10    0.13    0.53
   2 -10  11    0.12    0.57
   2 -10  12    1.07    0.69
   2 -10  13  415.12    7.74
   2 -10  14    0.83    0.65
   2 -10  15    3.06    0.63
   2 -10  16    1.92    0.59
   2 -10  17    1.04    0.63
   2 -10  18    1.40    0.63
   2 -10  19   43.83    1.54
   2 -10  20    1.62    0.80
   2 -10  21   31.60    1.26
   3 -10 -22    1.91    0.96
   3 -10 -21    0.36    0.59
   3 -10 -20   13.80    0.88
   3 -10 -19    0.91    0.56
   3 -10 -18   15.96    0.71
   3 -10 -17    2.67    0.51
   3 -10 -16   79.86    2.12
   3 -10 -15    8.46    0.58
   3 -10 -14   79.27    1.99
   3 -10 -13    6.76    0.53
   3 -10 -12    0.14    0.36
   3 -10 -11    2.56    0.47
   3 -10 -10  154.83    3.17
   3 -10  -9   34.99    1.07
   3 -10  -8    9.40    0.56
   3 -10  -7   29.04    0.99
   3 -10  -6   43.21    1.38
   3 -10  -5   33.23    1.06
   3 -10  -4   38.67    1.20
   3 -10  -3    9.05    0.67
   3 -10  -2  150.54    3.35
   3 -10  -1   11.29    0.66
   3 -10   0  126.15    2.78
   3 -10   1    0.37    0.45
   3 -10   2   53.53    1.59
   3 -10   3    0.31    0.56
   3 -10   4   81.06    2.04
   3 -10   5    5.29    0.59
   3 -10   6   72.90    2.05
   3 -10   7    2.06    0.57
   3 -10   8    9.34    0.70
   3 -10   9   17.41    0.93
   3 -10  10    1.00    0.56
   3 -10  11    0.54    0.56
   3 -10  12  179.62    4.00
   3 -10  13   49.56    1.60
   3 -10  14   48.49    1.65
   3 -10  15    0.12    0.52
   3 -10  16    0.37    0.57
   3 -10  17   11.24    0.90
   3 -10  18   63.93    1.84
   3 -10  19    2.92    0.64
   3 -10  20   21.17    1.54
   4 -10 -22    0.49    0.91
   4 -10 -21    1.72    0.61
   4 -10 -20    5.64    0.71
   4 -10 -19   34.74    1.20
   4 -10 -18    0.23    0.60
   4 -10 -17   78.11    2.26
   4 -10 -16    0.38    0.49
   4 -10 -15   11.14    0.69
   4 -10 -14   18.80    0.75
   4 -10 -13    7.58    0.52
   4 -10 -12   23.11    0.81
   4 -10 -11  142.58    3.29
   4 -10 -10   17.46    0.72
   4 -10  -9    2.21    0.38
   4 -10  -8   22.91    0.79
   4 -10  -7    9.51    0.55
   4 -10  -6   17.61    0.80
   4 -10  -5  102.24    2.75
   4 -10  -4   31.86    1.04
   4 -10  -3    1.21    0.46
   4 -10  -2   12.85    0.66
   4 -10  -1   14.65    0.75
   4 -10   0    7.45    0.60
   4 -10   1   59.15    1.71
   4 -10   2   -0.37    0.51
   4 -10   3   42.01    1.47
   4 -10   4   27.11    1.13
   4 -10   5    3.12    0.66
   4 -10   6   11.52    0.69
   4 -10   7    6.69    0.74
   4 -10   8    1.71    0.58
   4 -10   9   28.46    1.06
   4 -10  10    7.37    0.76
   4 -10  11   13.24    0.81
   4 -10  12   64.11    2.04
   4 -10  13    5.36    0.69
   4 -10  14    2.95    0.65
   4 -10  15    1.53    0.68
   4 -10  16   21.62    0.99
   4 -10  17   25.80    1.06
   4 -10  18   12.13    0.95
   4 -10  19    0.10    0.64
   4 -10  20    1.00    0.74
   5 -10 -22    0.29    1.14
   5 -10 -21    0.89    0.64
   5 -10 -20   18.10    1.05
   5 -10 -19    0.75    0.50
   5 -10 -18    0.17    0.60
   5 -10 -17    0.26    0.51
   5 -10 -16   92.18    2.13
   5 -10 -15   38.53    1.23
   5 -10 -14   56.69    1.65
   5 -10 -13   17.92    0.80
   5 -10 -12   89.38    2.21
   5 -10 -11   50.57    1.41
   5 -10 -10   28.34    1.00
   5 -10  -9   17.86    0.79
   5 -10  -8   34.02    1.16
   5 -10  -7    1.41    0.48
   5 -10  -6   79.46    2.00
   5 -10  -5    2.45    0.49
   5 -10  -4   38.66    1.14
   5 -10  -3    2.73    0.53
   5 -10  -2   19.10    0.82
   5 -10  -1   -0.19    0.53
   5 -10   0  129.24    3.16
   5 -10   1   -0.04    0.50
   5 -10   2  270.95    5.90
   5 -10   3   62.56    1.83
   5 -10   4   16.59    0.94
   5 -10   5    2.86    0.54
   5 -10   6   45.92    1.45
   5 -10   7    6.86    0.66
   5 -10   8   60.07    1.95
   5 -10   9    4.48    0.77
   5 -10  10   14.74    0.96
   5 -10  11   19.22    0.99
   5 -10  12    1.22    0.57
   5 -10  13    7.62    0.81
   5 -10  14   13.71    0.77
   5 -10  15    7.05    0.75
   5 -10  16    2.80    0.73
   5 -10  17   12.70    0.89
   5 -10  18    3.11    0.64
   5 -10  19    7.86    0.96
   6 -10 -21   14.07    0.93
   6 -10 -20    0.18    0.83
   6 -10 -19    1.18    0.62
   6 -10 -18    2.97    0.63
   6 -10 -17  105.59    2.34
   6 -10 -16    4.62    0.65
   6 -10 -15  130.80    2.70
   6 -10 -14    0.02    0.46
   6 -10 -13  205.64    4.18
   6 -10 -12   37.17    1.27
   6 -10 -11   35.65    1.09
   6 -10 -10   31.01    1.10
   6 -10  -9  164.37    3.54
   6 -10  -8   18.85    0.88
   6 -10  -7  155.20    3.63
   6 -10  -6   31.80    1.05
   6 -10  -5   86.51    2.16
   6 -10  -4   34.68    1.15
   6 -10  -3    8.64    0.60
   6 -10  -2    9.24    0.62
   6 -10  -1    4.31    0.71
   6 -10   0   36.61    1.28
   6 -10   1  162.89    3.62
   6 -10   2  146.33    3.52
   6 -10   3   11.60    0.88
   6 -10   4   26.09    1.13
   6 -10   5   10.43    0.80
   6 -10   6    5.30    0.67
   6 -10   7   55.64    1.60
   6 -10   8    3.30    0.70
   6 -10   9   33.70    1.21
   6 -10  10   13.24    0.88
   6 -10  11   10.05    0.83
   6 -10  12   53.27    1.71
   6 -10  13   40.71    1.51
   6 -10  14   -0.08    0.69
   6 -10  15   31.42    1.12
   6 -10  16   13.69    0.87
   6 -10  17    3.61    0.73
   6 -10  18    1.37    0.78
   6 -10  19   19.79    1.14
   7 -10 -21    2.11    0.82
   7 -10 -20   -0.53    0.69
   7 -10 -19    0.92    0.75
   7 -10 -18   53.87    1.53
   7 -10 -17   -0.38    0.53
   7 -10 -16   80.28    2.05
   7 -10 -15    7.15    0.67
   7 -10 -14   92.13    2.29
   7 -10 -13   63.79    1.80
   7 -10 -12   47.57    1.41
   7 -10 -11   -0.22    0.46
   7 -10 -10    3.80    0.67
   7 -10  -9    1.22    0.53
   7 -10  -8    3.60    0.55
   7 -10  -7   -0.04    0.45
   7 -10  -6    1.19    0.50
   7 -10  -5   12.98    0.83
   7 -10  -4   38.34    1.30
   7 -10  -3    5.31    0.61
   7 -10  -2  243.21    5.30
   7 -10  -1    1.14    0.57
   7 -10   0    7.88    0.64
   7 -10   1    0.26    0.56
   7 -10   2   88.26    2.23
   7 -10   3   54.98    1.59
   7 -10   4  132.46    3.23
   7 -10   5    7.31    0.77
   7 -10   6    6.70    0.75
   7 -10   7   -0.29    0.57
   7 -10   8    2.55    0.62
   7 -10   9    3.70    0.77
   7 -10  10   79.55    2.16
   7 -10  11    1.34    0.69
   7 -10  12    4.83    0.66
   7 -10  13   -0.26    0.68
   7 -10  14   15.87    0.95
   7 -10  15    2.00    0.93
   7 -10  16   14.39    1.00
   7 -10  17    3.38    0.76
   7 -10  18   41.30    1.56
   8 -10 -21    1.61    0.73
   8 -10 -20    0.61    0.69
   8 -10 -19    2.79    0.80
   8 -10 -18    8.03    0.71
   8 -10 -17    4.39    0.60
   8 -10 -16    0.17    0.60
   8 -10 -15    2.84    0.60
   8 -10 -14    9.96    0.69
   8 -10 -13   25.83    1.05
   8 -10 -12    0.51    0.51
   8 -10 -11    0.95    0.49
   8 -10 -10   17.70    0.87
   8 -10  -9   78.88    2.24
   8 -10  -8    8.47    0.68
   8 -10  -7  126.64    3.02
   8 -10  -6    5.94    0.67
   8 -10  -5   51.12    1.60
   8 -10  -4   25.65    1.08
   8 -10  -3  137.43    3.38
   8 -10  -2   20.49    0.92
   8 -10  -1   21.68    1.01
   8 -10   0   -0.42    0.63
   8 -10   1  320.25    6.59
   8 -10   2   18.54    1.00
   8 -10   3  299.91    6.29
   8 -10   4    0.28    0.53
   8 -10   5   27.10    1.20
   8 -10   6    0.43    0.57
   8 -10   7    7.85    0.99
   8 -10   8   41.26    1.46
   8 -10   9  158.79    3.44
   8 -10  10    9.59    0.81
   8 -10  11   44.34    1.40
   8 -10  12    5.21    0.67
   8 -10  13    0.93    0.70
   8 -10  14    1.85    0.66
   8 -10  15   22.23    1.06
   8 -10  16    1.02    0.72
   8 -10  17   38.57    1.48
   9 -10 -21    0.45    0.90
   9 -10 -20   15.26    1.01
   9 -10 -19    0.05    0.78
   9 -10 -18   17.14    0.96
   9 -10 -17    0.59    0.51
   9 -10 -16   20.53    1.05
   9 -10 -15    3.16    0.61
   9 -10 -14   53.67    1.71
   9 -10 -13   -0.70    0.62
   9 -10 -12   10.44    0.67
   9 -10 -11    0.82    0.74
   9 -10 -10   26.72    0.99
   9 -10  -9   46.18    1.43
   9 -10  -8    7.28    0.79
   9 -10  -7    4.37    0.62
   9 -10  -6    6.36    0.63
   9 -10  -5    5.96    0.72
   9 -10  -4    8.53    0.75
   9 -10  -3   32.48    1.24
   9 -10  -2   50.94    1.53
   9 -10  -1    6.68    0.66
   9 -10   0  162.65    3.54
   9 -10   1   62.51    1.80
   9 -10   2  213.35    4.68
   9 -10   3    2.91    0.63
   9 -10   4    0.84    0.70
   9 -10   5   22.71    1.21
   9 -10   6   13.44    0.92
   9 -10   7    0.23    0.70
   9 -10   8   34.34    1.26
   9 -10   9  132.97    3.02
   9 -10  10   -0.39    0.82
   9 -10  11    6.02    0.82
   9 -10  12   -0.42    0.66
   9 -10  13    4.90    0.70
   9 -10  14   45.01    1.37
   9 -10  15   18.54    1.11
   9 -10  16   23.19    1.12
   9 -10  17    4.33    0.78
  10 -10 -20    0.20    0.72
  10 -10 -19    0.69    0.66
  10 -10 -18    9.00    0.84
  10 -10 -17   12.15    0.78
  10 -10 -16    0.79    0.62
  10 -10 -15   60.22    1.71
  10 -10 -14    1.36    0.57
  10 -10 -13    9.47    0.75
  10 -10 -12    6.68    0.66
  10 -10 -11    4.75    0.75
  10 -10 -10    1.01    0.55
  10 -10  -9   96.48    2.23
  10 -10  -8   -0.57    0.77
  10 -10  -7    4.47    0.65
  10 -10  -6    1.85    0.57
  10 -10  -5   22.86    1.05
  10 -10  -4    5.40    0.69
  10 -10  -3    4.67    0.65
  10 -10  -2    2.77    0.62
  10 -10  -1   25.79    1.01
  10 -10   0  117.36    2.86
  10 -10   1    0.39    0.73
  10 -10   2   17.94    1.12
  10 -10   3   21.55    1.04
  10 -10   4   29.00    1.11
  10 -10   5    0.79    0.71
  10 -10   6    2.08    0.66
  10 -10   7    9.42    0.86
  10 -10   8    1.40    0.72
  10 -10   9   33.59    1.30
  10 -10  10   -0.14    0.73
  10 -10  11   80.97    2.14
  10 -10  12   17.55    0.88
  10 -10  13   79.09    2.26
  10 -10  14    1.52    0.76
  10 -10  15    1.66    0.63
  10 -10  16    0.05    0.69
  11 -10 -20    0.30    0.86
  11 -10 -19   -0.04    0.60
  11 -10 -18   22.76    0.98
  11 -10 -17    0.86    0.70
  11 -10 -16    1.81    0.72
  11 -10 -15    1.05    0.56
  11 -10 -14    0.36    0.56
  11 -10 -13   -0.19    0.59
  11 -10 -12    8.98    0.75
  11 -10 -11    0.26    0.65
  11 -10 -10    0.69    0.55
  11 -10  -9    0.73    0.60
  11 -10  -8    0.47    0.66
  11 -10  -7   20.73    1.00
  11 -10  -6   26.38    1.19
  11 -10  -5   15.97    1.10
  11 -10  -4    4.85    0.75
  11 -10  -3   40.43    1.36
  11 -10  -2    1.18    0.70
  11 -10  -1   41.80    1.44
  11 -10   0   15.60    1.07
  11 -10   1    3.22    0.69
  11 -10   2  165.88    3.88
  11 -10   3    0.65    0.66
  11 -10   4   10.72    0.82
  11 -10   5   10.40    1.05
  11 -10   6   14.80    0.93
  11 -10   7    0.71    0.69
  11 -10   8   24.40    1.10
  11 -10   9    0.99    0.66
  11 -10  10   64.18    2.07
  11 -10  11    1.44    0.68
  11 -10  12   41.72    1.48
  11 -10  13   13.71    0.89
  11 -10  14    1.06    0.64
  11 -10  15   -0.44    0.62
  12 -10 -19    9.20    0.92
  12 -10 -18    0.10    0.70
  12 -10 -17    1.55    0.74
  12 -10 -16    8.93    0.78
  12 -10 -15   18.12    0.92
  12 -10 -14    0.52    0.66
  12 -10 -13   87.08    2.26
  12 -10 -12    0.44    0.75
  12 -10 -11    9.92    0.79
  12 -10 -10   20.58    1.02
  12 -10  -9    0.45    0.62
  12 -10  -8    6.19    0.76
  12 -10  -7   25.46    1.08
  12 -10  -6    2.23    0.68
  12 -10  -5   64.67    1.87
  12 -10  -4    3.47    0.68
  12 -10  -3    3.63    0.69
  12 -10  -2   93.18    2.58
  12 -10  -1   62.19    2.27
  12 -10   0   13.56    0.96
  12 -10   1   39.17    1.42
  12 -10   2    0.33    0.60
  12 -10   3    5.16    0.83
  12 -10   4   84.40    2.42
  12 -10   5    1.06    0.94
  12 -10   6   17.33    0.94
  12 -10   7   -0.09    0.69
  12 -10   8    2.48    0.66
  12 -10   9    6.29    0.72
  12 -10  10   -0.77    0.86
  12 -10  11   -0.04    0.72
  12 -10  12    9.29    0.82
  12 -10  13    3.97    0.66
  12 -10  14    0.31    0.65
  13 -10 -18    0.94    0.73
  13 -10 -17    0.89    0.68
  13 -10 -16   29.25    1.14
  13 -10 -15    0.46    0.76
  13 -10 -14   56.34    1.67
  13 -10 -13    1.37    0.73
  13 -10 -12    0.62    0.88
  13 -10 -11   20.76    1.05
  13 -10 -10   35.02    1.35
  13 -10  -9    4.40    0.60
  13 -10  -8   24.37    1.09
  13 -10  -7    1.16    0.71
  13 -10  -6   87.85    2.11
  13 -10  -5   20.02    1.14
  13 -10  -4   13.47    1.00
  13 -10  -3   16.57    0.95
  13 -10  -2   28.24    1.22
  13 -10  -1    0.37    0.75
  13 -10   0   87.72    2.39
  13 -10   1   12.72    0.93
  13 -10   2   25.66    1.22
  13 -10   3    4.90    0.96
  13 -10   4   25.43    1.25
  13 -10   5    3.76    0.76
  13 -10   6   36.75    1.34
  13 -10   7    7.82    0.87
  13 -10   8   16.40    0.87
  13 -10   9    2.91    0.84
  13 -10  10    2.27    0.76
  13 -10  11    3.07    0.80
  13 -10  12   14.81    1.01
  14 -10 -17   28.43    1.13
  14 -10 -16    0.39    0.86
  14 -10 -15    8.07    0.92
  14 -10 -14    0.47    0.73
  14 -10 -13    0.78    0.78
  14 -10 -12   18.05    1.09
  14 -10 -11   50.81    1.58
  14 -10 -10    1.60    0.73
  14 -10  -9   20.75    1.19
  14 -10  -8   -0.59    0.74
  14 -10  -7    9.47    0.97
  14 -10  -6    7.44    0.77
  14 -10  -5   29.54    1.15
  14 -10  -4   14.20    0.95
  14 -10  -3   47.67    1.52
  14 -10  -2   -0.44    0.69
  14 -10  -1   35.66    1.31
  14 -10   0    3.65    0.68
  14 -10   1    1.43    0.75
  14 -10   2    1.10    0.67
  14 -10   3   88.42    2.41
  14 -10   4    0.17    0.70
  14 -10   5   63.68    1.98
  14 -10   6    5.28    0.70
  14 -10   7   21.56    1.14
  14 -10   8   -0.06    0.74
  14 -10   9    3.14    0.70
  14 -10  10    0.15    0.68
  14 -10  11   19.80    1.16
  15 -10 -16    2.90    0.92
  15 -10 -15    4.14    0.80
  15 -10 -14   13.94    1.03
  15 -10 -13    0.47    0.78
  15 -10 -12   19.57    1.10
  15 -10 -11    0.00    0.72
  15 -10 -10    0.62    0.62
  15 -10  -9   -0.12    0.66
  15 -10  -8    0.50    0.61
  15 -10  -7    6.26    0.90
  15 -10  -6   63.46    1.83
  15 -10  -5    0.48    0.78
  15 -10  -4   10.60    1.08
  15 -10  -3   11.68    0.82
  15 -10  -2   24.96    1.09
  15 -10  -1    0.54    0.91
  15 -10   0   16.78    1.00
  15 -10   1    0.39    0.67
  15 -10   2   58.01    1.69
  15 -10   3   17.01    1.00
  15 -10   4   76.42    2.07
  15 -10   5    9.96    0.78
  15 -10   6    0.60    0.69
  15 -10   7    3.01    0.97
  15 -10   8    9.29    0.93
  15 -10   9    4.08    0.73
  16 -10 -15    4.62    1.34
  16 -10 -14    2.74    0.90
  16 -10 -13    3.09    0.77
  16 -10 -12   10.29    0.89
  16 -10 -11    0.90    0.66
  16 -10 -10    4.29    0.72
  16 -10  -9    1.78    0.66
  16 -10  -8    3.39    0.70
  16 -10  -7   26.92    1.24
  16 -10  -6    5.12    0.84
  16 -10  -5    2.89    0.70
  16 -10  -4    6.98    0.86
  16 -10  -3    2.81    0.77
  16 -10  -2    7.08    0.83
  16 -10  -1   20.53    1.13
  16 -10   0    0.61    0.75
  16 -10   1   23.38    1.12
  16 -10   2   14.08    1.03
  16 -10   3    8.43    0.86
  16 -10   4    6.77    0.90
  16 -10   5   19.27    1.07
  16 -10   6    0.40    0.65
  16 -10   7   35.63    1.32
  16 -10   8    2.79    1.38
  17 -10 -13    4.05    0.85
  17 -10 -12    0.35    0.68
  17 -10 -11   -0.24    0.68
  17 -10 -10    2.10    0.75
  17 -10  -9    1.39    0.74
  17 -10  -8    1.34    0.78
  17 -10  -7    0.92    0.71
  17 -10  -6    1.44    0.76
  17 -10  -5    4.10    0.84
  17 -10  -4    0.68    0.64
  17 -10  -3    9.46    0.94
  17 -10  -2    6.52    0.85
  17 -10  -1   -0.24    0.69
  17 -10   0    9.33    0.97
  17 -10   1    6.18    0.72
  17 -10   2    4.00    0.73
  17 -10   3    8.24    0.97
  17 -10   4    9.01    0.86
  17 -10   5   -0.90    0.68
  18 -10 -10    3.77    0.94
  18 -10  -9   10.63    0.92
  18 -10  -8    1.93    0.69
  18 -10  -7    1.12    0.76
  18 -10  -6    0.81    0.86
  18 -10  -5    3.33    0.88
  18 -10  -4    5.81    0.76
  18 -10  -3   15.25    1.09
  18 -10  -2    1.58    0.76
  18 -10  -1    1.10    0.80
  18 -10   0    0.00    0.76
  18 -10   1    0.69    0.75
  18 -10   2    1.35    0.71
 -18 -11   2    3.27    0.98
 -18 -11   3    4.75    1.14
 -18 -11   4    1.93    0.91
 -18 -11   5    0.96    0.92
 -18 -11   6    0.27    0.69
 -18 -11   7    7.17    0.99
 -17 -11  -3    6.63    0.92
 -17 -11  -2    7.40    1.05
 -17 -11  -1    8.19    1.15
 -17 -11   0    5.47    1.32
 -17 -11   1    1.60    0.93
 -17 -11   2    0.99    0.93
 -17 -11   3    2.63    1.02
 -17 -11   4   10.25    0.94
 -17 -11   5   -0.13    0.64
 -17 -11   6    4.05    0.70
 -17 -11   7    2.00    0.68
 -17 -11   8   -0.85    0.91
 -17 -11   9    2.26    0.67
 -17 -11  10    8.78    0.84
 -17 -11  11   -0.27    0.78
 -16 -11  -6    1.07    0.75
 -16 -11  -5   14.17    0.96
 -16 -11  -4    3.53    0.85
 -16 -11  -3    1.75    0.61
 -16 -11  -2    0.39    0.49
 -16 -11  -1    0.80    0.61
 -16 -11   0    0.28    0.94
 -16 -11   1    5.96    0.79
 -16 -11   2    1.87    0.67
 -16 -11   3    9.18    0.87
 -16 -11   4   -0.70    0.63
 -16 -11   5    9.99    0.93
 -16 -11   6    3.50    0.83
 -16 -11   7    5.79    0.88
 -16 -11   8    0.61    0.65
 -16 -11   9   16.94    1.04
 -16 -11  10   -0.09    0.70
 -16 -11  11   23.65    1.06
 -16 -11  12    0.13    0.64
 -16 -11  13   -0.53    0.86
 -15 -11  -7    0.15    0.69
 -15 -11  -6   16.49    1.14
 -15 -11  -5    3.94    0.72
 -15 -11  -4    3.45    0.60
 -15 -11  -3    0.74    0.60
 -15 -11  -2   19.15    1.05
 -15 -11  -1    6.73    0.65
 -15 -11   0    0.00    0.60
 -15 -11   1   16.24    0.85
 -15 -11   2   24.66    1.10
 -15 -11   3    1.44    0.61
 -15 -11   4    0.07    0.62
 -15 -11   5   55.73    1.64
 -15 -11   6   26.93    1.32
 -15 -11   7    1.37    0.73
 -15 -11   8   38.51    1.44
 -15 -11   9   -0.92    0.81
 -15 -11  10    7.29    0.77
 -15 -11  11    9.50    1.05
 -15 -11  12    0.99    0.67
 -15 -11  13    1.09    0.70
 -15 -11  14    2.00    0.76
 -15 -11  15    1.33    1.08
 -14 -11  -6    0.39    0.65
 -14 -11  -5   14.33    0.94
 -14 -11  -4   13.52    0.94
 -14 -11  -3   25.52    1.07
 -14 -11  -2    3.94    0.55
 -14 -11  -1   15.94    0.88
 -14 -11   0    0.88    0.58
 -14 -11   1  100.53    2.61
 -14 -11   2    0.18    0.64
 -14 -11   3    0.69    0.65
 -14 -11   4   23.55    1.08
 -14 -11   5   31.22    1.28
 -14 -11   6    0.62    0.62
 -14 -11   7  114.11    2.51
 -14 -11   8    6.77    0.88
 -14 -11   9    0.26    0.63
 -14 -11  10    1.26    0.67
 -14 -11  11    9.46    0.84
 -14 -11  12   10.19    0.82
 -14 -11  13    9.96    0.78
 -14 -11  14   -1.56    0.93
 -14 -11  15    4.74    0.71
 -14 -11  16    1.64    0.67
 -13 -11  -6    3.64    0.39
 -13 -11  -5   10.94    0.65
 -13 -11  -4    2.85    0.51
 -13 -11  -3    1.02    0.52
 -13 -11  -2   53.97    1.59
 -13 -11  -1   12.07    0.75
 -13 -11   0   -0.08    0.54
 -13 -11   1   -0.05    0.48
 -13 -11   2   -0.57    0.56
 -13 -11   3    3.67    0.67
 -13 -11   4   50.18    1.46
 -13 -11   5   21.58    1.07
 -13 -11   6   15.98    1.05
 -13 -11   7    1.82    0.66
 -13 -11   8    6.98    0.76
 -13 -11   9    0.43    0.62
 -13 -11  10   11.14    1.02
 -13 -11  11    9.57    0.72
 -13 -11  12   37.01    1.36
 -13 -11  13   10.45    1.12
 -13 -11  14    1.04    0.74
 -13 -11  15    0.68    0.69
 -13 -11  16   -0.12    0.93
 -13 -11  17    0.14    0.76
 -12 -11  -6    1.64    0.31
 -12 -11  -5   -0.09    0.37
 -12 -11  -4    3.62    0.46
 -12 -11  -3   88.20    2.18
 -12 -11  -2   15.72    0.76
 -12 -11  -1   14.31    0.68
 -12 -11   0   19.87    0.87
 -12 -11   1   33.28    1.17
 -12 -11   2   11.71    0.72
 -12 -11   3   21.02    0.98
 -12 -11   4    0.35    0.53
 -12 -11   5   36.16    1.19
 -12 -11   6   63.01    1.69
 -12 -11   7    8.15    0.88
 -12 -11   8   -0.66    0.67
 -12 -11   9   91.78    2.40
 -12 -11  10    3.26    0.63
 -12 -11  11    2.56    0.75
 -12 -11  12   42.71    1.54
 -12 -11  13   26.75    1.11
 -12 -11  14    5.83    0.83
 -12 -11  15    6.23    0.75
 -12 -11  16    1.66    0.68
 -12 -11  17    5.73    0.87
 -12 -11  18    0.65    0.65
 -11 -11  -5    0.67    0.30
 -11 -11  -4    9.38    0.57
 -11 -11  -3    7.99    0.55
 -11 -11  -2   72.80    1.91
 -11 -11  -1    2.40    0.50
 -11 -11   0  158.72    3.60
 -11 -11   1    0.45    0.58
 -11 -11   2   16.43    0.93
 -11 -11   3    2.91    0.59
 -11 -11   4   16.60    0.94
 -11 -11   5    2.18    0.66
 -11 -11   6   68.39    1.72
 -11 -11   7    3.38    0.62
 -11 -11   8  178.33    3.96
 -11 -11   9    0.85    0.72
 -11 -11  10    7.39    0.67
 -11 -11  11    3.99    0.80
 -11 -11  12   31.28    1.37
 -11 -11  13    6.37    0.77
 -11 -11  14    0.98    0.66
 -11 -11  15    1.36    0.72
 -11 -11  16    2.95    0.75
 -11 -11  17    1.17    0.71
 -11 -11  18    0.13    0.77
 -11 -11  19    0.91    0.69
 -10 -11  -5   13.92    0.58
 -10 -11  -4    1.74    0.35
 -10 -11  -3   63.98    1.65
 -10 -11  -2    3.37    0.48
 -10 -11  -1    6.87    0.59
 -10 -11   0   -0.14    0.51
 -10 -11   1   38.28    1.33
 -10 -11   2  109.71    2.70
 -10 -11   3   70.87    2.14
 -10 -11   4   11.23    0.85
 -10 -11   5    7.73    0.78
 -10 -11   6   15.54    0.80
 -10 -11   7   28.69    1.21
 -10 -11   8   14.29    0.78
 -10 -11   9    3.83    0.62
 -10 -11  10    2.86    0.81
 -10 -11  11   17.19    0.93
 -10 -11  12    0.90    0.60
 -10 -11  13   10.62    0.81
 -10 -11  14    7.15    0.83
 -10 -11  15    2.07    0.68
 -10 -11  16    9.09    0.81
 -10 -11  17   -0.58    0.67
 -10 -11  18    7.05    0.78
 -10 -11  19    7.99    0.86
  -9 -11  -5    0.30    0.23
  -9 -11  -4   37.97    1.09
  -9 -11  -3    4.15    0.42
  -9 -11  -2   16.55    0.75
  -9 -11  -1   24.02    0.96
  -9 -11   0    1.78    0.50
  -9 -11   1   86.77    2.18
  -9 -11   2   27.78    1.03
  -9 -11   3   15.58    0.90
  -9 -11   4   59.97    1.69
  -9 -11   5    1.92    0.58
  -9 -11   6   10.24    0.88
  -9 -11   7   80.61    2.09
  -9 -11   8  122.76    3.10
  -9 -11   9   18.13    0.93
  -9 -11  10   55.64    1.69
  -9 -11  11   19.29    1.04
  -9 -11  12   18.12    0.86
  -9 -11  13   30.27    1.14
  -9 -11  14    4.91    0.82
  -9 -11  15   22.86    1.11
  -9 -11  16    3.49    0.64
  -9 -11  17    2.77    0.68
  -9 -11  18   12.15    0.88
  -9 -11  19    2.32    0.68
  -9 -11  20    0.92    0.81
  -8 -11  -4   15.62    0.58
  -8 -11  -3    0.71    0.36
  -8 -11  -2  123.05    2.90
  -8 -11  -1    0.91    0.49
  -8 -11   0    2.60    0.48
  -8 -11   1   30.18    1.06
  -8 -11   2    0.10    0.45
  -8 -11   3   47.62    1.56
  -8 -11   4   37.32    1.29
  -8 -11   5   24.68    1.07
  -8 -11   6   50.07    1.53
  -8 -11   7    7.88    0.72
  -8 -11   8    8.08    0.67
  -8 -11   9    1.49    0.59
  -8 -11  10   21.37    1.06
  -8 -11  11   13.15    0.89
  -8 -11  12   54.28    1.82
  -8 -11  13    7.52    0.81
  -8 -11  14   -0.11    0.75
  -8 -11  15    4.42    0.95
  -8 -11  16   10.28    0.81
  -8 -11  17   45.85    1.44
  -8 -11  18    7.90    0.87
  -8 -11  19    0.55    0.67
  -8 -11  20    4.33    0.87
  -7 -11  -4    2.76    0.29
  -7 -11  -3   33.57    1.00
  -7 -11  -2    1.02    0.33
  -7 -11  -1   -0.11    0.37
  -7 -11   0   49.75    1.50
  -7 -11   1   73.00    1.79
  -7 -11   2   22.59    0.96
  -7 -11   3   10.19    0.67
  -7 -11   4   23.36    0.99
  -7 -11   5   -0.35    0.50
  -7 -11   6   55.57    1.88
  -7 -11   7    3.03    0.71
  -7 -11   8   16.92    0.94
  -7 -11   9    0.71    0.54
  -7 -11  10   20.17    1.04
  -7 -11  11   25.02    1.03
  -7 -11  12   56.51    1.90
  -7 -11  13    5.76    0.76
  -7 -11  14   58.28    1.65
  -7 -11  15    0.71    0.65
  -7 -11  16   40.41    1.67
  -7 -11  17    0.45    0.60
  -7 -11  18    2.24    0.62
  -7 -11  19    3.04    0.71
  -7 -11  20    2.71    0.81
  -7 -11  21    3.67    1.10
  -6 -11  -4  160.37    3.37
  -6 -11  -3  219.84    4.28
  -6 -11  -2    0.45    0.30
  -6 -11  -1   45.59    1.32
  -6 -11   0   15.42    0.68
  -6 -11   1    3.80    0.49
  -6 -11   2   28.19    0.92
  -6 -11   3  217.64    4.87
  -6 -11   4   -0.46    0.44
  -6 -11   5   37.29    1.26
  -6 -11   6   13.67    0.74
  -6 -11   7   58.17    1.68
  -6 -11   8    7.70    0.67
  -6 -11   9   88.97    2.16
  -6 -11  10   -0.34    0.57
  -6 -11  11   22.94    0.99
  -6 -11  12    0.01    0.63
  -6 -11  13   29.70    1.20
  -6 -11  14    1.92    0.66
  -6 -11  15    7.40    0.74
  -6 -11  16   -0.10    0.73
  -6 -11  17    6.18    0.74
  -6 -11  18    5.18    0.69
  -6 -11  19   18.66    0.98
  -6 -11  20    1.86    0.93
  -6 -11  21    0.07    0.68
  -5 -11  -4    4.98    0.31
  -5 -11  -3    1.47    0.26
  -5 -11  -2    0.43    0.26
  -5 -11  -1  104.20    2.72
  -5 -11   0    0.08    0.31
  -5 -11   1   56.15    1.55
  -5 -11   2   46.34    1.41
  -5 -11   3   23.70    0.89
  -5 -11   4   91.09    2.48
  -5 -11   5  147.12    3.51
  -5 -11   6   20.71    0.89
  -5 -11   7    0.16    0.49
  -5 -11   8   60.23    1.74
  -5 -11   9    9.20    0.71
  -5 -11  10   90.99    2.33
  -5 -11  11   16.39    0.95
  -5 -11  12   13.34    0.88
  -5 -11  13    5.47    0.78
  -5 -11  14    6.65    0.72
  -5 -11  15    5.23    0.77
  -5 -11  16   18.84    1.01
  -5 -11  17    1.07    0.75
  -5 -11  18   17.32    0.90
  -5 -11  19   16.05    0.96
  -5 -11  20    0.62    0.80
  -5 -11  21    0.59    0.66
  -4 -11  -4   36.12    1.11
  -4 -11  -3    0.24    0.21
  -4 -11  -2   96.86    2.45
  -4 -11  -1  119.51    2.78
  -4 -11   0   57.82    1.46
  -4 -11   1    0.69    0.43
  -4 -11   2   23.02    0.88
  -4 -11   3    9.91    0.67
  -4 -11   4  215.63    4.80
  -4 -11   5   49.46    1.61
  -4 -11   6   11.05    0.80
  -4 -11   7  172.22    3.87
  -4 -11   8    5.05    0.68
  -4 -11   9   42.31    1.42
  -4 -11  10    7.70    0.68
  -4 -11  11   39.43    1.45
  -4 -11  12    4.40    0.68
  -4 -11  13  133.97    3.84
  -4 -11  14    1.24    0.56
  -4 -11  15   21.30    1.00
  -4 -11  16    6.71    0.79
  -4 -11  17   11.11    0.85
  -4 -11  18   30.98    1.23
  -4 -11  19    1.41    0.75
  -4 -11  20   -0.26    0.62
  -4 -11  21    8.09    0.93
  -3 -11  -5   38.18    1.00
  -3 -11  -4   24.59    0.73
  -3 -11  -3    0.94    0.29
  -3 -11  -2   71.83    1.81
  -3 -11  -1   31.86    1.11
  -3 -11   0   17.15    0.72
  -3 -11   1   19.73    0.77
  -3 -11   2    3.15    0.55
  -3 -11   3   66.31    1.74
  -3 -11   4  159.89    3.64
  -3 -11   5   69.40    1.98
  -3 -11   6  297.73    6.03
  -3 -11   7   16.26    0.85
  -3 -11   8  170.49    4.13
  -3 -11   9    2.06    0.64
  -3 -11  10   97.19    2.41
  -3 -11  11   14.23    0.84
  -3 -11  12   35.85    1.30
  -3 -11  13    6.92    0.81
  -3 -11  14   31.37    1.27
  -3 -11  15    1.46    0.61
  -3 -11  16    2.91    0.72
  -3 -11  17   21.01    1.04
  -3 -11  18    1.63    0.79
  -3 -11  19    0.24    0.80
  -3 -11  20   11.31    0.87
  -3 -11  21   -0.42    0.85
  -2 -11  -6    8.96    0.44
  -2 -11  -5    8.95    0.42
  -2 -11  -4    3.49    0.33
  -2 -11  -3  138.49    3.00
  -2 -11  -2    4.43    0.41
  -2 -11  -1  112.31    2.75
  -2 -11   0  124.05    3.01
  -2 -11   1   21.22    0.82
  -2 -11   2  164.54    3.76
  -2 -11   3    8.52    0.59
  -2 -11   4   86.14    2.19
  -2 -11   5  246.24    4.93
  -2 -11   6    8.52    0.65
  -2 -11   7   46.43    1.37
  -2 -11   8   78.25    2.07
  -2 -11   9  138.08    3.29
  -2 -11  10    8.29    0.77
  -2 -11  11   17.56    1.12
  -2 -11  12    4.97    0.72
  -2 -11  13   11.38    0.92
  -2 -11  14   12.54    0.85
  -2 -11  15    7.33    0.81
  -2 -11  16   25.15    1.13
  -2 -11  17    9.05    0.76
  -2 -11  18   12.43    0.98
  -2 -11  19   10.67    0.82
  -2 -11  20    6.63    0.73
  -2 -11  21   -0.41    0.73
  -1 -11  -7   21.04    0.85
  -1 -11  -6  274.02    5.52
  -1 -11  -5    8.25    0.49
  -1 -11  -4  107.02    2.57
  -1 -11  -3   85.93    2.07
  -1 -11  -2    1.16    0.30
  -1 -11  -1   39.89    1.13
  -1 -11   0   20.23    0.83
  -1 -11   1   32.96    1.18
  -1 -11   2   86.59    2.13
  -1 -11   3  280.91    5.68
  -1 -11   4   64.94    1.79
  -1 -11   5   30.17    1.15
  -1 -11   6   78.67    2.24
  -1 -11   7    6.41    0.64
  -1 -11   8  163.30    3.73
  -1 -11   9    1.58    0.59
  -1 -11  10  116.96    2.79
  -1 -11  11   15.57    0.94
  -1 -11  12   99.12    2.62
  -1 -11  13   -0.19    0.57
  -1 -11  14    2.61    0.72
  -1 -11  15   17.13    0.86
  -1 -11  16   65.47    1.89
  -1 -11  17   20.87    0.99
  -1 -11  18   10.10    0.87
  -1 -11  19    5.07    0.67
  -1 -11  20    1.19    0.66
  -1 -11  21    0.51    0.68
   0 -11 -10    4.59    0.26
   0 -11  -9   90.61    2.16
   0 -11  -8    1.58    0.27
   0 -11  -7  394.56    7.78
   0 -11  -6   33.12    1.16
   0 -11  -5   58.79    1.56
   0 -11  -4    0.59    0.36
   0 -11  -3   97.13    2.46
   0 -11  -2   66.90    1.73
   0 -11  -1  422.66    8.18
   0 -11   0   -0.43    0.37
   0 -11   1  422.54    7.89
   0 -11   2   67.30    1.87
   0 -11   3  100.91    2.35
   0 -11   4    0.38    0.45
   0 -11   5   59.73    1.80
   0 -11   6   35.16    1.21
   0 -11   7  415.50    8.17
   0 -11   8    1.74    0.67
   0 -11   9   98.31    2.46
   0 -11  10    5.28    0.69
   0 -11  11    5.64    0.66
   0 -11  12   59.50    1.91
   0 -11  13   43.20    1.39
   0 -11  14    3.61    0.73
   0 -11  15   10.97    0.73
   0 -11  16   64.20    2.00
   0 -11  17    7.16    0.70
   0 -11  18   24.99    1.44
   0 -11  19   13.41    0.95
   0 -11  20    0.14    0.73
   0 -11  21   17.02    1.01
   1 -11 -15   12.32    0.72
   1 -11 -14    1.61    0.24
   1 -11 -13    0.20    0.22
   1 -11 -12   90.57    2.14
   1 -11 -11   14.16    0.61
   1 -11 -10  108.01    2.37
   1 -11  -9    2.28    0.32
   1 -11  -8  154.15    3.21
   1 -11  -7    7.28    0.46
   1 -11  -6   74.40    2.03
   1 -11  -5   30.15    0.91
   1 -11  -4   60.66    1.54
   1 -11  -3  271.31    5.55
   1 -11  -2   86.01    2.27
   1 -11  -1   34.33    1.06
   1 -11   0   20.40    0.77
   1 -11   1   40.06    1.27
   1 -11   2    0.97    0.43
   1 -11   3   86.08    2.29
   1 -11   4  114.77    2.80
   1 -11   5    9.12    0.69
   1 -11   6  286.52    5.98
   1 -11   7   22.54    1.01
   1 -11   8    0.90    0.58
   1 -11   9   18.38    0.94
   1 -11  10    0.52    0.59
   1 -11  11  155.29    3.74
   1 -11  12  139.86    3.26
   1 -11  13    2.89    0.62
   1 -11  14   -0.28    0.69
   1 -11  15   10.76    0.84
   1 -11  16    0.25    0.67
   1 -11  17    3.20    0.69
   1 -11  18   18.12    0.97
   1 -11  19   -0.60    0.65
   1 -11  20    1.73    0.66
   2 -11 -21    0.39    0.82
   2 -11 -20    3.05    0.55
   2 -11 -19    7.39    0.53
   2 -11 -18    9.09    0.51
   2 -11 -17    8.13    0.49
   2 -11 -16   23.28    0.86
   2 -11 -15    7.15    0.50
   2 -11 -14   10.61    0.54
   2 -11 -13    9.83    0.51
   2 -11 -12    3.77    0.41
   2 -11 -11   15.91    0.66
   2 -11 -10    7.97    0.51
   2 -11  -9  129.08    2.81
   2 -11  -8   71.15    1.87
   2 -11  -7   47.12    1.34
   2 -11  -6    8.92    0.51
   2 -11  -5  235.81    4.41
   2 -11  -4   83.28    2.14
   2 -11  -3    8.58    0.56
   2 -11  -2  160.95    3.56
   2 -11  -1   21.48    0.88
   2 -11   0  125.98    2.95
   2 -11   1  116.25    2.60
   2 -11   2    4.36    0.60
   2 -11   3  143.14    3.58
   2 -11   4    3.66    0.58
   2 -11   5    8.59    0.66
   2 -11   6   11.07    0.68
   2 -11   7    1.56    0.61
   2 -11   8   11.99    0.72
   2 -11   9   50.67    1.62
   2 -11  10   20.76    0.98
   2 -11  11   52.05    1.65
   2 -11  12    0.91    0.68
   2 -11  13    0.74    0.57
   2 -11  14    1.27    0.74
   2 -11  15   19.50    0.94
   2 -11  16    3.40    0.68
   2 -11  17    0.27    0.73
   2 -11  18    2.76    0.79
   2 -11  19   12.18    1.00
   2 -11  20   17.53    0.89
   3 -11 -21    0.48    1.32
   3 -11 -20    9.20    0.70
   3 -11 -19    0.38    0.51
   3 -11 -18    0.03    0.51
   3 -11 -17   18.82    0.77
   3 -11 -16    2.91    0.50
   3 -11 -15    1.59    0.45
   3 -11 -14   29.35    1.08
   3 -11 -13    6.96    0.49
   3 -11 -12   31.68    1.06
   3 -11 -11   13.82    0.58
   3 -11 -10   91.48    2.22
   3 -11  -9    2.71    0.43
   3 -11  -8  160.02    3.39
   3 -11  -7   15.75    0.80
   3 -11  -6  285.74    5.83
   3 -11  -5   63.58    1.67
   3 -11  -4  150.71    3.23
   3 -11  -3   63.76    1.71
   3 -11  -2    2.70    0.63
   3 -11  -1   21.20    0.96
   3 -11   0   17.10    0.73
   3 -11   1   32.21    1.09
   3 -11   2   73.33    1.92
   3 -11   3    1.60    0.59
   3 -11   4   25.02    0.98
   3 -11   5   40.77    1.34
   3 -11   6   18.51    0.94
   3 -11   7   65.13    2.15
   3 -11   8   75.47    2.01
   3 -11   9    4.16    0.83
   3 -11  10   12.85    0.90
   3 -11  11   32.27    1.31
   3 -11  12   -0.05    0.83
   3 -11  13    0.22    0.58
   3 -11  14   47.71    1.49
   3 -11  15    2.81    0.70
   3 -11  16    5.63    0.62
   3 -11  17   13.54    1.04
   3 -11  18   10.71    0.88
   3 -11  19    1.30    0.64
   3 -11  20    0.75    0.74
   4 -11 -21    6.85    0.76
   4 -11 -20    0.23    0.55
   4 -11 -19    1.48    0.61
   4 -11 -18   28.34    1.05
   4 -11 -17    9.18    0.68
   4 -11 -16    5.84    0.56
   4 -11 -15   17.81    0.77
   4 -11 -14    1.12    0.42
   4 -11 -13  124.26    2.91
   4 -11 -12    3.60    0.54
   4 -11 -11   36.54    1.13
   4 -11 -10    8.66    0.56
   4 -11  -9   38.64    1.08
   4 -11  -8    5.66    0.48
   4 -11  -7  165.71    3.69
   4 -11  -6   10.59    0.55
   4 -11  -5   48.80    1.41
   4 -11  -4  216.94    4.63
   4 -11  -3    9.67    0.70
   4 -11  -2   22.47    0.86
   4 -11  -1    0.94    0.52
   4 -11   0   59.12    1.60
   4 -11   1  121.17    3.26
   4 -11   2   96.12    2.37
   4 -11   3    0.00    0.50
   4 -11   4   38.99    1.31
   4 -11   5    1.34    0.54
   4 -11   6    7.26    0.66
   4 -11   7   93.61    2.40
   4 -11   8    4.46    0.77
   4 -11   9   15.14    1.22
   4 -11  10    1.22    0.62
   4 -11  11   30.46    1.25
   4 -11  12   14.56    1.01
   4 -11  13   24.74    1.21
   4 -11  14    0.33    0.68
   4 -11  15   13.58    1.01
   4 -11  16    8.91    0.84
   4 -11  17    0.72    0.74
   4 -11  18    7.50    0.98
   4 -11  19    2.28    0.68
   5 -11 -21    0.16    0.73
   5 -11 -20    0.56    0.66
   5 -11 -19   14.71    0.84
   5 -11 -18   15.91    0.96
   5 -11 -17    2.04    0.53
   5 -11 -16   16.58    0.79
   5 -11 -15    3.85    0.51
   5 -11 -14    5.33    0.54
   5 -11 -13    3.94    0.50
   5 -11 -12   12.67    0.66
   5 -11 -11   15.36    0.71
   5 -11 -10   85.58    2.20
   5 -11  -9    8.22    0.54
   5 -11  -8   57.75    1.67
   5 -11  -7    0.51    0.42
   5 -11  -6   19.85    0.78
   5 -11  -5  143.82    3.33
   5 -11  -4   92.32    2.30
   5 -11  -3   23.17    0.91
   5 -11  -2   48.56    1.47
   5 -11  -1   58.69    1.70
   5 -11   0    0.46    0.47
   5 -11   1  106.52    2.90
   5 -11   2   -0.30    0.63
   5 -11   3    1.56    0.63
   5 -11   4    4.80    0.63
   5 -11   5   44.95    1.44
   5 -11   6   13.07    0.95
   5 -11   7   11.34    0.79
   5 -11   8    6.02    0.72
   5 -11   9    1.31    0.61
   5 -11  10    3.45    0.74
   5 -11  11   25.88    1.10
   5 -11  12    1.15    0.64
   5 -11  13    3.88    0.87
   5 -11  14    8.67    0.84
   5 -11  15    0.59    0.73
   5 -11  16   11.63    1.04
   5 -11  17    8.52    0.83
   5 -11  18   12.03    0.91
   5 -11  19    4.01    0.76
   6 -11 -21    0.62    0.73
   6 -11 -20    1.39    0.71
   6 -11 -19   17.11    0.87
   6 -11 -18    4.54    0.68
   6 -11 -17    5.50    0.66
   6 -11 -16    0.48    0.57
   6 -11 -15    6.99    0.60
   6 -11 -14    0.80    0.52
   6 -11 -13   27.03    1.00
   6 -11 -12   -0.13    0.45
   6 -11 -11   22.53    0.83
   6 -11 -10   -0.36    0.50
   6 -11  -9   82.40    2.28
   6 -11  -8    7.65    0.55
   6 -11  -7   57.58    1.70
   6 -11  -6   13.29    0.77
   6 -11  -5   36.45    1.19
   6 -11  -4    0.18    0.57
   6 -11  -3  223.28    4.85
   6 -11  -2   27.94    1.18
   6 -11  -1    4.48    0.61
   6 -11   0   15.80    0.79
   6 -11   1   47.72    1.55
   6 -11   2   -0.41    0.77
   6 -11   3  228.47    5.07
   6 -11   4  170.78    3.63
   6 -11   5  123.59    2.86
   6 -11   6   13.09    0.75
   6 -11   7    0.30    0.70
   6 -11   8    8.81    0.69
   6 -11   9   92.76    2.58
   6 -11  10    6.57    0.73
   6 -11  11   23.50    1.29
   6 -11  12   12.67    0.80
   6 -11  13    0.49    0.63
   6 -11  14   10.62    0.94
   6 -11  15   24.37    1.07
   6 -11  16    8.04    0.85
   6 -11  17    0.33    0.73
   6 -11  18   13.20    1.01
   7 -11 -20    2.90    0.70
   7 -11 -19    3.40    0.74
   7 -11 -18    1.91    0.59
   7 -11 -17   -0.69    0.55
   7 -11 -16   38.78    1.28
   7 -11 -15    2.13    0.69
   7 -11 -14   51.87    1.46
   7 -11 -13    5.38    0.61
   7 -11 -12   54.38    1.61
   7 -11 -11   23.54    1.00
   7 -11 -10   19.43    0.85
   7 -11  -9    0.76    0.54
   7 -11  -8   16.25    0.82
   7 -11  -7    3.00    0.63
   7 -11  -6   57.09    1.85
   7 -11  -5   -0.43    0.54
   7 -11  -4   23.47    0.98
   7 -11  -3   11.37    0.82
   7 -11  -2   24.78    1.16
   7 -11  -1   75.46    1.95
   7 -11   0   54.48    1.64
   7 -11   1    0.29    0.63
   7 -11   2    1.16    0.66
   7 -11   3   35.42    1.37
   7 -11   4    3.22    0.73
   7 -11   5   52.50    1.94
   7 -11   6   48.76    1.48
   7 -11   7    0.57    0.72
   7 -11   8   83.28    2.15
   7 -11   9    6.99    0.84
   7 -11  10   26.13    1.21
   7 -11  11    0.41    0.60
   7 -11  12   43.57    1.49
   7 -11  13   28.68    1.19
   7 -11  14   18.76    0.96
   7 -11  15    2.45    0.79
   7 -11  16    6.31    1.06
   7 -11  17    1.62    0.74
   8 -11 -20    3.24    0.73
   8 -11 -19    0.30    0.63
   8 -11 -18    7.70    0.73
   8 -11 -17   39.68    1.34
   8 -11 -16    9.34    0.65
   8 -11 -15    5.53    0.83
   8 -11 -14    0.69    0.48
   8 -11 -13    9.17    0.75
   8 -11 -12   50.76    1.48
   8 -11 -11   11.76    0.81
   8 -11 -10   20.65    0.92
   8 -11  -9    1.00    0.59
   8 -11  -8    8.93    0.66
   8 -11  -7    8.37    0.73
   8 -11  -6   48.23    1.63
   8 -11  -5   23.87    1.13
   8 -11  -4   36.72    1.28
   8 -11  -3   51.42    1.60
   8 -11  -2   -0.12    0.56
   8 -11  -1   30.60    1.06
   8 -11   0    3.78    0.68
   8 -11   1    0.32    0.67
   8 -11   2  137.30    3.17
   8 -11   3    0.33    0.61
   8 -11   4   17.01    0.96
   8 -11   5   36.60    1.35
   8 -11   6   -0.74    0.70
   8 -11   7   98.08    2.56
   8 -11   8   49.36    1.54
   8 -11   9   18.32    0.97
   8 -11  10   21.75    1.19
   8 -11  11   86.31    2.04
   8 -11  12   22.99    1.07
   8 -11  13   37.09    1.33
   8 -11  14    5.66    0.83
   8 -11  15   -0.49    0.64
   8 -11  16   10.38    0.84
   8 -11  17   -0.22    0.64
   9 -11 -20    1.13    0.71
   9 -11 -19    1.94    0.69
   9 -11 -18   11.34    0.84
   9 -11 -17    2.39    0.75
   9 -11 -16    3.75    0.63
   9 -11 -15   21.96    0.97
   9 -11 -14    4.70    0.68
   9 -11 -13   27.62    1.00
   9 -11 -12   16.83    0.92
   9 -11 -11   17.80    0.83
   9 -11 -10   55.30    1.67
   9 -11  -9   17.86    0.96
   9 -11  -8  126.24    3.05
   9 -11  -7   82.69    2.19
   9 -11  -6    9.63    0.86
   9 -11  -5    1.21    0.58
   9 -11  -4   60.58    1.74
   9 -11  -3   15.21    0.90
   9 -11  -2   26.93    1.07
   9 -11  -1   89.64    2.26
   9 -11   0   -0.17    0.61
   9 -11   1   25.41    1.05
   9 -11   2   17.46    0.99
   9 -11   3    3.85    0.75
   9 -11   4   41.15    1.39
   9 -11   5   -0.61    0.66
   9 -11   6    0.40    0.64
   9 -11   7    7.19    0.86
   9 -11   8   99.14    2.59
   9 -11   9    2.35    0.70
   9 -11  10   75.10    2.14
   9 -11  11    4.71    0.75
   9 -11  12   57.49    1.88
   9 -11  13   11.98    0.87
   9 -11  14    5.91    0.74
   9 -11  15    1.31    0.61
   9 -11  16    0.23    0.72
  10 -11 -19    9.99    0.93
  10 -11 -18    6.45    0.81
  10 -11 -17    0.44    0.59
  10 -11 -16    8.92    0.79
  10 -11 -15    2.11    0.75
  10 -11 -14    9.23    0.70
  10 -11 -13    8.19    0.70
  10 -11 -12   -0.16    0.69
  10 -11 -11   17.46    0.91
  10 -11 -10    2.96    0.68
  10 -11  -9    3.29    0.74
  10 -11  -8   14.30    0.79
  10 -11  -7   28.20    1.17
  10 -11  -6   14.73    0.84
  10 -11  -5    7.54    0.70
  10 -11  -4   10.77    0.90
  10 -11  -3   72.45    2.12
  10 -11  -2  110.46    2.88
  10 -11  -1   39.04    1.38
  10 -11   0    0.40    0.63
  10 -11   1    7.75    0.83
  10 -11   2    2.80    0.75
  10 -11   3   70.18    2.07
  10 -11   4    2.64    0.61
  10 -11   5   14.44    1.02
  10 -11   6    0.60    0.73
  10 -11   7   16.54    1.11
  10 -11   8   43.27    1.37
  10 -11   9   20.28    1.06
  10 -11  10    8.20    1.01
  10 -11  11   -0.29    0.90
  10 -11  12    0.53    0.66
  10 -11  13    7.87    0.74
  10 -11  14    5.19    0.70
  10 -11  15    8.15    0.84
  11 -11 -19    0.43    0.79
  11 -11 -18    0.43    0.83
  11 -11 -17    1.95    0.77
  11 -11 -16    1.28    0.63
  11 -11 -15    0.62    0.61
  11 -11 -14   -0.53    0.65
  11 -11 -13    7.31    0.81
  11 -11 -12   31.06    1.13
  11 -11 -11    3.28    0.61
  11 -11 -10    7.17    0.78
  11 -11  -9    0.46    0.67
  11 -11  -8  177.82    3.82
  11 -11  -7    4.09    0.76
  11 -11  -6   68.29    2.00
  11 -11  -5    2.32    0.67
  11 -11  -4   17.94    0.99
  11 -11  -3    3.10    0.64
  11 -11  -2   18.16    0.96
  11 -11  -1    0.87    0.78
  11 -11   0  174.80    4.02
  11 -11   1    4.01    0.71
  11 -11   2   77.37    2.08
  11 -11   3    9.60    0.87
  11 -11   4   10.40    0.92
  11 -11   5    1.10    0.80
  11 -11   6   20.79    0.99
  11 -11   7   15.90    1.04
  11 -11   8   10.80    0.84
  11 -11   9    6.44    0.78
  11 -11  10   18.93    1.11
  11 -11  11    9.29    0.91
  11 -11  12   14.69    0.86
  11 -11  13    2.41    0.75
  11 -11  14   11.54    0.91
  12 -11 -18    0.14    0.65
  12 -11 -17    5.96    0.71
  12 -11 -16    1.35    0.60
  12 -11 -15    5.40    0.89
  12 -11 -14    6.37    0.78
  12 -11 -13   25.66    1.00
  12 -11 -12   42.10    1.35
  12 -11 -11    3.12    0.59
  12 -11 -10    3.40    0.63
  12 -11  -9   94.06    2.26
  12 -11  -8    0.33    0.64
  12 -11  -7    9.09    0.88
  12 -11  -6   62.70    1.75
  12 -11  -5   38.00    1.35
  12 -11  -4    0.53    0.65
  12 -11  -3   23.98    1.04
  12 -11  -2   12.31    0.88
  12 -11  -1   36.41    1.38
  12 -11   0   22.74    1.08
  12 -11   1   15.81    0.96
  12 -11   2   18.67    0.96
  12 -11   3   98.40    2.91
  12 -11   4    4.68    0.73
  12 -11   5    0.30    0.75
  12 -11   6    3.20    0.71
  12 -11   7    4.42    0.95
  12 -11   8    5.54    0.81
  12 -11   9    2.33    0.67
  12 -11  10    5.65    0.82
  12 -11  11    8.37    0.86
  12 -11  12   -0.35    0.66
  12 -11  13    3.53    0.66
  13 -11 -17    0.63    0.63
  13 -11 -16   -0.44    0.72
  13 -11 -15    0.04    0.72
  13 -11 -14    0.51    0.66
  13 -11 -13    9.16    0.84
  13 -11 -12   35.37    1.28
  13 -11 -11   11.08    0.77
  13 -11 -10   10.14    0.72
  13 -11  -9    0.25    0.66
  13 -11  -8    7.17    0.75
  13 -11  -7    1.04    0.75
  13 -11  -6   16.73    0.90
  13 -11  -5   22.06    1.12
  13 -11  -4   54.99    1.67
  13 -11  -3    5.11    0.87
  13 -11  -2    0.67    0.73
  13 -11  -1    0.10    0.68
  13 -11   0    0.24    0.64
  13 -11   1   13.65    1.01
  13 -11   2   61.51    1.90
  13 -11   3    0.49    0.71
  13 -11   4    3.61    0.70
  13 -11   5   13.68    0.93
  13 -11   6    5.11    0.86
  13 -11   7   12.23    1.14
  13 -11   8   13.74    0.88
  13 -11   9    0.67    0.63
  13 -11  10   28.07    1.38
  13 -11  11    1.03    0.92
  14 -11 -16    0.73    1.00
  14 -11 -15    4.30    0.70
  14 -11 -14    0.21    0.53
  14 -11 -13   10.90    0.88
  14 -11 -12   10.07    0.82
  14 -11 -11    8.21    0.86
  14 -11 -10    1.21    0.64
  14 -11  -9    0.90    0.73
  14 -11  -8    7.13    0.77
  14 -11  -7  116.23    3.07
  14 -11  -6    1.42    0.78
  14 -11  -5   34.41    1.39
  14 -11  -4   25.93    1.09
  14 -11  -3   -0.46    0.64
  14 -11  -2   -0.07    0.73
  14 -11  -1  113.29    2.64
  14 -11   0    0.94    0.67
  14 -11   1   20.15    1.03
  14 -11   2    6.17    0.89
  14 -11   3   28.93    1.23
  14 -11   4   16.98    0.93
  14 -11   5   16.68    0.96
  14 -11   6   -0.23    0.79
  14 -11   7   26.25    1.10
  14 -11   8    0.08    0.68
  14 -11   9   22.70    1.07
  14 -11  10   12.33    1.11
  15 -11 -15    0.06    0.74
  15 -11 -14    2.00    0.78
  15 -11 -13    1.39    0.62
  15 -11 -12    0.33    0.63
  15 -11 -11    8.33    0.88
  15 -11 -10    6.08    0.85
  15 -11  -9   -0.72    1.03
  15 -11  -8   39.69    1.48
  15 -11  -7    0.16    0.75
  15 -11  -6   29.54    1.22
  15 -11  -5   57.07    1.83
  15 -11  -4   -0.39    0.88
  15 -11  -3    0.96    0.70
  15 -11  -2   28.17    1.22
  15 -11  -1   17.61    1.01
  15 -11   0    0.65    0.71
  15 -11   1    9.47    0.84
  15 -11   2   20.48    1.31
  15 -11   3    1.03    0.64
  15 -11   4    4.99    0.89
  15 -11   5    4.63    0.83
  15 -11   6   21.19    1.15
  15 -11   7    0.63    0.64
  15 -11   8    1.50    0.63
  16 -11 -13    0.10    0.69
  16 -11 -12   -0.06    0.88
  16 -11 -11   22.31    1.06
  16 -11 -10    0.47    0.68
  16 -11  -9   17.92    1.05
  16 -11  -8    1.03    0.76
  16 -11  -7    5.56    0.72
  16 -11  -6    4.71    0.96
  16 -11  -5   12.21    0.97
  16 -11  -4   -0.53    0.82
  16 -11  -3   12.04    0.84
  16 -11  -2    0.80    0.80
  16 -11  -1    6.63    0.83
  16 -11   0    2.95    0.77
  16 -11   1    1.15    0.67
  16 -11   2    0.43    0.81
  16 -11   3    4.09    0.78
  16 -11   4    4.48    0.77
  16 -11   5   16.09    1.10
  16 -11   6    1.42    0.86
  17 -11 -11   -0.47    0.71
  17 -11 -10    8.22    1.15
  17 -11  -9    1.83    0.68
  17 -11  -8    0.32    0.93
  17 -11  -7    2.47    0.87
  17 -11  -6    3.53    0.85
  17 -11  -5   -0.51    0.67
  17 -11  -4   12.67    1.08
  17 -11  -3    0.81    0.76
  17 -11  -2    1.15    0.59
  17 -11  -1    1.73    0.98
  17 -11   0    5.95    0.78
  17 -11   1    9.23    0.97
  17 -11   2    6.36    0.90
  17 -11   3    7.06    1.04
  18 -11  -7    7.98    0.93
  18 -11  -6   -0.07    0.72
  18 -11  -5    0.18    0.60
  18 -11  -4    1.21    0.74
  18 -11  -3    3.13    1.30
  18 -11  -2    4.29    0.79
  18 -11  -1    0.04    0.73
 -17 -12  -1    2.11    0.96
 -17 -12   0    1.93    1.31
 -17 -12   1   -0.90    0.68
 -17 -12   2    1.03    0.79
 -17 -12   3    0.54    0.78
 -17 -12   4    0.45    0.83
 -17 -12   5    4.45    0.85
 -17 -12   6    1.03    0.87
 -17 -12   7    0.58    0.91
 -17 -12   8    1.11    0.70
 -17 -12   9    1.51    1.08
 -16 -12  -4   19.54    1.05
 -16 -12  -3    3.04    0.81
 -16 -12  -2    2.85    0.81
 -16 -12  -1   -0.03    0.69
 -16 -12   0    2.98    0.97
 -16 -12   1    1.27    0.71
 -16 -12   2    6.06    0.91
 -16 -12   3    0.26    0.73
 -16 -12   4    9.24    0.90
 -16 -12   5   11.23    0.98
 -16 -12   6    2.52    0.76
 -16 -12   7    0.58    0.68
 -16 -12   8    9.66    0.80
 -16 -12   9    0.76    0.73
 -16 -12  10   17.67    1.16
 -16 -12  11    2.43    0.75
 -16 -12  12    3.01    1.11
 -15 -12  -5   14.60    1.13
 -15 -12  -4    8.28    0.84
 -15 -12  -3    0.80    0.63
 -15 -12  -2    0.31    0.65
 -15 -12  -1   29.56    1.33
 -15 -12   0    2.03    0.65
 -15 -12   1    3.71    0.66
 -15 -12   2    0.81    0.62
 -15 -12   3    4.42    0.68
 -15 -12   4    2.38    0.58
 -15 -12   5    1.08    0.61
 -15 -12   6   -0.35    0.60
 -15 -12   7    6.13    0.90
 -15 -12   8    2.93    0.88
 -15 -12   9   23.58    1.04
 -15 -12  10    1.26    0.63
 -15 -12  11    2.84    0.65
 -15 -12  12    0.16    0.73
 -15 -12  13    1.14    0.74
 -14 -12  -5    8.75    0.60
 -14 -12  -4    2.48    0.58
 -14 -12  -3    2.77    0.56
 -14 -12  -2    3.30    0.64
 -14 -12  -1    1.41    0.60
 -14 -12   0   32.08    1.33
 -14 -12   1    6.20    0.70
 -14 -12   2   -0.27    0.57
 -14 -12   3    8.44    0.83
 -14 -12   4    5.82    0.77
 -14 -12   5    3.13    0.90
 -14 -12   6   45.91    1.53
 -14 -12   7    2.11    0.70
 -14 -12   8   22.18    1.18
 -14 -12   9   -0.43    0.58
 -14 -12  10    0.47    0.77
 -14 -12  11    1.07    0.76
 -14 -12  12   12.53    0.86
 -14 -12  13    0.08    0.71
 -14 -12  14    1.73    0.85
 -14 -12  15    1.10    0.81
 -13 -12  -5    1.05    0.38
 -13 -12  -4    8.14    0.62
 -13 -12  -3   22.45    0.97
 -13 -12  -2    3.28    0.56
 -13 -12  -1    4.93    0.61
 -13 -12   0    1.44    0.57
 -13 -12   1   11.17    0.77
 -13 -12   2   43.93    1.33
 -13 -12   3   22.56    1.04
 -13 -12   4    0.62    0.54
 -13 -12   5    7.59    0.71
 -13 -12   6    8.60    0.74
 -13 -12   7    0.99    0.60
 -13 -12   8    6.51    0.69
 -13 -12   9    8.45    0.98
 -13 -12  10   14.84    0.89
 -13 -12  11   10.75    0.82
 -13 -12  12    2.86    0.82
 -13 -12  13    9.94    1.13
 -13 -12  14    0.10    0.76
 -13 -12  15    0.17    0.79
 -13 -12  16    0.58    0.89
 -12 -12  -5   24.16    0.84
 -12 -12  -4   25.54    0.91
 -12 -12  -3    0.05    0.41
 -12 -12  -2    0.59    0.48
 -12 -12  -1   23.89    1.02
 -12 -12   0   13.62    0.90
 -12 -12   1    6.37    0.65
 -12 -12   2   32.15    1.18
 -12 -12   3   -0.95    0.71
 -12 -12   4   43.55    1.67
 -12 -12   5    5.99    0.81
 -12 -12   6   10.59    0.79
 -12 -12   7   39.20    1.27
 -12 -12   8   54.48    1.67
 -12 -12   9   53.01    1.61
 -12 -12  10   19.17    0.99
 -12 -12  11    0.25    0.88
 -12 -12  12    7.12    0.77
 -12 -12  13    1.73    0.70
 -12 -12  14    4.61    0.77
 -12 -12  15   -0.40    0.66
 -12 -12  16   14.01    0.96
 -12 -12  17    0.51    0.94
 -11 -12  -5    1.84    0.37
 -11 -12  -4   62.07    1.47
 -11 -12  -3   13.64    0.69
 -11 -12  -2    3.13    0.54
 -11 -12  -1  116.57    2.59
 -11 -12   0   25.73    1.06
 -11 -12   1   46.23    1.64
 -11 -12   2    5.52    0.68
 -11 -12   3    0.18    0.52
 -11 -12   4    1.26    0.56
 -11 -12   5   17.08    0.84
 -11 -12   6   29.95    1.11
 -11 -12   7   98.10    2.53
 -11 -12   8    0.59    0.71
 -11 -12   9    5.72    0.71
 -11 -12  10    0.44    0.70
 -11 -12  11    6.18    0.74
 -11 -12  12    0.17    0.74
 -11 -12  13   80.21    2.08
 -11 -12  14    1.28    0.68
 -11 -12  15    5.88    0.72
 -11 -12  16    3.61    0.83
 -11 -12  17    0.42    0.65
 -11 -12  18    4.61    1.12
 -10 -12  -4   21.13    0.86
 -10 -12  -3    0.09    0.41
 -10 -12  -2   99.43    2.45
 -10 -12  -1   15.05    0.69
 -10 -12   0    8.10    0.61
 -10 -12   1    0.46    0.52
 -10 -12   2   31.44    1.12
 -10 -12   3    3.61    0.56
 -10 -12   4    8.26    0.61
 -10 -12   5   13.31    0.74
 -10 -12   6   30.93    1.11
 -10 -12   7   14.98    0.77
 -10 -12   8    6.81    0.70
 -10 -12   9    4.76    0.86
 -10 -12  10   28.23    1.15
 -10 -12  11    9.06    0.75
 -10 -12  12   63.20    1.64
 -10 -12  13    2.60    0.73
 -10 -12  14    0.33    0.82
 -10 -12  15    1.37    0.68
 -10 -12  16    1.91    0.68
 -10 -12  17    1.03    0.74
 -10 -12  18    3.66    0.68
  -9 -12  -4   58.17    1.46
  -9 -12  -3  112.77    2.57
  -9 -12  -2    0.54    0.43
  -9 -12  -1    8.61    0.58
  -9 -12   0   25.38    0.95
  -9 -12   1   11.50    0.72
  -9 -12   2    7.47    0.74
  -9 -12   3    6.69    0.63
  -9 -12   4    4.87    0.57
  -9 -12   5   52.08    1.60
  -9 -12   6    2.05    0.55
  -9 -12   7    3.07    0.61
  -9 -12   8    8.49    0.74
  -9 -12   9   38.57    1.44
  -9 -12  10    1.66    0.69
  -9 -12  11   57.14    1.70
  -9 -12  12   -0.22    0.70
  -9 -12  13    8.53    0.86
  -9 -12  14    0.88    0.74
  -9 -12  15    0.40    0.90
  -9 -12  16   10.22    0.96
  -9 -12  17    9.41    0.80
  -9 -12  18    2.86    0.79
  -9 -12  19   20.72    1.01
  -8 -12  -4    7.64    0.44
  -8 -12  -3    5.18    0.45
  -8 -12  -2    8.13    0.53
  -8 -12  -1    6.75    0.56
  -8 -12   0   12.71    0.71
  -8 -12   1   11.61    0.65
  -8 -12   2    3.61    0.50
  -8 -12   3   56.99    1.78
  -8 -12   4    9.46    0.72
  -8 -12   5    3.01    0.54
  -8 -12   6    4.30    0.61
  -8 -12   7    1.15    0.52
  -8 -12   8   10.02    0.74
  -8 -12   9    1.25    0.63
  -8 -12  10   19.72    1.00
  -8 -12  11    1.44    0.63
  -8 -12  12    0.03    0.64
  -8 -12  13    0.66    0.61
  -8 -12  14    4.48    0.63
  -8 -12  15    1.52    0.79
  -8 -12  16   22.65    1.40
  -8 -12  17    2.24    0.67
  -8 -12  18   18.04    1.01
  -8 -12  19    1.83    0.78
  -7 -12  -4   28.97    1.06
  -7 -12  -3    0.72    0.34
  -7 -12  -2    0.42    0.31
  -7 -12  -1   11.19    0.62
  -7 -12   0   -0.17    0.48
  -7 -12   1    0.89    0.40
  -7 -12   2   -0.11    0.38
  -7 -12   3   10.94    0.65
  -7 -12   4   26.05    1.04
  -7 -12   5   61.44    1.82
  -7 -12   6   29.32    1.22
  -7 -12   7   14.52    0.85
  -7 -12   8    0.36    0.54
  -7 -12   9   11.17    0.81
  -7 -12  10   18.74    0.97
  -7 -12  11   40.80    1.48
  -7 -12  12    0.98    0.66
  -7 -12  13   25.29    1.11
  -7 -12  14    6.96    0.69
  -7 -12  15   71.51    1.95
  -7 -12  16   22.32    1.21
  -7 -12  17    5.14    0.93
  -7 -12  18    2.71    0.63
  -7 -12  19    9.70    0.83
  -7 -12  20    0.24    0.79
  -6 -12  -4   57.68    1.73
  -6 -12  -3   10.43    0.51
  -6 -12  -2    0.49    0.35
  -6 -12  -1    0.17    0.39
  -6 -12   0    0.56    0.42
  -6 -12   1    0.35    0.44
  -6 -12   2   21.13    0.86
  -6 -12   3   -0.32    0.42
  -6 -12   4   67.35    2.01
  -6 -12   5   69.00    1.96
  -6 -12   6   53.76    1.54
  -6 -12   7    1.51    0.52
  -6 -12   8    8.66    0.72
  -6 -12   9    0.93    0.61
  -6 -12  10  102.90    2.80
  -6 -12  11    4.58    0.73
  -6 -12  12   55.46    1.64
  -6 -12  13    0.39    0.75
  -6 -12  14   27.13    1.22
  -6 -12  15   49.50    1.62
  -6 -12  16    0.18    0.69
  -6 -12  17    3.69    0.96
  -6 -12  18   25.05    1.09
  -6 -12  19    0.76    0.68
  -6 -12  20    1.13    0.75
  -5 -12  -4   13.37    0.56
  -5 -12  -3    0.74    0.29
  -5 -12  -2   64.83    1.66
  -5 -12  -1   17.40    0.72
  -5 -12   0   23.49    0.84
  -5 -12   1  158.05    3.47
  -5 -12   2   69.50    1.78
  -5 -12   3   55.96    1.69
  -5 -12   4   57.24    1.84
  -5 -12   5   36.32    1.33
  -5 -12   6    6.68    0.61
  -5 -12   7    1.30    0.51
  -5 -12   8    5.25    0.64
  -5 -12   9  126.92    2.74
  -5 -12  10   -0.42    0.59
  -5 -12  11   26.16    1.09
  -5 -12  12    6.40    0.74
  -5 -12  13   -0.49    0.76
  -5 -12  14   30.23    1.38
  -5 -12  15   10.64    0.77
  -5 -12  16    4.70    0.71
  -5 -12  17   16.56    0.96
  -5 -12  18    1.71    0.72
  -5 -12  19    2.31    0.67
  -5 -12  20    3.42    0.78
  -4 -12  -5    0.72    0.18
  -4 -12  -4   22.88    0.76
  -4 -12  -3    9.36    0.49
  -4 -12  -2   67.94    1.98
  -4 -12  -1   39.48    1.20
  -4 -12   0  115.86    2.85
  -4 -12   1    4.94    0.50
  -4 -12   2   21.71    0.87
  -4 -12   3    0.40    0.55
  -4 -12   4   22.38    0.93
  -4 -12   5   11.90    0.80
  -4 -12   6    1.46    0.64
  -4 -12   7   -0.22    0.65
  -4 -12   8   90.93    2.29
  -4 -12   9    5.69    0.69
  -4 -12  10   41.98    1.41
  -4 -12  11    5.66    0.67
  -4 -12  12   25.39    1.02
  -4 -12  13    9.86    0.91
  -4 -12  14   13.97    0.97
  -4 -12  15    0.48    0.66
  -4 -12  16    1.15    0.64
  -4 -12  17   17.98    1.08
  -4 -12  18    2.07    0.69
  -4 -12  19    3.73    0.84
  -4 -12  20    9.51    0.89
  -3 -12  -5    0.34    0.21
  -3 -12  -4    6.06    0.43
  -3 -12  -3    0.55    0.31
  -3 -12  -2   42.56    1.24
  -3 -12  -1    6.03    0.53
  -3 -12   0   72.77    1.91
  -3 -12   1    0.39    0.39
  -3 -12   2   34.88    1.12
  -3 -12   3    0.67    0.56
  -3 -12   4    1.14    0.60
  -3 -12   5   37.93    1.27
  -3 -12   6    3.19    0.55
  -3 -12   7  226.06    5.17
  -3 -12   8   33.45    1.25
  -3 -12   9    2.21    0.60
  -3 -12  10    6.66    0.79
  -3 -12  11   18.21    0.90
  -3 -12  12   17.41    0.86
  -3 -12  13   80.58    2.18
  -3 -12  14    1.41    0.84
  -3 -12  15    6.97    0.86
  -3 -12  16   27.23    1.21
  -3 -12  17    8.03    0.81
  -3 -12  18   26.58    1.09
  -3 -12  19   10.70    1.01
  -3 -12  20    0.29    0.65
  -2 -12  -6   62.56    1.79
  -2 -12  -5    4.63    0.33
  -2 -12  -4   67.63    1.79
  -2 -12  -3   10.30    0.52
  -2 -12  -2   62.14    1.73
  -2 -12  -1   36.45    1.14
  -2 -12   0    0.37    0.40
  -2 -12   1  126.99    2.99
  -2 -12   2    6.01    0.57
  -2 -12   3   18.73    0.92
  -2 -12   4  214.61    4.91
  -2 -12   5   44.75    1.45
  -2 -12   6  203.41    4.34
  -2 -12   7   40.87    1.21
  -2 -12   8   18.88    1.05
  -2 -12   9   89.17    2.39
  -2 -12  10   30.21    1.20
  -2 -12  11    0.07    0.65
  -2 -12  12  126.09    3.09
  -2 -12  13   11.82    0.78
  -2 -12  14   40.68    1.61
  -2 -12  15   26.77    1.24
  -2 -12  16    1.84    0.75
  -2 -12  17    4.45    0.76
  -2 -12  18   79.75    2.22
  -2 -12  19    7.15    0.80
  -2 -12  20   14.98    1.10
  -1 -12  -8   43.21    2.46
  -1 -12  -7   68.24    1.80
  -1 -12  -6    3.30    0.35
  -1 -12  -5   41.11    1.27
  -1 -12  -4   14.35    0.61
  -1 -12  -3   47.10    1.33
  -1 -12  -2    2.42    0.48
  -1 -12  -1    0.91    0.43
  -1 -12   0   50.00    1.60
  -1 -12   1    0.23    0.40
  -1 -12   2   63.89    1.62
  -1 -12   3  416.15    7.93
  -1 -12   4   65.91    1.78
  -1 -12   5   24.91    0.98
  -1 -12   6   19.70    1.01
  -1 -12   7    0.58    0.54
  -1 -12   8   15.29    0.74
  -1 -12   9  147.04    3.38
  -1 -12  10   57.61    1.66
  -1 -12  11  156.06    3.55
  -1 -12  12   25.09    1.10
  -1 -12  13   41.89    1.51
  -1 -12  14   40.48    1.64
  -1 -12  15   19.54    1.06
  -1 -12  16    1.61    0.73
  -1 -12  17   53.65    1.58
  -1 -12  18   12.10    0.87
  -1 -12  19    4.17    0.72
  -1 -12  20   13.32    1.06
   0 -12 -10   29.51    1.53
   0 -12  -9    0.21    0.20
   0 -12  -8   21.39    0.77
   0 -12  -7   54.76    1.69
   0 -12  -6   20.00    0.78
   0 -12  -5    7.58    0.49
   0 -12  -4   17.19    0.73
   0 -12  -3   16.47    0.64
   0 -12  -2   47.69    1.42
   0 -12  -1   71.94    1.96
   0 -12   0    8.25    0.64
   0 -12   1   73.58    1.98
   0 -12   2   49.29    1.58
   0 -12   3   17.92    0.89
   0 -12   4   18.14    0.84
   0 -12   5    7.08    0.66
   0 -12   6   20.46    0.89
   0 -12   7   59.23    1.69
   0 -12   8   23.68    0.96
   0 -12   9    0.10    0.55
   0 -12  10   35.10    1.25
   0 -12  11   64.35    1.82
   0 -12  12   94.84    2.59
   0 -12  13    0.27    0.66
   0 -12  14    1.92    0.87
   0 -12  15    1.11    0.73
   0 -12  16    0.14    0.73
   0 -12  17   30.47    1.23
   0 -12  18    0.17    0.67
   0 -12  19    3.09    0.68
   0 -12  20    7.93    1.06
   1 -12 -13   29.84    1.39
   1 -12 -12   20.63    0.88
   1 -12 -11  141.08    2.86
   1 -12 -10   54.82    1.48
   1 -12  -9  141.92    3.01
   1 -12  -8   13.93    0.83
   1 -12  -7    1.30    0.41
   1 -12  -6   19.57    0.78
   1 -12  -5   22.43    0.80
   1 -12  -4   64.31    1.65
   1 -12  -3  405.74    7.96
   1 -12  -2   63.55    1.75
   1 -12  -1    0.65    0.44
   1 -12   0   49.77    1.71
   1 -12   1    0.26    0.47
   1 -12   2    2.91    0.61
   1 -12   3   47.80    1.55
   1 -12   4   15.26    0.84
   1 -12   5   43.77    1.40
   1 -12   6    3.45    0.67
   1 -12   7   67.27    1.80
   1 -12   8   57.52    1.89
   1 -12   9   28.86    1.16
   1 -12  10   18.24    1.00
   1 -12  11  120.58    2.92
   1 -12  12   33.35    1.33
   1 -12  13   18.67    0.99
   1 -12  14   -0.37    0.76
   1 -12  15   17.39    1.08
   1 -12  16   17.80    0.92
   1 -12  17    3.01    0.69
   1 -12  18    0.45    0.61
   1 -12  19   13.80    0.89
   1 -12  20    1.28    0.82
   2 -12 -17    2.29    0.32
   2 -12 -16    1.77    0.35
   2 -12 -15   21.64    0.87
   2 -12 -14   33.66    1.12
   2 -12 -13   11.39    0.58
   2 -12 -12  111.31    2.73
   2 -12 -11   -0.11    0.33
   2 -12 -10   27.77    0.99
   2 -12  -9   84.76    1.98
   2 -12  -8   16.65    0.67
   2 -12  -7   39.76    1.15
   2 -12  -6  192.67    3.96
   2 -12  -5   41.08    1.18
   2 -12  -4  208.29    4.39
   2 -12  -3   17.25    0.74
   2 -12  -2    5.90    0.53
   2 -12  -1  129.31    2.91
   2 -12   0    0.29    0.46
   2 -12   1   36.70    1.20
   2 -12   2   65.78    1.82
   2 -12   3   10.75    0.78
   2 -12   4   70.44    2.00
   2 -12   5    4.53    0.65
   2 -12   6   66.08    1.89
   2 -12   7    6.35    0.70
   2 -12   8   18.77    1.05
   2 -12   9    0.23    0.58
   2 -12  10  268.90    6.04
   2 -12  11    4.17    0.67
   2 -12  12    0.33    0.63
   2 -12  13    4.12    0.71
   2 -12  14    0.57    0.67
   2 -12  15    1.94    0.66
   2 -12  16   14.07    0.87
   2 -12  17    2.68    0.74
   2 -12  18   -0.44    0.56
   2 -12  19    1.14    0.74
   3 -12 -20   -0.46    0.63
   3 -12 -19    7.82    0.61
   3 -12 -18   19.36    0.83
   3 -12 -17    6.32    0.60
   3 -12 -16   22.76    0.75
   3 -12 -15    5.75    0.52
   3 -12 -14    0.63    0.39
   3 -12 -13   74.92    1.83
   3 -12 -12   15.74    0.67
   3 -12 -11   16.19    0.70
   3 -12 -10    4.90    0.51
   3 -12  -9    2.36    0.40
   3 -12  -8   33.21    1.12
   3 -12  -7  211.14    4.48
   3 -12  -6    3.85    0.51
   3 -12  -5   36.61    1.18
   3 -12  -4    1.99    0.57
   3 -12  -3   -0.28    0.42
   3 -12  -2   33.22    1.10
   3 -12  -1    1.13    0.62
   3 -12   0   76.26    2.07
   3 -12   1    5.79    0.58
   3 -12   2   45.22    1.47
   3 -12   3    0.54    0.57
   3 -12   4    7.03    0.74
   3 -12   5    0.23    0.59
   3 -12   6   13.00    0.83
   3 -12   7   13.46    0.82
   3 -12   8   19.93    0.99
   3 -12   9   20.55    1.09
   3 -12  10   42.83    1.65
   3 -12  11    0.95    0.65
   3 -12  12    3.95    0.70
   3 -12  13   20.50    1.06
   3 -12  14   10.06    0.79
   3 -12  15   28.94    1.24
   3 -12  16   10.03    0.78
   3 -12  17   12.11    0.85
   3 -12  18    0.13    0.60
   3 -12  19    0.61    0.74
   4 -12 -20    7.07    0.81
   4 -12 -19    3.68    0.65
   4 -12 -18    1.99    0.55
   4 -12 -17   14.99    0.81
   4 -12 -16    0.93    0.54
   4 -12 -15    0.04    0.52
   4 -12 -14   13.17    0.68
   4 -12 -13    9.03    0.55
   4 -12 -12   22.42    0.85
   4 -12 -11    5.42    0.55
   4 -12 -10   36.63    1.14
   4 -12  -9    6.10    0.57
   4 -12  -8   85.45    2.19
   4 -12  -7    0.06    0.44
   4 -12  -6    1.14    0.48
   4 -12  -5   11.35    0.68
   4 -12  -4   22.42    0.92
   4 -12  -3    0.23    0.54
   4 -12  -2   20.93    0.94
   4 -12  -1    5.78    0.58
   4 -12   0  120.55    3.10
   4 -12   1   41.99    1.39
   4 -12   2   73.13    2.02
   4 -12   3    9.24    0.76
   4 -12   4   23.07    1.02
   4 -12   5    0.28    0.60
   4 -12   6  163.68    3.50
   4 -12   7    7.83    0.71
   4 -12   8  148.67    3.92
   4 -12   9    2.91    0.78
   4 -12  10   12.57    0.83
   4 -12  11   24.58    1.07
   4 -12  12   46.85    1.61
   4 -12  13   14.08    1.00
   4 -12  14   50.23    1.58
   4 -12  15   10.21    0.82
   4 -12  16    4.78    0.77
   4 -12  17   15.04    0.94
   4 -12  18    5.73    0.70
   5 -12 -20    2.28    0.80
   5 -12 -19    1.78    0.57
   5 -12 -18    1.31    0.65
   5 -12 -17   15.49    0.85
   5 -12 -16    4.08    0.61
   5 -12 -15    9.79    0.63
   5 -12 -14   26.76    0.98
   5 -12 -13    0.51    0.49
   5 -12 -12    5.80    0.57
   5 -12 -11   23.46    1.00
   5 -12 -10    0.21    0.54
   5 -12  -9  112.05    2.94
   5 -12  -8    4.43    0.57
   5 -12  -7    1.86    0.53
   5 -12  -6    7.00    0.58
   5 -12  -5   35.14    1.16
   5 -12  -4   58.13    1.84
   5 -12  -3   56.35    1.83
   5 -12  -2   72.22    2.08
   5 -12  -1  161.74    3.66
   5 -12   0   23.79    1.00
   5 -12   1   19.43    1.00
   5 -12   2   66.14    1.90
   5 -12   3    0.75    0.59
   5 -12   4   13.26    0.75
   5 -12   5    7.20    0.92
   5 -12   6   24.32    1.06
   5 -12   7    0.85    0.70
   5 -12   8   41.00    1.53
   5 -12   9   14.29    0.96
   5 -12  10    0.14    0.75
   5 -12  11   54.72    1.81
   5 -12  12    8.58    0.80
   5 -12  13   28.84    1.10
   5 -12  14    5.90    0.79
   5 -12  15   13.12    0.91
   5 -12  16   24.19    1.12
   5 -12  17    8.60    0.88
   5 -12  18    2.76    0.71
   6 -12 -20    1.23    0.76
   6 -12 -19    0.52    0.57
   6 -12 -18   23.23    1.13
   6 -12 -17    2.32    0.63
   6 -12 -16    0.94    0.50
   6 -12 -15   41.05    1.44
   6 -12 -14   24.48    1.16
   6 -12 -13    0.77    0.48
   6 -12 -12   51.36    1.62
   6 -12 -11    4.75    0.52
   6 -12 -10   95.83    2.27
   6 -12  -9    1.00    0.54
   6 -12  -8    7.77    0.63
   6 -12  -7    1.30    0.48
   6 -12  -6   52.76    1.57
   6 -12  -5   69.16    1.94
   6 -12  -4   69.53    1.96
   6 -12  -3   -0.12    0.58
   6 -12  -2   23.55    1.05
   6 -12  -1    0.61    0.61
   6 -12   0    1.07    0.65
   6 -12   1   -0.28    0.68
   6 -12   2    0.30    0.68
   6 -12   3   11.32    0.79
   6 -12   4   64.56    1.87
   6 -12   5   19.48    1.17
   6 -12   6   -0.01    0.60
   6 -12   7    0.90    0.69
   6 -12   8   98.17    2.48
   6 -12   9   21.36    1.14
   6 -12  10   76.20    2.51
   6 -12  11    0.16    0.67
   6 -12  12   17.46    1.06
   6 -12  13   38.74    1.26
   6 -12  14   83.27    1.98
   6 -12  15   16.12    1.03
   6 -12  16    4.17    0.70
   6 -12  17    0.10    0.62
   7 -12 -20    0.43    0.81
   7 -12 -19    7.55    0.99
   7 -12 -18    2.73    0.56
   7 -12 -17    4.95    0.71
   7 -12 -16   21.00    1.01
   7 -12 -15   65.55    1.65
   7 -12 -14    5.53    0.65
   7 -12 -13   23.39    1.00
   7 -12 -12    0.98    0.48
   7 -12 -11   38.25    1.27
   7 -12 -10   18.43    0.78
   7 -12  -9   11.56    0.77
   7 -12  -8    0.66    0.62
   7 -12  -7   13.87    0.75
   7 -12  -6   28.44    1.14
   7 -12  -5   60.02    1.79
   7 -12  -4   26.54    1.05
   7 -12  -3    9.57    0.81
   7 -12  -2   -0.30    0.68
   7 -12  -1    0.97    0.70
   7 -12   0    0.51    0.56
   7 -12   1   13.83    0.89
   7 -12   2    0.21    0.75
   7 -12   3    0.90    0.66
   7 -12   4   32.07    1.21
   7 -12   5   17.73    0.98
   7 -12   6    2.28    0.78
   7 -12   7  120.29    2.92
   7 -12   8   27.53    1.14
   7 -12   9   98.52    2.56
   7 -12  10   -0.69    0.89
   7 -12  11    1.10    0.74
   7 -12  12    0.87    0.60
   7 -12  13   51.34    1.46
   7 -12  14    3.29    0.68
   7 -12  15   12.46    0.82
   7 -12  16    4.65    0.75
   7 -12  17    1.81    1.09
   8 -12 -19    2.10    0.67
   8 -12 -18   17.70    0.99
   8 -12 -17    1.82    0.70
   8 -12 -16   22.77    0.95
   8 -12 -15    0.38    0.64
   8 -12 -14    4.91    0.74
   8 -12 -13    0.55    0.49
   8 -12 -12    0.59    0.70
   8 -12 -11    1.70    0.49
   8 -12 -10   18.39    0.92
   8 -12  -9    1.10    0.52
   8 -12  -8    9.56    0.78
   8 -12  -7    0.98    0.62
   8 -12  -6    3.85    0.57
   8 -12  -5    2.81    0.64
   8 -12  -4    8.78    0.86
   8 -12  -3   56.09    1.48
   8 -12  -2    3.09    0.58
   8 -12  -1   10.13    0.74
   8 -12   0   14.23    1.02
   8 -12   1    6.39    0.68
   8 -12   2    7.70    0.84
   8 -12   3    5.22    0.70
   8 -12   4   10.25    0.89
   8 -12   5   23.22    1.17
   8 -12   6   40.32    1.35
   8 -12   7    0.70    0.64
   8 -12   8  198.91    4.46
   8 -12   9    1.10    0.67
   8 -12  10    6.59    0.78
   8 -12  11    0.01    0.76
   8 -12  12   43.62    1.36
   8 -12  13    2.03    0.63
   8 -12  14    2.58    0.63
   8 -12  15    5.05    0.80
   8 -12  16   -1.08    0.58
   9 -12 -19   21.88    1.01
   9 -12 -18    1.70    0.74
   9 -12 -17    7.82    0.95
   9 -12 -16    9.73    0.79
   9 -12 -15    0.38    0.59
   9 -12 -14    1.25    0.57
   9 -12 -13    7.69    0.70
   9 -12 -12   -0.40    0.64
   9 -12 -11   56.51    1.74
   9 -12 -10    1.81    0.75
   9 -12  -9   38.95    1.39
   9 -12  -8    9.14    0.80
   9 -12  -7    3.00    0.65
   9 -12  -6    1.75    0.59
   9 -12  -5   53.06    1.56
   9 -12  -4    4.60    0.68
   9 -12  -3    6.42    0.66
   9 -12  -2    7.69    0.79
   9 -12  -1   11.81    0.78
   9 -12   0   28.47    1.11
   9 -12   1    9.69    0.75
   9 -12   2    0.24    0.89
   9 -12   3  121.35    3.23
   9 -12   4   64.56    1.95
   9 -12   5    9.68    0.81
   9 -12   6    0.86    0.72
   9 -12   7    9.73    0.75
   9 -12   8    9.47    0.79
   9 -12   9   96.08    2.36
   9 -12  10    1.80    0.78
   9 -12  11  134.48    3.30
   9 -12  12    4.55    0.72
   9 -12  13    1.09    0.69
   9 -12  14    0.76    0.62
   9 -12  15    6.58    0.79
  10 -12 -18    2.88    0.69
  10 -12 -17    1.83    0.67
  10 -12 -16    1.92    0.84
  10 -12 -15    0.39    0.53
  10 -12 -14    0.12    0.61
  10 -12 -13    2.54    0.65
  10 -12 -12   60.93    1.63
  10 -12 -11    8.45    0.84
  10 -12 -10   25.41    1.27
  10 -12  -9    4.59    0.73
  10 -12  -8    7.63    0.75
  10 -12  -7   13.64    0.77
  10 -12  -6   32.57    1.29
  10 -12  -5   12.75    0.89
  10 -12  -4    8.72    0.78
  10 -12  -3    3.50    0.87
  10 -12  -2   30.74    1.22
  10 -12  -1   -0.20    0.67
  10 -12   0    9.75    0.88
  10 -12   1   18.50    0.91
  10 -12   2  109.28    2.91
  10 -12   3   -0.35    0.70
  10 -12   4   25.45    1.36
  10 -12   5   23.21    1.12
  10 -12   6    9.04    0.85
  10 -12   7    1.91    0.68
  10 -12   8   95.88    2.61
  10 -12   9    4.03    0.67
  10 -12  10   85.03    2.04
  10 -12  11    2.34    0.79
  10 -12  12    2.87    0.76
  10 -12  13    5.23    0.71
  10 -12  14    3.95    0.68
  11 -12 -18    4.23    0.87
  11 -12 -17    0.76    0.71
  11 -12 -16    2.79    0.70
  11 -12 -15    5.37    0.69
  11 -12 -14    1.03    0.67
  11 -12 -13   78.19    2.01
  11 -12 -12    0.38    0.58
  11 -12 -11    6.10    0.81
  11 -12 -10    0.22    0.78
  11 -12  -9    4.89    0.84
  11 -12  -8    0.59    0.62
  11 -12  -7   98.33    2.32
  11 -12  -6   29.72    1.15
  11 -12  -5   17.98    0.98
  11 -12  -4    1.68    0.70
  11 -12  -3    0.69    0.61
  11 -12  -2    6.41    0.74
  11 -12  -1   50.54    1.84
  11 -12   0   29.26    1.34
  11 -12   1  125.21    3.27
  11 -12   2    2.92    0.64
  11 -12   3   15.55    1.11
  11 -12   4   73.93    1.87
  11 -12   5    3.41    0.79
  11 -12   6    3.15    0.71
  11 -12   7   33.28    1.39
  11 -12   8    7.43    0.75
  11 -12   9    0.90    0.66
  11 -12  10   11.69    0.87
  11 -12  11   22.52    1.15
  11 -12  12   19.90    0.99
  11 -12  13    7.48    0.80
  12 -12 -17   -0.14    0.73
  12 -12 -16   14.52    1.05
  12 -12 -15   -0.12    0.63
  12 -12 -14    5.60    0.74
  12 -12 -13    0.53    0.63
  12 -12 -12    6.66    0.71
  12 -12 -11   -0.24    0.67
  12 -12 -10   17.57    0.97
  12 -12  -9   52.31    1.83
  12 -12  -8   52.74    1.69
  12 -12  -7   38.37    1.47
  12 -12  -6   11.97    1.01
  12 -12  -5    5.35    0.79
  12 -12  -4   47.40    1.60
  12 -12  -3   -0.37    0.62
  12 -12  -2   36.07    1.24
  12 -12  -1    6.36    0.81
  12 -12   0   16.81    0.99
  12 -12   1   24.59    1.10
  12 -12   2    0.10    0.76
  12 -12   3    0.26    0.80
  12 -12   4   30.19    1.15
  12 -12   5   34.71    1.37
  12 -12   6   30.35    1.26
  12 -12   7    5.50    0.79
  12 -12   8    0.01    0.59
  12 -12   9    8.00    0.94
  12 -12  10    8.68    0.93
  12 -12  11    0.57    0.75
  12 -12  12   12.57    0.97
  13 -12 -16    0.42    0.71
  13 -12 -15    0.38    0.60
  13 -12 -14    0.29    0.58
  13 -12 -13   10.46    0.75
  13 -12 -12    1.82    0.66
  13 -12 -11   12.07    0.96
  13 -12 -10   16.77    0.95
  13 -12  -9    8.01    0.87
  13 -12  -8    7.44    0.78
  13 -12  -7    1.06    0.74
  13 -12  -6    7.91    0.78
  13 -12  -5    8.23    0.77
  13 -12  -4    1.14    0.71
  13 -12  -3   26.13    1.06
  13 -12  -2   49.29    1.93
  13 -12  -1   12.95    0.92
  13 -12   0    1.63    0.70
  13 -12   1    6.34    1.00
  13 -12   2    3.61    0.74
  13 -12   3   27.35    1.19
  13 -12   4    9.45    0.85
  13 -12   5    1.36    0.72
  13 -12   6    3.18    0.69
  13 -12   7    6.68    0.88
  13 -12   8   12.79    0.89
  13 -12   9    5.45    0.87
  13 -12  10    3.25    0.82
  14 -12 -15    0.59    0.89
  14 -12 -14    1.12    0.66
  14 -12 -13    1.59    0.65
  14 -12 -12   14.13    0.90
  14 -12 -11    0.79    0.73
  14 -12 -10    0.30    0.64
  14 -12  -9    0.09    0.76
  14 -12  -8   22.73    1.09
  14 -12  -7    1.64    0.72
  14 -12  -6   49.89    1.48
  14 -12  -5    4.89    0.89
  14 -12  -4    6.84    0.86
  14 -12  -3    9.81    0.85
  14 -12  -2   -1.05    0.71
  14 -12  -1    6.70    0.84
  14 -12   0   39.79    1.38
  14 -12   1    2.47    0.81
  14 -12   2    4.39    0.80
  14 -12   3    2.37    0.71
  14 -12   4    3.57    1.02
  14 -12   5   12.20    0.84
  14 -12   6    0.58    0.67
  14 -12   7    0.61    0.78
  14 -12   8    3.02    0.85
  14 -12   9    0.21    0.66
  15 -12 -13    2.23    0.70
  15 -12 -12    0.01    0.68
  15 -12 -11    2.24    0.70
  15 -12 -10    0.70    0.66
  15 -12  -9   23.70    1.26
  15 -12  -8    0.98    0.74
  15 -12  -7    6.46    0.97
  15 -12  -6   -0.02    0.65
  15 -12  -5    2.31    0.79
  15 -12  -4    2.46    0.72
  15 -12  -3    5.51    0.84
  15 -12  -2    0.86    0.78
  15 -12  -1    4.89    0.73
  15 -12   0    2.69    0.83
  15 -12   1   31.48    1.30
  15 -12   2    0.52    0.80
  15 -12   3    0.72    0.68
  15 -12   4    8.23    1.12
  15 -12   5   17.50    0.92
  15 -12   6    5.96    0.92
  15 -12   7    8.94    0.99
  16 -12 -12    6.72    1.61
  16 -12 -11    0.20    1.00
  16 -12 -10   15.81    1.10
  16 -12  -9    1.63    0.68
  16 -12  -8   11.19    0.83
  16 -12  -7    0.38    0.68
  16 -12  -6    2.85    0.69
  16 -12  -5   13.15    0.99
  16 -12  -4   11.65    1.02
  16 -12  -3   -0.08    0.62
  16 -12  -2    7.96    1.08
  16 -12  -1    0.96    0.67
  16 -12   0    2.53    0.69
  16 -12   1    0.60    0.81
  16 -12   2    1.64    0.68
  16 -12   3    3.51    0.78
  16 -12   4   20.98    1.28
  17 -12  -9    1.15    1.12
  17 -12  -8    1.86    0.78
  17 -12  -7    0.81    0.73
  17 -12  -6    1.04    0.78
  17 -12  -5    5.37    0.75
  17 -12  -4    0.21    0.79
  17 -12  -3    0.75    0.71
  17 -12  -2    0.09    0.67
  17 -12  -1   -0.68    0.72
  17 -12   0    1.62    0.77
  17 -12   1    4.04    1.15
 -16 -13  -2    4.77    1.40
 -16 -13  -1   -0.07    0.68
 -16 -13   0   16.14    1.18
 -16 -13   1    0.48    0.70
 -16 -13   2    1.14    0.73
 -16 -13   3    7.47    0.76
 -16 -13   4    7.14    0.77
 -16 -13   5    0.85    0.72
 -16 -13   6   17.62    1.13
 -16 -13   7    3.10    0.85
 -16 -13   8   -0.22    0.84
 -16 -13   9   -0.36    1.00
 -15 -13  -4    0.92    0.54
 -15 -13  -3   19.32    0.97
 -15 -13  -2    0.45    0.62
 -15 -13  -1   38.99    1.42
 -15 -13   0    0.55    0.63
 -15 -13   1    1.17    0.64
 -15 -13   2    1.55    0.62
 -15 -13   3   13.78    0.99
 -15 -13   4    6.88    1.01
 -15 -13   5   29.01    1.28
 -15 -13   6    1.40    0.73
 -15 -13   7    7.62    0.81
 -15 -13   8   -0.93    0.83
 -15 -13   9    0.22    0.53
 -15 -13  10    0.32    0.77
 -15 -13  11    2.00    0.74
 -15 -13  12    0.24    1.04
 -14 -13  -4   17.18    0.76
 -14 -13  -3    0.29    0.56
 -14 -13  -2    5.79    0.70
 -14 -13  -1   11.61    0.86
 -14 -13   0    0.66    0.58
 -14 -13   1    0.05    0.62
 -14 -13   2    7.06    0.78
 -14 -13   3    3.13    0.62
 -14 -13   4   24.77    1.15
 -14 -13   5    7.50    0.80
 -14 -13   6    1.21    0.67
 -14 -13   7    2.30    0.60
 -14 -13   8    2.10    0.65
 -14 -13   9   -0.26    0.65
 -14 -13  10    6.12    0.87
 -14 -13  11   -0.16    0.68
 -14 -13  12   10.25    0.96
 -14 -13  13    0.45    0.85
 -13 -13  -4    2.47    0.52
 -13 -13  -3    1.11    0.54
 -13 -13  -2    3.96    0.66
 -13 -13  -1   31.18    1.09
 -13 -13   0    1.81    0.67
 -13 -13   1   52.69    1.55
 -13 -13   2   15.09    0.87
 -13 -13   3    5.56    0.75
 -13 -13   4   -0.38    0.66
 -13 -13   5   12.92    0.94
 -13 -13   6    1.74    0.63
 -13 -13   7   17.26    1.13
 -13 -13   8   11.34    0.86
 -13 -13   9   11.21    0.93
 -13 -13  10    6.83    0.73
 -13 -13  11    1.21    0.65
 -13 -13  12    4.16    0.97
 -13 -13  13   11.34    0.86
 -13 -13  14    1.08    0.62
 -13 -13  15    5.76    0.79
 -12 -13  -4    0.60    0.36
 -12 -13  -3    1.44    0.50
 -12 -13  -2   51.65    1.62
 -12 -13  -1    0.04    0.53
 -12 -13   0   35.04    1.21
 -12 -13   1    5.96    0.65
 -12 -13   2   -0.29    0.74
 -12 -13   3   11.16    0.82
 -12 -13   4   16.73    0.83
 -12 -13   5    1.66    0.66
 -12 -13   6   34.64    1.25
 -12 -13   7    9.40    0.74
 -12 -13   8    2.91    0.74
 -12 -13   9    5.81    0.74
 -12 -13  10   12.19    0.97
 -12 -13  11   22.44    1.09
 -12 -13  12   29.69    1.06
 -12 -13  13    1.94    0.62
 -12 -13  14    7.20    0.83
 -12 -13  15    0.41    0.74
 -12 -13  16    0.28    0.75
 -11 -13  -4    1.40    0.33
 -11 -13  -3   93.52    2.20
 -11 -13  -2   28.81    1.01
 -11 -13  -1   37.02    1.28
 -11 -13   0   15.57    0.75
 -11 -13   1    1.24    0.51
 -11 -13   2   13.70    0.88
 -11 -13   3   98.96    2.47
 -11 -13   4   20.36    0.96
 -11 -13   5    5.34    0.66
 -11 -13   6    3.54    0.63
 -11 -13   7    2.59    0.72
 -11 -13   8    0.62    0.65
 -11 -13   9    6.30    0.77
 -11 -13  10    3.29    0.71
 -11 -13  11   21.95    1.03
 -11 -13  12   12.34    0.87
 -11 -13  13    2.66    0.69
 -11 -13  14    0.11    0.75
 -11 -13  15   -0.15    0.68
 -11 -13  16    7.11    1.07
 -11 -13  17   21.56    1.10
 -10 -13  -4   16.37    0.61
 -10 -13  -3   15.12    0.72
 -10 -13  -2   33.25    1.22
 -10 -13  -1    9.46    0.66
 -10 -13   0   17.17    0.89
 -10 -13   1    4.05    0.55
 -10 -13   2   83.05    2.18
 -10 -13   3    1.51    0.54
 -10 -13   4    2.66    0.61
 -10 -13   5    6.47    0.70
 -10 -13   6    0.96    0.75
 -10 -13   7   19.70    1.10
 -10 -13   8   49.73    1.66
 -10 -13   9    6.94    0.83
 -10 -13  10   11.12    0.79
 -10 -13  11    4.90    0.66
 -10 -13  12    1.18    0.71
 -10 -13  13   -0.10    0.79
 -10 -13  14   39.04    1.68
 -10 -13  15   -0.21    0.77
 -10 -13  16   26.66    1.20
 -10 -13  17    1.79    0.97
  -9 -13  -4   48.42    1.34
  -9 -13  -3   25.47    0.88
  -9 -13  -2    4.34    0.51
  -9 -13  -1   61.13    1.75
  -9 -13   0   -0.06    0.48
  -9 -13   1  107.00    2.57
  -9 -13   2   33.86    1.13
  -9 -13   3    7.25    0.61
  -9 -13   4    8.83    0.68
  -9 -13   5    0.31    0.72
  -9 -13   6   13.15    0.82
  -9 -13   7    3.25    0.75
  -9 -13   8   42.46    1.42
  -9 -13   9   11.31    0.89
  -9 -13  10    0.59    0.78
  -9 -13  11    0.14    0.75
  -9 -13  12    1.57    0.73
  -9 -13  13    8.25    0.88
  -9 -13  14    1.58    0.74
  -9 -13  15   15.68    1.19
  -9 -13  16    0.22    0.78
  -9 -13  17    0.52    0.78
  -9 -13  18    6.93    0.83
  -8 -13  -4    0.17    0.25
  -8 -13  -3    8.12    0.53
  -8 -13  -2   39.18    1.17
  -8 -13  -1    6.86    0.53
  -8 -13   0   11.51    0.65
  -8 -13   1    3.17    0.50
  -8 -13   2   59.79    1.77
  -8 -13   3   12.41    0.68
  -8 -13   4    1.02    0.61
  -8 -13   5   29.66    1.16
  -8 -13   6    0.69    0.58
  -8 -13   7    3.53    0.62
  -8 -13   8    8.49    0.80
  -8 -13   9    1.22    0.70
  -8 -13  10    5.76    0.74
  -8 -13  11    6.61    0.82
  -8 -13  12   23.25    1.13
  -8 -13  13    3.03    0.61
  -8 -13  14   21.20    0.99
  -8 -13  15    0.73    0.69
  -8 -13  16    0.28    0.93
  -8 -13  17    9.74    0.94
  -8 -13  18    3.00    0.73
  -7 -13  -4   35.87    1.19
  -7 -13  -3  163.73    3.52
  -7 -13  -2    0.14    0.42
  -7 -13  -1    7.17    0.60
  -7 -13   0   41.08    1.28
  -7 -13   1   64.85    1.80
  -7 -13   2   11.60    0.65
  -7 -13   3   64.29    1.91
  -7 -13   4    2.23    0.52
  -7 -13   5   64.42    1.88
  -7 -13   6    7.78    0.75
  -7 -13   7    7.63    0.72
  -7 -13   8   19.25    0.93
  -7 -13   9   33.86    1.22
  -7 -13  10    4.64    0.68
  -7 -13  11   12.48    0.77
  -7 -13  12    4.45    0.80
  -7 -13  13   43.39    1.51
  -7 -13  14    8.04    0.75
  -7 -13  15   16.12    1.02
  -7 -13  16   12.17    0.93
  -7 -13  17   12.27    1.08
  -7 -13  18   -0.23    0.66
  -7 -13  19    3.69    0.76
  -6 -13  -4    0.75    0.27
  -6 -13  -3    3.83    0.43
  -6 -13  -2    0.86    0.44
  -6 -13  -1    0.73    0.44
  -6 -13   0  120.50    2.58
  -6 -13   1   16.91    0.81
  -6 -13   2    0.49    0.52
  -6 -13   3   77.60    1.95
  -6 -13   4   16.38    0.88
  -6 -13   5    2.62    0.58
  -6 -13   6   20.19    0.98
  -6 -13   7    2.57    0.60
  -6 -13   8   25.94    1.12
  -6 -13   9    5.00    0.69
  -6 -13  10    0.38    0.68
  -6 -13  11   15.33    0.95
  -6 -13  12    0.54    0.67
  -6 -13  13   29.92    1.35
  -6 -13  14   29.65    1.34
  -6 -13  15    3.54    0.67
  -6 -13  16   12.51    0.86
  -6 -13  17   -0.44    0.76
  -6 -13  18    3.46    0.83
  -6 -13  19    4.19    0.77
  -5 -13  -4    0.92    0.30
  -5 -13  -3    2.96    0.41
  -5 -13  -2   25.54    0.88
  -5 -13  -1   72.29    1.97
  -5 -13   0   23.88    0.92
  -5 -13   1   18.04    0.76
  -5 -13   2   60.07    1.71
  -5 -13   3  156.99    3.40
  -5 -13   4    2.32    0.58
  -5 -13   5  122.27    2.82
  -5 -13   6   30.00    1.16
  -5 -13   7   10.09    0.68
  -5 -13   8    7.79    0.68
  -5 -13   9   14.09    0.81
  -5 -13  10   30.33    1.16
  -5 -13  11    9.38    0.76
  -5 -13  12    4.62    0.78
  -5 -13  13   50.88    1.57
  -5 -13  14    0.29    0.71
  -5 -13  15    0.98    0.76
  -5 -13  16    0.92    0.67
  -5 -13  17   -0.22    0.77
  -5 -13  18    4.69    0.76
  -5 -13  19   33.34    1.43
  -4 -13  -5   75.10    1.85
  -4 -13  -4    3.78    0.37
  -4 -13  -3   19.25    0.78
  -4 -13  -2  129.24    2.93
  -4 -13  -1    7.81    0.54
  -4 -13   0   11.85    0.68
  -4 -13   1   62.01    1.67
  -4 -13   2  146.45    3.71
  -4 -13   3   13.22    0.73
  -4 -13   4  197.79    4.14
  -4 -13   5    2.02    0.58
  -4 -13   6    5.69    0.78
  -4 -13   7    1.01    0.79
  -4 -13   8    0.29    0.60
  -4 -13   9   17.96    0.97
  -4 -13  10   29.73    1.24
  -4 -13  11    0.53    0.58
  -4 -13  12   14.10    0.88
  -4 -13  13    7.09    0.84
  -4 -13  14    0.65    0.65
  -4 -13  15    4.79    0.81
  -4 -13  16   29.89    1.23
  -4 -13  17    4.44    0.82
  -4 -13  18   21.31    0.95
  -4 -13  19    7.15    0.83
  -3 -13  -5   27.92    0.94
  -3 -13  -4    8.83    0.50
  -3 -13  -3  121.96    2.78
  -3 -13  -2    4.06    0.46
  -3 -13  -1    0.30    0.38
  -3 -13   0   -0.04    0.40
  -3 -13   1   59.70    1.62
  -3 -13   2   19.77    0.87
  -3 -13   3   95.40    2.64
  -3 -13   4    9.36    0.80
  -3 -13   5   -0.17    0.59
  -3 -13   6   19.58    0.87
  -3 -13   7   31.38    1.22
  -3 -13   8   40.61    1.25
  -3 -13   9   32.25    1.11
  -3 -13  10    0.63    0.69
  -3 -13  11   76.45    2.01
  -3 -13  12    2.84    0.66
  -3 -13  13   15.87    0.95
  -3 -13  14    1.97    0.71
  -3 -13  15   45.87    1.42
  -3 -13  16    6.00    0.86
  -3 -13  17   52.37    1.64
  -3 -13  18    1.70    0.65
  -3 -13  19    2.61    0.78
  -2 -13  -6    7.75    0.41
  -2 -13  -5   -0.04    0.28
  -2 -13  -4    0.98    0.32
  -2 -13  -3    6.35    0.42
  -2 -13  -2   28.95    0.88
  -2 -13  -1    1.29    0.41
  -2 -13   0   92.21    2.31
  -2 -13   1   39.57    1.37
  -2 -13   2  134.87    3.16
  -2 -13   3   35.32    1.14
  -2 -13   4    0.55    0.48
  -2 -13   5   19.56    0.95
  -2 -13   6   51.34    1.64
  -2 -13   7    7.54    0.72
  -2 -13   8   65.55    2.04
  -2 -13   9   34.79    1.23
  -2 -13  10   39.67    1.40
  -2 -13  11    1.08    0.69
  -2 -13  12   17.23    1.01
  -2 -13  13   21.25    1.03
  -2 -13  14   26.11    1.17
  -2 -13  15   14.60    0.81
  -2 -13  16    0.94    0.80
  -2 -13  17    1.37    0.75
  -2 -13  18   17.34    0.87
  -2 -13  19    5.14    0.82
  -1 -13  -8   22.85    1.06
  -1 -13  -7   74.53    2.03
  -1 -13  -6    4.81    0.42
  -1 -13  -5   28.84    1.06
  -1 -13  -4    2.80    0.36
  -1 -13  -3   22.19    0.84
  -1 -13  -2    3.42    0.47
  -1 -13  -1  442.18    8.27
  -1 -13   0   20.64    0.83
  -1 -13   1   51.37    1.47
  -1 -13   2   93.85    2.39
  -1 -13   3   13.38    0.66
  -1 -13   4    8.30    0.65
  -1 -13   5   45.01    1.48
  -1 -13   6   11.83    0.88
  -1 -13   7   48.56    1.57
  -1 -13   8   20.40    1.11
  -1 -13   9   23.34    1.19
  -1 -13  10    1.08    0.61
  -1 -13  11    1.29    0.71
  -1 -13  12   10.58    0.81
  -1 -13  13   16.34    0.98
  -1 -13  14    3.56    0.77
  -1 -13  15    4.14    0.68
  -1 -13  16    1.40    0.71
  -1 -13  17    2.80    0.77
  -1 -13  18    2.29    0.92
  -1 -13  19    8.61    0.82
   0 -13  -9    2.01    0.28
   0 -13  -8    0.06    0.28
   0 -13  -7   21.37    0.92
   0 -13  -6    3.84    0.43
   0 -13  -5   30.99    1.15
   0 -13  -4   11.77    0.68
   0 -13  -3    0.72    0.43
   0 -13  -2  157.92    3.58
   0 -13  -1    4.05    0.51
   0 -13   0    0.31    0.43
   0 -13   1    4.17    0.56
   0 -13   2  165.87    4.08
   0 -13   3    1.03    0.51
   0 -13   4   12.36    0.87
   0 -13   5   33.85    1.21
   0 -13   6    3.94    0.71
   0 -13   7   23.67    1.02
   0 -13   8    0.28    0.55
   0 -13   9    2.54    0.84
   0 -13  10  104.65    2.60
   0 -13  11    0.99    0.64
   0 -13  12    5.74    0.72
   0 -13  13    0.33    0.60
   0 -13  14    5.75    0.76
   0 -13  15    8.49    0.73
   0 -13  16   14.82    0.99
   0 -13  17    3.54    0.68
   0 -13  18   24.49    1.49
   0 -13  19    0.12    0.63
   1 -13 -12    6.35    0.60
   1 -13 -11    1.57    0.29
   1 -13 -10    2.04    0.36
   1 -13  -9   21.01    0.90
   1 -13  -8   19.46    0.90
   1 -13  -7   46.53    1.56
   1 -13  -6   10.46    0.58
   1 -13  -5   42.09    1.18
   1 -13  -4    8.29    0.61
   1 -13  -3   13.71    0.67
   1 -13  -2   94.39    2.38
   1 -13  -1   49.40    1.43
   1 -13   0   19.18    0.94
   1 -13   1  444.36    8.79
   1 -13   2    3.54    0.60
   1 -13   3   23.76    1.16
   1 -13   4    3.55    0.58
   1 -13   5   31.91    1.24
   1 -13   6    5.10    0.72
   1 -13   7   77.89    2.19
   1 -13   8   28.27    1.10
   1 -13   9   74.29    1.96
   1 -13  10    8.87    0.84
   1 -13  11   35.34    1.41
   1 -13  12    1.17    0.62
   1 -13  13    2.59    0.64
   1 -13  14    0.65    0.56
   1 -13  15   22.36    1.04
   1 -13  16    3.01    0.67
   1 -13  17    8.27    0.78
   1 -13  18    6.08    0.77
   1 -13  19    7.34    0.92
   2 -13 -15    7.98    0.38
   2 -13 -14   21.48    0.80
   2 -13 -13   17.55    0.86
   2 -13 -12   16.31    0.70
   2 -13 -11    0.33    0.35
   2 -13 -10   38.64    1.30
   2 -13  -9   33.34    1.02
   2 -13  -8   56.99    1.67
   2 -13  -7    7.17    0.52
   2 -13  -6   49.13    1.39
   2 -13  -5   18.43    0.81
   2 -13  -4    0.50    0.49
   2 -13  -3   32.29    1.14
   2 -13  -2  134.56    3.15
   2 -13  -1   38.21    1.33
   2 -13   0   93.93    2.42
   2 -13   1    1.24    0.57
   2 -13   2   28.27    1.20
   2 -13   3    6.55    0.66
   2 -13   4    0.26    0.55
   2 -13   5   -0.25    0.61
   2 -13   6    8.34    0.70
   2 -13   7   14.55    0.90
   2 -13   8   23.34    0.99
   2 -13   9    5.18    0.68
   2 -13  10    1.74    0.73
   2 -13  11   12.84    1.00
   2 -13  12   -0.15    0.62
   2 -13  13   11.58    0.90
   2 -13  14    7.38    0.77
   2 -13  15    0.27    0.73
   2 -13  16    1.11    0.63
   2 -13  17    5.03    0.78
   2 -13  18    0.09    0.77
   3 -13 -18    1.66    0.56
   3 -13 -17   39.34    1.10
   3 -13 -16    5.77    0.51
   3 -13 -15   40.38    1.10
   3 -13 -14    1.57    0.42
   3 -13 -13   14.75    0.70
   3 -13 -12    2.83    0.47
   3 -13 -11   69.95    1.82
   3 -13 -10    0.51    0.44
   3 -13  -9   29.46    1.15
   3 -13  -8   37.81    1.13
   3 -13  -7   29.17    0.99
   3 -13  -6   19.34    0.75
   3 -13  -5    0.12    0.44
   3 -13  -4    9.65    0.67
   3 -13  -3   96.19    2.41
   3 -13  -2   20.03    0.83
   3 -13  -1   59.19    1.81
   3 -13   0    0.16    0.51
   3 -13   1    0.74    0.63
   3 -13   2    4.04    0.68
   3 -13   3  124.94    3.17
   3 -13   4    9.92    0.82
   3 -13   5   30.12    1.22
   3 -13   6    1.69    0.81
   3 -13   7   17.25    1.03
   3 -13   8   10.62    0.85
   3 -13   9   13.11    0.96
   3 -13  10    1.05    0.76
   3 -13  11   22.49    1.21
   3 -13  12    6.72    0.79
   3 -13  13   36.77    1.39
   3 -13  14    1.22    0.61
   3 -13  15    1.59    0.67
   3 -13  16    2.72    0.63
   3 -13  17   19.99    1.07
   3 -13  18    6.31    0.78
   4 -13 -19    5.41    0.76
   4 -13 -18   16.72    0.98
   4 -13 -17    3.54    0.64
   4 -13 -16   25.97    0.97
   4 -13 -15    4.19    0.67
   4 -13 -14    0.69    0.52
   4 -13 -13    5.93    0.62
   4 -13 -12   11.96    0.71
   4 -13 -11    0.87    0.44
   4 -13 -10   25.45    0.98
   4 -13  -9   16.19    0.81
   4 -13  -8    0.54    0.49
   4 -13  -7   -0.26    0.57
   4 -13  -6    6.14    0.59
   4 -13  -5    1.89    0.51
   4 -13  -4  191.99    4.08
   4 -13  -3   12.60    0.79
   4 -13  -2  144.43    3.93
   4 -13  -1   60.25    1.83
   4 -13   0   12.40    0.77
   4 -13   1    8.08    0.81
   4 -13   2  134.94    3.17
   4 -13   3   19.35    0.91
   4 -13   4    3.42    0.69
   4 -13   5   80.69    2.08
   4 -13   6   23.51    1.13
   4 -13   7   25.00    1.08
   4 -13   8   38.71    1.35
   4 -13   9    1.19    0.77
   4 -13  10    6.73    0.72
   4 -13  11    5.19    0.88
   4 -13  12   18.28    0.95
   4 -13  13   31.88    1.12
   4 -13  14    1.26    0.80
   4 -13  15    2.12    0.67
   4 -13  16   21.63    1.12
   4 -13  17    1.25    0.63
   5 -13 -19   28.49    1.20
   5 -13 -18    3.85    0.67
   5 -13 -17    0.06    0.66
   5 -13 -16    1.39    0.64
   5 -13 -15    1.23    0.57
   5 -13 -14   -0.31    0.57
   5 -13 -13   45.55    1.66
   5 -13 -12    3.17    0.60
   5 -13 -11    7.40    0.63
   5 -13 -10   28.82    1.10
   5 -13  -9   12.67    0.68
   5 -13  -8    6.08    0.75
   5 -13  -7   10.11    0.70
   5 -13  -6   27.63    1.02
   5 -13  -5  121.41    2.93
   5 -13  -4    3.23    0.63
   5 -13  -3  157.76    3.42
   5 -13  -2   64.16    1.90
   5 -13  -1   20.03    0.95
   5 -13   0   23.90    1.02
   5 -13   1   75.52    2.20
   5 -13   2   27.98    1.16
   5 -13   3    2.90    0.63
   5 -13   4    0.74    0.73
   5 -13   5   32.21    1.17
   5 -13   6    6.79    0.72
   5 -13   7   15.64    0.93
   5 -13   8    6.63    0.84
   5 -13   9   53.92    1.78
   5 -13  10    4.71    0.66
   5 -13  11   20.95    1.12
   5 -13  12   26.94    1.48
   5 -13  13    1.40    0.68
   5 -13  14    1.93    0.71
   5 -13  15   15.70    1.08
   5 -13  16    1.97    0.68
   5 -13  17    5.96    0.87
   6 -13 -19    4.33    0.93
   6 -13 -18    3.18    0.85
   6 -13 -17    0.75    0.51
   6 -13 -16   10.84    0.72
   6 -13 -15    3.58    0.54
   6 -13 -14   26.54    1.12
   6 -13 -13   29.94    0.97
   6 -13 -12   -0.54    0.61
   6 -13 -11   13.89    0.75
   6 -13 -10    0.42    0.54
   6 -13  -9    4.84    0.55
   6 -13  -8   25.91    1.08
   6 -13  -7    3.22    0.67
   6 -13  -6   18.54    0.91
   6 -13  -5    2.48    0.72
   6 -13  -4   16.28    0.84
   6 -13  -3   77.28    1.95
   6 -13  -2    0.09    0.72
   6 -13  -1   17.30    0.95
   6 -13   0  122.65    3.36
   6 -13   1    0.25    0.76
   6 -13   2   -0.09    0.59
   6 -13   3    4.52    0.67
   6 -13   4    1.10    0.89
   6 -13   5   12.51    0.85
   6 -13   6    6.36    0.77
   6 -13   7    0.18    0.76
   6 -13   8    4.00    0.83
   6 -13   9   13.65    0.96
   6 -13  10    4.22    0.76
   6 -13  11    9.81    0.84
   6 -13  12   24.52    1.15
   6 -13  13    1.28    0.74
   6 -13  14   12.62    0.91
   6 -13  15    0.78    0.68
   6 -13  16    5.09    0.81
   7 -13 -19    3.96    1.33
   7 -13 -18   -0.16    0.57
   7 -13 -17   12.20    0.74
   7 -13 -16   10.30    0.84
   7 -13 -15   12.50    0.88
   7 -13 -14    6.72    0.67
   7 -13 -13   40.82    1.41
   7 -13 -12    4.30    0.68
   7 -13 -11   10.83    0.69
   7 -13 -10    3.53    0.72
   7 -13  -9   31.76    1.13
   7 -13  -8   18.42    0.82
   7 -13  -7    7.75    0.68
   7 -13  -6    8.38    0.76
   7 -13  -5   63.35    1.74
   7 -13  -4    2.19    0.62
   7 -13  -3   65.02    1.91
   7 -13  -2   12.19    0.89
   7 -13  -1   68.89    2.05
   7 -13   0   40.39    1.45
   7 -13   1    7.08    0.78
   7 -13   2    0.21    0.66
   7 -13   3  176.85    4.10
   7 -13   4   42.37    1.62
   7 -13   5    7.00    0.86
   7 -13   6   16.32    0.89
   7 -13   7    0.80    0.72
   7 -13   8   27.32    1.37
   7 -13   9   37.23    1.25
   7 -13  10    3.05    0.69
   7 -13  11   22.42    1.17
   7 -13  12    0.98    0.78
   7 -13  13   47.03    1.59
   7 -13  14    4.54    0.76
   7 -13  15    9.09    0.82
   7 -13  16    4.60    0.83
   8 -13 -18    2.60    0.72
   8 -13 -17    9.36    0.81
   8 -13 -16    0.56    0.65
   8 -13 -15    0.00    0.53
   8 -13 -14   19.55    1.10
   8 -13 -13    2.51    0.60
   8 -13 -12   22.75    0.93
   8 -13 -11    5.64    0.66
   8 -13 -10    5.57    0.57
   8 -13  -9    1.82    0.57
   8 -13  -8   10.02    0.81
   8 -13  -7    3.67    0.62
   8 -13  -6    0.75    0.66
   8 -13  -5   31.04    1.30
   8 -13  -4    0.20    0.62
   8 -13  -3   13.85    0.90
   8 -13  -2   62.39    1.79
   8 -13  -1    3.57    0.63
   8 -13   0   12.66    0.86
   8 -13   1    7.27    0.83
   8 -13   2   41.01    1.59
   8 -13   3    9.73    0.87
   8 -13   4    0.63    0.69
   8 -13   5    6.85    0.79
   8 -13   6    1.64    0.75
   8 -13   7   49.12    1.56
   8 -13   8   50.46    1.61
   8 -13   9   -0.07    0.66
   8 -13  10    3.08    0.77
   8 -13  11    7.39    0.75
   8 -13  12    2.75    0.80
   8 -13  13    1.54    0.79
   8 -13  14    0.99    0.68
   8 -13  15    4.89    0.75
   9 -13 -18    5.50    0.72
   9 -13 -17    1.18    0.69
   9 -13 -16   -0.46    0.65
   9 -13 -15   14.65    0.84
   9 -13 -14    1.50    0.56
   9 -13 -13    7.14    0.76
   9 -13 -12    1.68    0.63
   9 -13 -11    0.10    0.67
   9 -13 -10    0.17    0.58
   9 -13  -9   11.32    0.81
   9 -13  -8   42.18    1.41
   9 -13  -7    2.59    0.71
   9 -13  -6   14.45    0.79
   9 -13  -5    0.72    0.68
   9 -13  -4    9.06    0.74
   9 -13  -3    7.35    0.70
   9 -13  -2   34.25    1.32
   9 -13  -1  113.92    3.00
   9 -13   0   -0.30    0.62
   9 -13   1   64.61    1.89
   9 -13   2    4.45    0.90
   9 -13   3   27.08    1.21
   9 -13   4   61.55    1.87
   9 -13   5   17.53    1.05
   9 -13   6   -0.61    0.62
   9 -13   7   70.97    1.98
   9 -13   8    0.37    0.94
   9 -13   9    9.82    0.80
   9 -13  10    1.16    0.66
   9 -13  11    1.91    0.83
   9 -13  12   -0.60    0.73
   9 -13  13    9.01    0.80
   9 -13  14    1.39    0.63
  10 -13 -17    1.23    0.70
  10 -13 -16   25.24    1.12
  10 -13 -15    0.20    0.65
  10 -13 -14   36.62    1.31
  10 -13 -13    0.73    0.60
  10 -13 -12    0.34    0.66
  10 -13 -11    4.27    0.67
  10 -13 -10   11.04    0.86
  10 -13  -9    6.85    0.72
  10 -13  -8   50.56    1.63
  10 -13  -7   19.40    1.01
  10 -13  -6    0.06    0.76
  10 -13  -5    5.99    0.83
  10 -13  -4    3.17    0.65
  10 -13  -3    0.90    0.90
  10 -13  -2   87.73    2.55
  10 -13  -1    4.47    0.78
  10 -13   0   17.38    1.03
  10 -13   1   10.49    0.80
  10 -13   2   39.01    1.49
  10 -13   3   18.42    1.16
  10 -13   4   19.73    0.99
  10 -13   5    2.27    0.67
  10 -13   6   60.65    1.84
  10 -13   7    8.32    0.89
  10 -13   8    1.66    0.79
  10 -13   9   10.47    0.89
  10 -13  10    2.18    0.77
  10 -13  11    0.08    0.64
  10 -13  12   18.10    1.03
  10 -13  13    1.74    0.80
  11 -13 -17   18.60    1.54
  11 -13 -16    7.74    0.83
  11 -13 -15    0.06    0.76
  11 -13 -14    0.71    0.62
  11 -13 -13    2.33    0.59
  11 -13 -12   11.05    0.85
  11 -13 -11   20.57    1.00
  11 -13 -10    3.28    0.69
  11 -13  -9    7.76    0.73
  11 -13  -8    1.05    0.66
  11 -13  -7    3.58    0.64
  11 -13  -6    4.18    0.76
  11 -13  -5    5.76    0.66
  11 -13  -4   21.42    1.07
  11 -13  -3  107.61    2.75
  11 -13  -2   16.50    0.95
  11 -13  -1    1.43    0.78
  11 -13   0   16.50    0.97
  11 -13   1   40.29    1.53
  11 -13   2   32.48    1.39
  11 -13   3  110.54    2.63
  11 -13   4    0.75    0.67
  11 -13   5    9.21    1.08
  11 -13   6    0.25    0.68
  11 -13   7   13.05    0.81
  11 -13   8    0.47    0.75
  11 -13   9    4.83    0.83
  11 -13  10    0.69    0.59
  11 -13  11    6.82    0.90
  11 -13  12    1.13    1.02
  12 -13 -16    1.11    0.84
  12 -13 -15    0.65    0.64
  12 -13 -14    5.56    0.94
  12 -13 -13    2.04    0.65
  12 -13 -12   28.28    1.16
  12 -13 -11   22.69    1.19
  12 -13 -10   11.91    1.08
  12 -13  -9    6.60    0.90
  12 -13  -8    2.55    0.67
  12 -13  -7    8.60    0.80
  12 -13  -6   37.70    1.44
  12 -13  -5    1.34    0.71
  12 -13  -4   19.07    1.13
  12 -13  -3   11.63    0.83
  12 -13  -2   -0.01    0.66
  12 -13  -1    6.27    0.81
  12 -13   0   38.34    1.40
  12 -13   1   -0.81    0.89
  12 -13   2   61.54    1.81
  12 -13   3    2.73    0.72
  12 -13   4    0.83    0.71
  12 -13   5    1.31    0.75
  12 -13   6    4.00    0.70
  12 -13   7    3.44    0.75
  12 -13   8    0.85    0.79
  12 -13   9    1.46    0.66
  12 -13  10    0.31    0.70
  13 -13 -15    6.95    1.60
  13 -13 -14   -0.29    0.89
  13 -13 -13   11.06    0.82
  13 -13 -12    4.43    0.75
  13 -13 -11    1.94    0.73
  13 -13 -10    6.74    0.78
  13 -13  -9   12.29    1.06
  13 -13  -8   11.67    0.97
  13 -13  -7   18.25    1.22
  13 -13  -6    1.11    0.59
  13 -13  -5   13.37    0.97
  13 -13  -4    0.35    0.63
  13 -13  -3    5.19    0.70
  13 -13  -2   16.03    1.22
  13 -13  -1   61.04    1.92
  13 -13   0    1.95    0.69
  13 -13   1   35.73    1.53
  13 -13   2    4.23    0.72
  13 -13   3    0.89    0.72
  13 -13   4    3.27    0.84
  13 -13   5   45.35    1.45
  13 -13   6    0.90    0.64
  13 -13   7    4.98    0.99
  13 -13   8    5.25    0.73
  13 -13   9    1.64    0.67
  14 -13 -13   -0.58    0.62
  14 -13 -12    9.63    0.84
  14 -13 -11   -0.14    0.61
  14 -13 -10    5.26    0.74
  14 -13  -9    0.82    0.70
  14 -13  -8    1.56    0.64
  14 -13  -7    2.47    0.77
  14 -13  -6    0.72    0.67
  14 -13  -5    7.34    0.83
  14 -13  -4   27.88    1.30
  14 -13  -3    2.76    0.70
  14 -13  -2    8.61    1.01
  14 -13  -1   -1.03    0.78
  14 -13   0    1.22    0.79
  14 -13   1   12.65    0.92
  14 -13   2    8.42    0.97
  14 -13   3   -0.04    0.78
  14 -13   4   22.52    1.17
  14 -13   5    0.33    0.68
  14 -13   6   -0.30    0.75
  14 -13   7    0.16    0.80
  15 -13 -12    0.58    1.06
  15 -13 -11    0.86    0.61
  15 -13 -10   -0.44    0.61
  15 -13  -9    0.60    0.68
  15 -13  -8    1.08    0.69
  15 -13  -7    7.71    1.06
  15 -13  -6    0.25    0.75
  15 -13  -5   34.96    1.36
  15 -13  -4    6.49    0.80
  15 -13  -3   17.08    1.07
  15 -13  -2    1.21    0.84
  15 -13  -1    1.00    0.72
  15 -13   0    0.25    0.97
  15 -13   1   43.80    1.49
  15 -13   2   -0.53    0.72
  15 -13   3   23.66    1.33
  15 -13   4    0.29    0.84
  15 -13   5   -0.52    0.66
  16 -13  -9    1.16    2.05
  16 -13  -8    0.22    1.11
  16 -13  -7    3.64    0.76
  16 -13  -6   19.30    1.00
  16 -13  -5    1.90    0.83
  16 -13  -4    7.87    0.90
  16 -13  -3   10.40    0.93
  16 -13  -2    0.99    0.74
  16 -13  -1    0.24    0.69
  16 -13   0   16.58    1.07
  16 -13   1    0.55    0.84
  16 -13   2    4.61    0.80
 -15 -14  -2   16.16    1.45
 -15 -14  -1    0.66    1.24
 -15 -14   0    2.06    1.10
 -15 -14   1    0.82    0.77
 -15 -14   2   10.58    0.87
 -15 -14   3    5.79    0.74
 -15 -14   4    2.31    0.85
 -15 -14   5   -0.26    0.72
 -15 -14   6    0.96    0.67
 -15 -14   7   -0.41    0.59
 -15 -14   8   -1.04    0.75
 -15 -14   9    0.26    0.68
 -14 -14  -4    4.77    1.12
 -14 -14  -3    8.64    1.68
 -14 -14  -2    6.83    0.75
 -14 -14  -1    0.74    0.58
 -14 -14   0    0.90    0.80
 -14 -14   1    4.25    0.79
 -14 -14   2   -0.16    0.65
 -14 -14   3    1.50    0.79
 -14 -14   4    0.36    0.69
 -14 -14   5    1.19    0.79
 -14 -14   6    2.31    0.88
 -14 -14   7   -0.77    0.66
 -14 -14   8    0.38    0.63
 -14 -14   9    5.79    0.98
 -14 -14  10    2.63    0.69
 -14 -14  11    7.84    0.82
 -13 -14  -4    6.67    0.54
 -13 -14  -3    3.20    0.52
 -13 -14  -2    1.31    0.53
 -13 -14  -1   27.83    1.06
 -13 -14   0   21.15    0.99
 -13 -14   1   -0.05    0.62
 -13 -14   2    4.25    0.61
 -13 -14   3   -0.29    0.73
 -13 -14   4    0.28    0.62
 -13 -14   5   17.20    0.97
 -13 -14   6    2.39    0.62
 -13 -14   7    0.15    0.61
 -13 -14   8    9.12    0.80
 -13 -14   9    2.60    0.71
 -13 -14  10    0.16    0.63
 -13 -14  11    1.55    0.76
 -13 -14  12    4.94    0.80
 -13 -14  13    0.78    0.73
 -12 -14  -4    0.82    0.43
 -12 -14  -3   15.52    0.74
 -12 -14  -2   -0.05    0.56
 -12 -14  -1   10.45    0.79
 -12 -14   0    0.64    0.68
 -12 -14   1    8.22    0.75
 -12 -14   2    3.28    0.69
 -12 -14   3    0.02    0.56
 -12 -14   4    1.67    0.60
 -12 -14   5    7.69    0.83
 -12 -14   6    0.37    0.80
 -12 -14   7   27.06    1.13
 -12 -14   8    5.04    0.89
 -12 -14   9    1.33    0.68
 -12 -14  10    1.87    0.78
 -12 -14  11   10.98    0.81
 -12 -14  12   -0.40    0.64
 -12 -14  13   23.00    1.00
 -12 -14  14   -0.20    0.82
 -11 -14  -4   61.35    1.72
 -11 -14  -3    0.42    0.44
 -11 -14  -2   45.60    1.41
 -11 -14  -1    0.93    0.62
 -11 -14   0    4.73    0.72
 -11 -14   1    4.29    0.64
 -11 -14   2   20.01    0.99
 -11 -14   3    9.43    0.80
 -11 -14   4   67.71    2.08
 -11 -14   5    6.65    0.73
 -11 -14   6    6.83    0.72
 -11 -14   7    6.51    0.68
 -11 -14   8    5.19    0.67
 -11 -14   9    0.46    0.69
 -11 -14  10   19.53    0.99
 -11 -14  11   -0.04    0.78
 -11 -14  12    8.02    0.88
 -11 -14  13    4.08    0.70
 -11 -14  14   -0.09    0.67
 -11 -14  15    6.45    0.91
 -10 -14  -4    0.25    0.30
 -10 -14  -3    2.96    0.44
 -10 -14  -2    5.96    0.61
 -10 -14  -1   47.91    1.44
 -10 -14   0    1.15    0.65
 -10 -14   1   25.89    1.00
 -10 -14   2   -0.25    0.58
 -10 -14   3   18.77    0.97
 -10 -14   4   40.01    1.38
 -10 -14   5    2.25    0.51
 -10 -14   6    6.79    0.77
 -10 -14   7   27.37    1.09
 -10 -14   8   -0.52    0.71
 -10 -14   9   42.42    1.40
 -10 -14  10    4.37    0.74
 -10 -14  11    6.04    0.72
 -10 -14  12   23.00    1.09
 -10 -14  13    0.26    0.75
 -10 -14  14    4.26    1.01
 -10 -14  15    3.37    0.86
 -10 -14  16   -0.01    0.77
  -9 -14  -4    2.84    0.37
  -9 -14  -3    1.69    0.46
  -9 -14  -2   43.62    1.42
  -9 -14  -1   -0.50    0.50
  -9 -14   0   83.02    2.05
  -9 -14   1    0.82    0.48
  -9 -14   2    0.21    0.57
  -9 -14   3   10.17    0.80
  -9 -14   4    0.29    0.52
  -9 -14   5    1.56    0.58
  -9 -14   6   11.81    0.73
  -9 -14   7    6.16    0.83
  -9 -14   8   33.05    1.16
  -9 -14   9   26.57    1.20
  -9 -14  10    1.10    0.78
  -9 -14  11   14.74    0.92
  -9 -14  12   12.65    0.88
  -9 -14  13   20.35    1.03
  -9 -14  14   15.33    0.91
  -9 -14  15    1.47    0.81
  -9 -14  16   15.16    1.03
  -9 -14  17   -0.14    0.90
  -8 -14  -4   11.51    0.79
  -8 -14  -3   26.86    0.93
  -8 -14  -2    8.26    0.61
  -8 -14  -1    0.39    0.47
  -8 -14   0    0.99    0.47
  -8 -14   1    1.19    0.48
  -8 -14   2    5.04    0.65
  -8 -14   3   18.41    0.86
  -8 -14   4   -0.32    0.54
  -8 -14   5    1.86    0.61
  -8 -14   6    3.06    0.64
  -8 -14   7   27.26    1.16
  -8 -14   8   24.36    1.22
  -8 -14   9    4.16    0.78
  -8 -14  10   18.05    0.99
  -8 -14  11   42.51    1.44
  -8 -14  12    5.62    0.72
  -8 -14  13   18.81    0.95
  -8 -14  14    1.75    0.63
  -8 -14  15   10.33    0.84
  -8 -14  16    1.44    0.72
  -8 -14  17   12.03    1.16
  -7 -14  -4   13.43    0.63
  -7 -14  -3   54.69    1.66
  -7 -14  -2   14.60    0.69
  -7 -14  -1    9.94    0.63
  -7 -14   0    1.03    0.45
  -7 -14   1    0.63    0.50
  -7 -14   2    7.58    0.76
  -7 -14   3    1.46    0.56
  -7 -14   4    3.10    0.62
  -7 -14   5    8.69    0.67
  -7 -14   6    4.42    0.70
  -7 -14   7    0.02    0.64
  -7 -14   8    3.38    0.71
  -7 -14   9    2.48    0.71
  -7 -14  10    9.80    0.75
  -7 -14  11    4.81    0.77
  -7 -14  12    0.64    0.71
  -7 -14  13    0.39    0.68
  -7 -14  14    3.18    0.73
  -7 -14  15    4.19    0.72
  -7 -14  16   43.99    1.63
  -7 -14  17   -0.02    0.74
  -7 -14  18    8.27    1.08
  -6 -14  -4    1.82    0.31
  -6 -14  -3   13.89    0.71
  -6 -14  -2   50.34    1.54
  -6 -14  -1    2.01    0.72
  -6 -14   0    0.61    0.50
  -6 -14   1   32.24    1.11
  -6 -14   2   11.21    0.83
  -6 -14   3   11.46    0.61
  -6 -14   4    2.51    0.72
  -6 -14   5   17.51    0.84
  -6 -14   6   -0.24    0.57
  -6 -14   7   12.19    0.90
  -6 -14   8    5.62    0.74
  -6 -14   9   22.41    1.12
  -6 -14  10    9.29    0.85
  -6 -14  11   -0.55    0.68
  -6 -14  12    7.08    0.74
  -6 -14  13    5.49    0.71
  -6 -14  14    1.86    0.71
  -6 -14  15   31.00    1.32
  -6 -14  16    2.24    0.72
  -6 -14  17    3.57    0.84
  -6 -14  18    0.86    0.64
  -5 -14  -4   11.71    0.62
  -5 -14  -3   34.09    1.14
  -5 -14  -2    2.36    0.46
  -5 -14  -1    0.88    0.48
  -5 -14   0   75.29    1.96
  -5 -14   1   48.33    1.47
  -5 -14   2    4.99    0.61
  -5 -14   3   40.06    1.29
  -5 -14   4    0.22    0.72
  -5 -14   5   22.27    0.91
  -5 -14   6   50.61    1.45
  -5 -14   7    1.78    0.66
  -5 -14   8  128.13    3.33
  -5 -14   9    3.16    0.65
  -5 -14  10   -0.46    0.60
  -5 -14  11   15.97    0.88
  -5 -14  12   28.90    1.29
  -5 -14  13    0.41    0.65
  -5 -14  14   47.58    1.58
  -5 -14  15    2.38    0.76
  -5 -14  16    7.39    0.88
  -5 -14  17   -0.10    0.72
  -5 -14  18    8.28    0.76
  -4 -14  -5    0.36    0.25
  -4 -14  -4    3.43    0.40
  -4 -14  -3    6.45    0.49
  -4 -14  -2   15.49    0.69
  -4 -14  -1    1.90    0.52
  -4 -14   0   14.52    0.74
  -4 -14   1   49.72    1.51
  -4 -14   2    2.17    0.49
  -4 -14   3   33.56    1.11
  -4 -14   4   46.85    1.46
  -4 -14   5   21.99    0.98
  -4 -14   6   18.64    0.95
  -4 -14   7  102.31    2.78
  -4 -14   8   59.79    1.75
  -4 -14   9    0.39    0.59
  -4 -14  10    1.47    0.60
  -4 -14  11   35.88    1.20
  -4 -14  12    0.74    0.62
  -4 -14  13   24.84    1.22
  -4 -14  14    5.21    0.68
  -4 -14  15    3.24    0.70
  -4 -14  16    9.95    0.79
  -4 -14  17    9.62    1.05
  -4 -14  18   -0.24    0.67
  -3 -14  -6    4.75    0.59
  -3 -14  -5    3.04    0.34
  -3 -14  -4   29.37    1.13
  -3 -14  -3    0.32    0.40
  -3 -14  -2   -0.34    0.43
  -3 -14  -1   29.03    0.97
  -3 -14   0   46.26    1.50
  -3 -14   1    1.49    0.51
  -3 -14   2   58.76    1.63
  -3 -14   3    8.48    0.73
  -3 -14   4    0.61    0.53
  -3 -14   5   15.09    0.82
  -3 -14   6    1.19    0.53
  -3 -14   7  112.45    2.84
  -3 -14   8    8.68    0.74
  -3 -14   9   -0.12    0.69
  -3 -14  10  115.24    2.80
  -3 -14  11    9.32    0.79
  -3 -14  12   18.06    0.91
  -3 -14  13    1.58    0.76
  -3 -14  14   18.61    1.05
  -3 -14  15    5.46    0.71
  -3 -14  16    7.29    0.89
  -3 -14  17   10.45    0.94
  -3 -14  18    8.64    0.94
  -2 -14  -7   13.01    0.81
  -2 -14  -6   50.44    1.53
  -2 -14  -5   66.76    1.84
  -2 -14  -4    4.35    0.44
  -2 -14  -3    8.25    0.49
  -2 -14  -2    5.66    0.55
  -2 -14  -1   50.14    1.52
  -2 -14   0   22.31    0.86
  -2 -14   1   66.28    1.68
  -2 -14   2    4.13    0.57
  -2 -14   3   16.61    0.83
  -2 -14   4    8.50    0.69
  -2 -14   5   37.92    1.39
  -2 -14   6    0.51    0.68
  -2 -14   7   69.10    2.00
  -2 -14   8   45.29    1.51
  -2 -14   9  116.42    2.84
  -2 -14  10   19.24    0.99
  -2 -14  11   15.16    0.90
  -2 -14  12   13.79    0.95
  -2 -14  13   65.34    2.03
  -2 -14  14   14.85    0.94
  -2 -14  15   12.16    0.85
  -2 -14  16    5.72    0.83
  -2 -14  17    0.62    0.65
  -2 -14  18    0.51    0.67
  -1 -14  -8   17.31    0.73
  -1 -14  -7    6.28    0.44
  -1 -14  -6    0.76    0.33
  -1 -14  -5    9.81    0.57
  -1 -14  -4   35.24    1.09
  -1 -14  -3   12.00    0.64
  -1 -14  -2   39.61    1.15
  -1 -14  -1    4.40    0.55
  -1 -14   0   18.86    0.90
  -1 -14   1    1.34    0.49
  -1 -14   2   10.56    0.68
  -1 -14   3   46.66    1.38
  -1 -14   4    0.76    0.62
  -1 -14   5   15.46    0.91
  -1 -14   6  122.88    3.14
  -1 -14   7    0.46    0.61
  -1 -14   8    0.54    0.80
  -1 -14   9   25.19    1.05
  -1 -14  10    3.87    0.60
  -1 -14  11    8.55    0.81
  -1 -14  12   51.82    1.71
  -1 -14  13    1.22    0.69
  -1 -14  14    0.45    0.62
  -1 -14  15   17.91    1.00
  -1 -14  16   21.43    1.05
  -1 -14  17    1.41    0.66
  -1 -14  18   13.69    1.03
   0 -14  -9   34.60    1.05
   0 -14  -8   13.15    0.66
   0 -14  -7    1.07    0.38
   0 -14  -6    1.31    0.40
   0 -14  -5   53.28    1.64
   0 -14  -4    5.50    0.49
   0 -14  -3   38.21    1.24
   0 -14  -2    1.22    0.47
   0 -14  -1   12.90    0.74
   0 -14   0   13.30    0.84
   0 -14   1   12.87    0.78
   0 -14   2    1.77    0.57
   0 -14   3   38.04    1.47
   0 -14   4    6.30    0.64
   0 -14   5   54.26    1.84
   0 -14   6    0.57    0.60
   0 -14   7    0.33    0.61
   0 -14   8   14.82    1.11
   0 -14   9   34.94    1.31
   0 -14  10    5.35    0.68
   0 -14  11    0.51    0.74
   0 -14  12   13.04    0.86
   0 -14  13    4.99    0.83
   0 -14  14    5.57    0.74
   0 -14  15   27.40    1.13
   0 -14  16   -0.14    0.69
   0 -14  17   17.85    0.96
   0 -14  18    0.80    0.64
   1 -14 -11    7.37    0.43
   1 -14 -10    3.36    0.38
   1 -14  -9   24.71    0.91
   1 -14  -8    0.03    0.41
   1 -14  -7    0.33    0.34
   1 -14  -6  117.72    2.81
   1 -14  -5   16.33    0.79
   1 -14  -4    1.41    0.45
   1 -14  -3   45.59    1.46
   1 -14  -2   11.42    0.73
   1 -14  -1    1.52    0.52
   1 -14   0   18.00    0.80
   1 -14   1    3.33    0.59
   1 -14   2   38.97    1.38
   1 -14   3   13.05    0.74
   1 -14   4   35.68    1.28
   1 -14   5   10.47    0.72
   1 -14   6    1.05    0.66
   1 -14   7    6.36    0.70
   1 -14   8   25.95    1.19
   1 -14   9    0.11    0.64
   1 -14  10    3.57    0.65
   1 -14  11   14.24    0.94
   1 -14  12    4.22    0.70
   1 -14  13   -0.78    0.71
   1 -14  14    6.83    0.75
   1 -14  15    1.04    0.71
   1 -14  16   13.44    0.91
   1 -14  17    4.24    0.84
   1 -14  18    0.60    0.67
   2 -14 -14    9.92    0.57
   2 -14 -13   54.17    1.30
   2 -14 -12   12.96    0.66
   2 -14 -11   13.01    0.69
   2 -14 -10   16.34    0.77
   2 -14  -9  110.77    2.73
   2 -14  -8   40.58    1.29
   2 -14  -7   66.41    1.94
   2 -14  -6    1.78    0.41
   2 -14  -5   33.96    1.18
   2 -14  -4    8.72    0.62
   2 -14  -3   16.69    0.84
   2 -14  -2    4.52    0.61
   2 -14  -1   65.60    1.96
   2 -14   0   22.26    1.00
   2 -14   1   49.27    1.60
   2 -14   2    5.44    0.70
   2 -14   3    8.26    0.67
   2 -14   4    4.90    0.65
   2 -14   5   69.97    1.94
   2 -14   6   51.17    1.67
   2 -14   7   17.64    0.94
   2 -14   8   14.28    0.89
   2 -14   9    0.17    0.69
   2 -14  10   28.56    1.18
   2 -14  11    7.58    0.82
   2 -14  12    0.49    0.64
   2 -14  13   33.72    1.24
   2 -14  14    5.08    0.79
   2 -14  15   10.53    0.86
   2 -14  16    8.81    0.76
   2 -14  17    0.22    0.65
   3 -14 -17    4.55    0.51
   3 -14 -16    4.97    0.49
   3 -14 -15    5.26    0.50
   3 -14 -14   15.89    0.87
   3 -14 -13    0.76    0.43
   3 -14 -12   16.85    0.71
   3 -14 -11    9.39    0.63
   3 -14 -10  108.80    2.78
   3 -14  -9    0.65    0.39
   3 -14  -8    8.16    0.63
   3 -14  -7  105.43    2.61
   3 -14  -6    1.41    0.49
   3 -14  -5   14.58    0.78
   3 -14  -4    0.87    0.51
   3 -14  -3    9.70    0.69
   3 -14  -2   57.91    1.71
   3 -14  -1    1.70    0.64
   3 -14   0   46.17    1.50
   3 -14   1   28.83    1.13
   3 -14   2   -0.39    0.56
   3 -14   3   -0.84    0.69
   3 -14   4   32.46    1.33
   3 -14   5    3.63    0.74
   3 -14   6    7.18    0.81
   3 -14   7   60.64    1.81
   3 -14   8    2.00    0.72
   3 -14   9    2.89    0.74
   3 -14  10   36.93    1.29
   3 -14  11    0.49    0.65
   3 -14  12  100.49    2.44
   3 -14  13    3.39    0.73
   3 -14  14   13.24    1.12
   3 -14  15   -0.32    0.78
   3 -14  16    2.71    0.93
   3 -14  17   -0.12    0.70
   4 -14 -18    0.45    0.69
   4 -14 -17    7.32    0.64
   4 -14 -16    8.68    0.66
   4 -14 -15    2.71    0.65
   4 -14 -14    3.88    0.54
   4 -14 -13   23.71    0.98
   4 -14 -12    0.25    0.47
   4 -14 -11   32.08    1.21
   4 -14 -10    0.22    0.46
   4 -14  -9    0.65    0.49
   4 -14  -8   57.20    1.62
   4 -14  -7   95.74    2.37
   4 -14  -6   18.30    0.98
   4 -14  -5   21.62    0.89
   4 -14  -4   43.59    1.47
   4 -14  -3   34.43    1.27
   4 -14  -2    1.84    0.61
   4 -14  -1   49.52    1.54
   4 -14   0   14.79    0.89
   4 -14   1    1.87    0.60
   4 -14   2   15.25    0.82
   4 -14   3    7.85    0.82
   4 -14   4    3.50    0.71
   4 -14   5    0.83    0.68
   4 -14   6   81.17    2.16
   4 -14   7   -0.31    0.62
   4 -14   8   21.24    1.02
   4 -14   9   40.68    1.55
   4 -14  10    1.58    0.72
   4 -14  11   65.98    1.74
   4 -14  12   14.67    0.99
   4 -14  13   13.20    0.89
   4 -14  14    4.97    0.86
   4 -14  15   40.98    1.56
   4 -14  16    0.52    0.73
   5 -14 -18    6.66    0.83
   5 -14 -17    0.11    0.68
   5 -14 -16    7.16    1.04
   5 -14 -15    2.45    0.55
   5 -14 -14   39.71    1.31
   5 -14 -13    1.82    0.52
   5 -14 -12   27.98    1.02
   5 -14 -11   16.98    0.78
   5 -14 -10    0.16    0.46
   5 -14  -9    2.64    0.54
   5 -14  -8  121.37    2.73
   5 -14  -7    1.99    0.57
   5 -14  -6   47.78    1.52
   5 -14  -5   21.38    0.92
   5 -14  -4    0.98    0.63
   5 -14  -3   39.35    1.48
   5 -14  -2    4.52    0.68
   5 -14  -1   48.28    1.46
   5 -14   0   77.18    1.93
   5 -14   1    0.45    0.63
   5 -14   2    1.97    0.60
   5 -14   3   37.36    1.56
   5 -14   4   13.77    0.83
   5 -14   5   81.17    2.08
   5 -14   6   10.70    0.86
   5 -14   7    1.11    0.63
   5 -14   8   88.82    2.59
   5 -14   9    2.01    0.78
   5 -14  10   40.55    1.40
   5 -14  11    4.73    0.70
   5 -14  12   -0.16    0.64
   5 -14  13    5.12    0.89
   5 -14  14   49.35    1.78
   5 -14  15    0.32    0.82
   5 -14  16   10.03    1.05
   6 -14 -18    0.66    0.73
   6 -14 -17    3.35    0.66
   6 -14 -16    1.37    0.58
   6 -14 -15   26.57    1.27
   6 -14 -14    1.69    0.53
   6 -14 -13    4.97    0.57
   6 -14 -12    5.61    0.69
   6 -14 -11    0.46    0.55
   6 -14 -10    8.50    0.67
   6 -14  -9   23.22    0.94
   6 -14  -8    6.05    0.62
   6 -14  -7   10.31    0.74
   6 -14  -6    0.09    0.47
   6 -14  -5   17.42    0.96
   6 -14  -4    2.43    0.63
   6 -14  -3   12.14    0.76
   6 -14  -2   12.68    0.85
   6 -14  -1   34.74    1.32
   6 -14   0    1.09    0.53
   6 -14   1   -0.07    0.66
   6 -14   2   52.59    1.61
   6 -14   3   13.40    0.98
   6 -14   4    1.89    0.74
   6 -14   5   34.65    1.23
   6 -14   6   -0.49    0.94
   6 -14   7  157.06    3.52
   6 -14   8   64.88    1.86
   6 -14   9    0.55    0.94
   6 -14  10    1.96    0.70
   6 -14  11   30.34    1.31
   6 -14  12   -0.64    0.71
   6 -14  13   48.95    1.53
   6 -14  14    6.30    0.97
   6 -14  15   -0.36    0.78
   7 -14 -18    6.85    1.64
   7 -14 -17    0.17    0.72
   7 -14 -16   42.18    1.36
   7 -14 -15    3.66    0.69
   7 -14 -14    2.13    0.57
   7 -14 -13    0.08    0.57
   7 -14 -12    0.27    0.71
   7 -14 -11    4.24    0.59
   7 -14 -10   10.15    0.72
   7 -14  -9    1.73    0.56
   7 -14  -8    2.96    0.60
   7 -14  -7    0.53    0.56
   7 -14  -6    4.08    0.72
   7 -14  -5    8.21    0.65
   7 -14  -4    2.18    0.68
   7 -14  -3    1.07    0.66
   7 -14  -2    6.41    0.81
   7 -14  -1    0.63    0.82
   7 -14   0    0.11    0.66
   7 -14   1   11.20    0.80
   7 -14   2   16.80    0.92
   7 -14   3   58.46    1.73
   7 -14   4   17.46    1.14
   7 -14   5    0.35    0.60
   7 -14   6   50.38    1.71
   7 -14   7  103.98    2.67
   7 -14   8    3.86    0.69
   7 -14   9    4.13    0.85
   7 -14  10   11.31    0.94
   7 -14  11   10.61    0.79
   7 -14  12   43.97    1.37
   7 -14  13   12.39    0.92
   7 -14  14    0.43    0.69
   8 -14 -17   10.96    0.90
   8 -14 -16    1.18    0.83
   8 -14 -15    9.87    0.74
   8 -14 -14    1.66    0.68
   8 -14 -13   15.87    0.92
   8 -14 -12    4.82    0.62
   8 -14 -11   41.87    1.41
   8 -14 -10   17.18    0.92
   8 -14  -9    4.89    0.67
   8 -14  -8   23.42    1.02
   8 -14  -7   28.02    1.16
   8 -14  -6    2.51    0.70
   8 -14  -5    0.87    0.70
   8 -14  -4    0.49    0.56
   8 -14  -3   18.34    0.97
   8 -14  -2    6.64    0.76
   8 -14  -1    1.64    0.66
   8 -14   0    0.95    0.79
   8 -14   1   -0.36    0.74
   8 -14   2    8.30    0.79
   8 -14   3   29.05    1.30
   8 -14   4   16.01    0.97
   8 -14   5    9.22    0.94
   8 -14   6    0.08    0.81
   8 -14   7   38.99    1.44
   8 -14   8    2.02    0.77
   8 -14   9   28.03    1.24
   8 -14  10    1.71    0.67
   8 -14  11   23.50    1.29
   8 -14  12    0.21    0.58
   8 -14  13    0.42    0.79
   8 -14  14    0.93    1.39
   9 -14 -17   -0.15    0.66
   9 -14 -16   14.95    0.81
   9 -14 -15   -0.42    0.64
   9 -14 -14   14.59    0.97
   9 -14 -13   20.06    0.96
   9 -14 -12   12.62    0.81
   9 -14 -11   15.08    0.90
   9 -14 -10    1.74    0.54
   9 -14  -9   25.32    1.09
   9 -14  -8   30.73    1.23
   9 -14  -7    5.80    0.75
   9 -14  -6   11.92    0.83
   9 -14  -5    2.38    0.60
   9 -14  -4    1.39    0.66
   9 -14  -3    9.63    0.82
   9 -14  -2   -0.08    0.68
   9 -14  -1    1.31    0.63
   9 -14   0   86.62    2.25
   9 -14   1   -1.01    0.82
   9 -14   2   49.16    1.59
   9 -14   3    1.51    0.70
   9 -14   4    5.73    0.99
   9 -14   5   -0.68    0.65
   9 -14   6   25.29    1.21
   9 -14   7   -0.26    0.70
   9 -14   8    6.31    0.70
   9 -14   9    3.94    0.76
   9 -14  10    1.52    0.75
   9 -14  11    2.96    0.66
   9 -14  12    1.42    0.73
   9 -14  13    1.39    0.82
  10 -14 -16   -0.03    0.65
  10 -14 -15    3.26    0.70
  10 -14 -14    5.50    0.82
  10 -14 -13    0.72    0.63
  10 -14 -12   20.27    1.02
  10 -14 -11    6.35    0.83
  10 -14 -10    3.89    0.68
  10 -14  -9   41.60    1.44
  10 -14  -8    1.91    0.72
  10 -14  -7   26.88    1.22
  10 -14  -6    7.70    0.79
  10 -14  -5    3.28    0.77
  10 -14  -4   40.30    1.37
  10 -14  -3   17.19    1.14
  10 -14  -2   -0.45    0.74
  10 -14  -1   27.65    1.18
  10 -14   0    1.44    0.80
  10 -14   1   53.10    1.69
  10 -14   2    7.06    0.89
  10 -14   3    3.27    0.77
  10 -14   4    0.22    0.70
  10 -14   5   39.10    1.52
  10 -14   6    2.53    0.77
  10 -14   7    4.35    0.74
  10 -14   8    8.49    0.99
  10 -14   9   -0.19    0.64
  10 -14  10   20.89    1.09
  10 -14  11   14.30    1.06
  10 -14  12    1.44    0.74
  11 -14 -15    6.47    0.83
  11 -14 -14    0.55    0.56
  11 -14 -13    3.23    0.63
  11 -14 -12    7.74    0.88
  11 -14 -11    0.33    0.67
  11 -14 -10   19.61    1.09
  11 -14  -9    0.60    0.61
  11 -14  -8    5.19    0.80
  11 -14  -7    7.49    0.75
  11 -14  -6    6.88    0.81
  11 -14  -5    5.97    0.77
  11 -14  -4   72.51    1.87
  11 -14  -3   10.36    0.82
  11 -14  -2   19.12    0.96
  11 -14  -1    5.10    0.89
  11 -14   0    3.53    0.73
  11 -14   1    1.91    0.75
  11 -14   2   51.37    1.59
  11 -14   3    1.04    0.65
  11 -14   4  112.94    2.79
  11 -14   5    0.15    0.66
  11 -14   6    6.61    0.78
  11 -14   7    1.15    0.79
  11 -14   8    0.59    0.75
  11 -14   9    5.61    0.80
  11 -14  10   16.62    0.99
  12 -14 -14   -0.30    0.68
  12 -14 -13   21.09    1.10
  12 -14 -12    0.09    0.85
  12 -14 -11    9.83    0.92
  12 -14 -10    1.76    0.77
  12 -14  -9    0.56    0.63
  12 -14  -8    5.43    0.72
  12 -14  -7   29.66    1.19
  12 -14  -6    0.57    0.66
  12 -14  -5    7.04    0.77
  12 -14  -4    1.61    0.85
  12 -14  -3    1.06    0.79
  12 -14  -2    4.51    0.78
  12 -14  -1    9.54    0.88
  12 -14   0    0.82    0.77
  12 -14   1   11.82    0.95
  12 -14   2   -0.10    0.71
  12 -14   3   19.22    1.17
  12 -14   4    1.65    0.70
  12 -14   5    0.25    0.73
  12 -14   6    8.71    0.85
  12 -14   7   12.22    0.91
  12 -14   8    2.52    0.86
  12 -14   9   17.50    1.14
  13 -14 -13    0.49    0.72
  13 -14 -12    3.95    0.93
  13 -14 -11    1.91    0.77
  13 -14 -10    0.73    0.91
  13 -14  -9    2.46    0.81
  13 -14  -8    8.08    0.85
  13 -14  -7    0.30    0.84
  13 -14  -6    3.41    0.77
  13 -14  -5   17.80    1.09
  13 -14  -4    0.96    0.65
  13 -14  -3    0.78    0.71
  13 -14  -2    7.10    1.08
  13 -14  -1    0.29    0.72
  13 -14   0   24.11    1.14
  13 -14   1   30.38    1.32
  13 -14   2    1.99    0.70
  13 -14   3    3.94    0.82
  13 -14   4   16.08    0.90
  13 -14   5   18.71    1.08
  13 -14   6   23.56    1.23
  13 -14   7   -0.22    0.72
  14 -14 -11    7.77    0.85
  14 -14 -10    2.73    0.70
  14 -14  -9    7.56    0.83
  14 -14  -8    0.54    0.69
  14 -14  -7   -0.10    0.71
  14 -14  -6    1.16    0.69
  14 -14  -5    0.72    0.82
  14 -14  -4   -0.23    0.81
  14 -14  -3    1.29    0.75
  14 -14  -2    0.30    0.67
  14 -14  -1    7.92    0.89
  14 -14   0    0.13    0.82
  14 -14   1   -0.46    0.70
  14 -14   2    8.32    0.97
  14 -14   3   11.53    0.89
  14 -14   4    9.50    0.92
  14 -14   5    1.55    0.84
  15 -14  -9   -0.18    0.72
  15 -14  -8    0.54    0.70
  15 -14  -7    0.14    0.77
  15 -14  -6    0.75    0.78
  15 -14  -5   -0.62    0.69
  15 -14  -4    2.90    0.75
  15 -14  -3    5.86    0.90
  15 -14  -2   12.69    0.95
  15 -14  -1    0.23    0.79
  15 -14   0    1.92    0.90
  15 -14   1    0.45    0.72
  15 -14   2   17.38    1.12
 -14 -15  -2    1.82    1.11
 -14 -15  -1   11.76    0.81
 -14 -15   0   -0.21    0.66
 -14 -15   1    5.60    0.73
 -14 -15   2    1.00    0.66
 -14 -15   3    1.00    0.95
 -14 -15   4    0.76    0.66
 -14 -15   5    5.42    0.87
 -14 -15   6   -0.15    0.64
 -14 -15   7    9.69    0.77
 -14 -15   8    2.22    0.94
 -14 -15   9    1.02    1.25
 -13 -15  -3    0.62    0.93
 -13 -15  -2   15.43    1.17
 -13 -15  -1    6.16    0.76
 -13 -15   0    5.63    0.71
 -13 -15   1    3.14    0.79
 -13 -15   2    0.83    0.76
 -13 -15   3    0.99    0.76
 -13 -15   4    6.47    0.82
 -13 -15   5    1.06    0.82
 -13 -15   6    5.76    0.81
 -13 -15   7    4.86    0.79
 -13 -15   8    6.38    0.85
 -13 -15   9    7.88    0.82
 -13 -15  10   16.22    0.96
 -13 -15  11   -0.44    0.90
 -12 -15  -3    0.50    0.62
 -12 -15  -2    0.00    0.54
 -12 -15  -1    1.73    0.72
 -12 -15   0    0.20    0.61
 -12 -15   1   19.46    1.10
 -12 -15   2    4.51    0.71
 -12 -15   3   17.93    0.87
 -12 -15   4    1.87    0.66
 -12 -15   5    1.43    0.62
 -12 -15   6    4.08    0.71
 -12 -15   7    6.10    0.73
 -12 -15   8    0.58    0.64
 -12 -15   9   37.13    1.34
 -12 -15  10    6.95    0.85
 -12 -15  11    0.52    0.63
 -12 -15  12    4.43    0.65
 -11 -15  -3    2.72    0.47
 -11 -15  -2    0.02    0.55
 -11 -15  -1   25.40    1.02
 -11 -15   0   15.72    0.96
 -11 -15   1    0.28    0.64
 -11 -15   2   24.63    1.18
 -11 -15   3    0.58    0.71
 -11 -15   4   -0.26    0.62
 -11 -15   5   16.40    0.87
 -11 -15   6    9.15    0.75
 -11 -15   7   -0.27    0.82
 -11 -15   8   14.05    0.88
 -11 -15   9    0.25    0.83
 -11 -15  10   -0.11    0.67
 -11 -15  11    2.77    0.71
 -11 -15  12    0.75    0.65
 -11 -15  13   -0.32    0.71
 -11 -15  14    2.45    0.89
 -10 -15  -3    4.26    0.48
 -10 -15  -2    0.42    0.51
 -10 -15  -1   17.43    0.95
 -10 -15   0    5.27    0.72
 -10 -15   1   11.47    0.79
 -10 -15   2    0.14    0.55
 -10 -15   3    8.48    0.81
 -10 -15   4   -0.23    0.63
 -10 -15   5   35.66    1.40
 -10 -15   6    2.62    0.79
 -10 -15   7    0.64    0.63
 -10 -15   8    5.84    0.79
 -10 -15   9    8.82    0.79
 -10 -15  10   -0.26    0.62
 -10 -15  11   26.09    1.15
 -10 -15  12   -0.05    0.74
 -10 -15  13    6.92    1.00
 -10 -15  14    0.90    1.06
 -10 -15  15    1.03    0.98
  -9 -15  -3    2.95    0.43
  -9 -15  -2    5.94    0.61
  -9 -15  -1   12.26    0.79
  -9 -15   0    3.26    0.63
  -9 -15   1    4.13    0.66
  -9 -15   2   64.37    1.83
  -9 -15   3    2.85    0.65
  -9 -15   4   33.21    1.19
  -9 -15   5    0.84    0.71
  -9 -15   6    5.02    0.69
  -9 -15   7    1.38    0.68
  -9 -15   8   41.88    1.26
  -9 -15   9   10.31    0.79
  -9 -15  10   27.69    1.19
  -9 -15  11    1.47    0.76
  -9 -15  12   24.87    1.08
  -9 -15  13   -0.49    0.73
  -9 -15  14    1.79    0.71
  -9 -15  15    0.95    0.79
  -8 -15  -3    1.73    0.45
  -8 -15  -2    0.67    0.52
  -8 -15  -1   25.86    1.08
  -8 -15   0    3.33    0.55
  -8 -15   1  140.76    3.06
  -8 -15   2    4.05    0.64
  -8 -15   3   57.51    1.64
  -8 -15   4    6.08    0.64
  -8 -15   5   37.65    1.45
  -8 -15   6   15.67    0.82
  -8 -15   7   70.80    1.71
  -8 -15   8    0.21    0.73
  -8 -15   9   13.24    1.04
  -8 -15  10    0.35    0.63
  -8 -15  11    0.76    0.72
  -8 -15  12    4.95    0.81
  -8 -15  13    3.21    0.76
  -8 -15  14    4.19    0.71
  -8 -15  15    9.58    0.86
  -8 -15  16    1.45    0.81
  -7 -15  -4    0.28    0.25
  -7 -15  -3   16.16    0.71
  -7 -15  -2   31.85    1.13
  -7 -15  -1    7.67    0.59
  -7 -15   0   46.89    1.50
  -7 -15   1    0.02    0.57
  -7 -15   2    2.59    0.58
  -7 -15   3   12.43    0.75
  -7 -15   4    0.46    0.61
  -7 -15   5    9.19    0.69
  -7 -15   6   31.60    1.28
  -7 -15   7    8.08    0.89
  -7 -15   8   17.78    1.01
  -7 -15   9    6.57    0.77
  -7 -15  10   33.59    1.28
  -7 -15  11   -0.17    0.65
  -7 -15  12   14.30    0.99
  -7 -15  13    1.87    0.73
  -7 -15  14    4.82    0.73
  -7 -15  15    3.02    0.75
  -7 -15  16    0.56    0.66
  -6 -15  -4   -0.14    0.33
  -6 -15  -3    0.79    0.41
  -6 -15  -2    1.37    0.48
  -6 -15  -1   16.30    0.89
  -6 -15   0    0.44    0.50
  -6 -15   1    0.80    0.51
  -6 -15   2    0.42    0.54
  -6 -15   3   14.46    0.78
  -6 -15   4    9.55    0.80
  -6 -15   5   37.71    1.30
  -6 -15   6   11.25    0.77
  -6 -15   7   32.76    1.31
  -6 -15   8   32.93    1.33
  -6 -15   9   16.57    1.03
  -6 -15  10    0.23    0.74
  -6 -15  11   31.45    1.31
  -6 -15  12    5.00    0.73
  -6 -15  13    8.99    0.75
  -6 -15  14    5.53    0.76
  -6 -15  15   -0.03    0.79
  -6 -15  16    3.96    0.95
  -6 -15  17    0.89    0.77
  -5 -15  -4   12.29    0.68
  -5 -15  -3    1.46    0.42
  -5 -15  -2   60.99    1.57
  -5 -15  -1    4.69    0.56
  -5 -15   0    0.21    0.47
  -5 -15   1    7.91    0.59
  -5 -15   2  113.14    2.84
  -5 -15   3    3.69    0.52
  -5 -15   4   20.78    0.91
  -5 -15   5    0.60    0.61
  -5 -15   6   13.77    0.83
  -5 -15   7   29.94    1.29
  -5 -15   8    0.76    0.56
  -5 -15   9    0.10    0.56
  -5 -15  10   13.07    0.88
  -5 -15  11    1.98    0.76
  -5 -15  12    0.79    0.72
  -5 -15  13   12.61    0.90
  -5 -15  14   -0.34    0.62
  -5 -15  15    6.33    0.77
  -5 -15  16   -0.02    0.69
  -5 -15  17    0.53    0.95
  -4 -15  -5   42.02    1.35
  -4 -15  -4   24.77    0.86
  -4 -15  -3   62.83    1.77
  -4 -15  -2    3.07    0.47
  -4 -15  -1    1.62    0.47
  -4 -15   0   11.89    0.70
  -4 -15   1   28.04    1.03
  -4 -15   2    4.54    0.61
  -4 -15   3   43.81    1.32
  -4 -15   4    1.83    0.58
  -4 -15   5   30.58    1.12
  -4 -15   6    4.13    0.61
  -4 -15   7    1.33    0.67
  -4 -15   8    4.44    0.65
  -4 -15   9   25.76    1.11
  -4 -15  10    0.86    0.58
  -4 -15  11    7.11    0.70
  -4 -15  12   16.72    1.01
  -4 -15  13   10.95    0.92
  -4 -15  14    6.01    0.78
  -4 -15  15   10.73    0.81
  -4 -15  16    0.63    0.72
  -4 -15  17    7.67    0.81
  -3 -15  -6   26.24    0.77
  -3 -15  -5    3.35    0.40
  -3 -15  -4    1.06    0.39
  -3 -15  -3   34.68    1.21
  -3 -15  -2   16.81    0.75
  -3 -15  -1   20.59    0.84
  -3 -15   0   56.51    1.63
  -3 -15   1    0.35    0.53
  -3 -15   2   15.54    0.86
  -3 -15   3   42.77    1.39
  -3 -15   4  108.70    2.81
  -3 -15   5   32.04    1.15
  -3 -15   6   30.88    1.12
  -3 -15   7    1.14    0.69
  -3 -15   8   69.62    2.14
  -3 -15   9    1.64    0.67
  -3 -15  10    2.20    0.64
  -3 -15  11   14.73    0.80
  -3 -15  12    1.81    0.68
  -3 -15  13    1.75    0.71
  -3 -15  14   11.98    0.85
  -3 -15  15    4.50    0.75
  -3 -15  16   -0.42    0.79
  -3 -15  17   -0.08    0.65
  -2 -15  -7    8.88    0.63
  -2 -15  -6    2.75    0.35
  -2 -15  -5   53.12    1.56
  -2 -15  -4   25.20    0.92
  -2 -15  -3   32.27    1.03
  -2 -15  -2   -0.01    0.46
  -2 -15  -1    1.30    0.56
  -2 -15   0    1.35    0.63
  -2 -15   1   30.55    1.14
  -2 -15   2   27.03    1.19
  -2 -15   3   48.40    1.64
  -2 -15   4    3.43    0.63
  -2 -15   5   64.65    1.95
  -2 -15   6    0.00    0.54
  -2 -15   7    1.91    0.68
  -2 -15   8    4.22    0.70
  -2 -15   9    5.54    0.74
  -2 -15  10    1.59    0.63
  -2 -15  11   10.26    0.84
  -2 -15  12    2.20    0.76
  -2 -15  13    0.80    0.92
  -2 -15  14   -0.12    0.76
  -2 -15  15    1.17    0.74
  -2 -15  16    2.69    0.76
  -2 -15  17   -0.11    0.59
  -1 -15  -8    8.93    0.79
  -1 -15  -7    2.85    0.37
  -1 -15  -6   22.75    0.88
  -1 -15  -5    3.46    0.49
  -1 -15  -4   26.88    1.02
  -1 -15  -3   52.20    1.50
  -1 -15  -2    2.80    0.54
  -1 -15  -1    7.38    0.63
  -1 -15   0   73.11    2.02
  -1 -15   1    6.44    0.77
  -1 -15   2   24.85    1.10
  -1 -15   3   13.13    0.81
  -1 -15   4    6.01    0.61
  -1 -15   5   20.44    1.04
  -1 -15   6   26.27    1.12
  -1 -15   7   -0.88    0.71
  -1 -15   8   18.66    0.96
  -1 -15   9   24.21    1.10
  -1 -15  10   16.91    1.02
  -1 -15  11   22.70    1.12
  -1 -15  12    9.87    0.85
  -1 -15  13    0.96    0.95
  -1 -15  14    2.16    0.80
  -1 -15  15    0.07    0.89
  -1 -15  16    1.25    0.78
  -1 -15  17    0.76    0.73
   0 -15  -9    3.76    0.36
   0 -15  -8    1.25    0.32
   0 -15  -7   66.47    2.03
   0 -15  -6   -0.34    0.38
   0 -15  -5    4.59    0.49
   0 -15  -4  106.77    2.80
   0 -15  -3    6.99    0.56
   0 -15  -2   33.61    1.25
   0 -15  -1   33.81    1.15
   0 -15   0   -0.40    0.53
   0 -15   1   33.32    1.36
   0 -15   2   36.54    1.26
   0 -15   3    7.72    0.67
   0 -15   4  112.26    2.98
   0 -15   5    4.53    0.70
   0 -15   6   -0.45    0.56
   0 -15   7   75.71    2.26
   0 -15   8    1.78    0.60
   0 -15   9    4.82    0.71
   0 -15  10   10.52    0.87
   0 -15  11   12.84    0.96
   0 -15  12    0.19    0.64
   0 -15  13   14.07    1.10
   0 -15  14    5.73    0.83
   0 -15  15    8.43    1.10
   0 -15  16    2.28    0.81
   0 -15  17    0.37    0.96
   1 -15 -11   14.09    0.50
   1 -15 -10   15.93    0.68
   1 -15  -9   23.42    0.85
   1 -15  -8   16.83    0.80
   1 -15  -7   -0.06    0.42
   1 -15  -6   24.88    0.94
   1 -15  -5   19.62    0.82
   1 -15  -4    5.99    0.52
   1 -15  -3   13.55    0.68
   1 -15  -2   24.23    1.01
   1 -15  -1    6.25    0.58
   1 -15   0   73.15    2.06
   1 -15   1    6.98    0.70
   1 -15   2    2.48    0.72
   1 -15   3   55.26    1.76
   1 -15   4   27.71    1.13
   1 -15   5    5.06    0.83
   1 -15   6   23.12    1.05
   1 -15   7    3.06    0.72
   1 -15   8   12.26    0.84
   1 -15   9    4.73    0.66
   1 -15  10    6.56    0.81
   1 -15  11    3.56    0.78
   1 -15  12   15.66    1.09
   1 -15  13    4.15    0.70
   1 -15  14    1.72    0.72
   1 -15  15   -0.82    0.70
   1 -15  16    0.09    0.71
   1 -15  17    6.36    2.11
   2 -15 -13    0.65    0.29
   2 -15 -12    2.27    0.39
   2 -15 -11   10.30    0.68
   2 -15 -10    2.07    0.44
   2 -15  -9    6.26    0.55
   2 -15  -8    3.07    0.50
   2 -15  -7    0.93    0.51
   2 -15  -6    0.33    0.45
   2 -15  -5   61.31    1.63
   2 -15  -4    3.68    0.50
   2 -15  -3   47.20    1.43
   2 -15  -2   24.69    0.99
   2 -15  -1   30.10    1.13
   2 -15   0    0.53    0.68
   2 -15   1    1.53    0.65
   2 -15   2    0.67    0.51
   2 -15   3   34.80    1.26
   2 -15   4   24.96    1.05
   2 -15   5   54.40    1.73
   2 -15   6    2.88    0.66
   2 -15   7   12.33    0.86
   2 -15   8    2.59    0.74
   2 -15   9    6.69    0.77
   2 -15  10    1.85    0.77
   2 -15  11   18.62    1.02
   2 -15  12    6.59    0.99
   2 -15  13    1.39    0.66
   2 -15  14    0.00    0.80
   2 -15  15    5.58    0.78
   2 -15  16    0.56    0.80
   3 -15 -15    2.61    0.39
   3 -15 -14    9.83    0.61
   3 -15 -13    0.89    0.51
   3 -15 -12    1.69    0.48
   3 -15 -11   12.84    0.78
   3 -15 -10    2.38    0.48
   3 -15  -9    1.37    0.45
   3 -15  -8   64.76    2.02
   3 -15  -7    1.58    0.51
   3 -15  -6   31.00    1.20
   3 -15  -5   30.53    1.07
   3 -15  -4  106.10    2.72
   3 -15  -3   40.74    1.40
   3 -15  -2   14.11    0.76
   3 -15  -1    0.29    0.70
   3 -15   0   56.53    1.58
   3 -15   1   20.82    0.99
   3 -15   2   16.41    0.94
   3 -15   3   39.10    1.25
   3 -15   4    0.91    0.59
   3 -15   5    4.28    0.81
   3 -15   6   37.36    1.22
   3 -15   7   40.55    1.37
   3 -15   8   26.37    1.09
   3 -15   9    2.06    0.67
   3 -15  10   16.03    1.03
   3 -15  11    6.15    0.83
   3 -15  12    1.19    0.69
   3 -15  13    4.44    0.79
   3 -15  14    7.21    0.74
   3 -15  15    1.47    0.66
   3 -15  16    1.46    0.73
   4 -15 -16    1.66    0.48
   4 -15 -15    9.96    0.91
   4 -15 -14    5.16    0.71
   4 -15 -13   10.54    0.80
   4 -15 -12   15.04    0.85
   4 -15 -11    7.79    0.64
   4 -15 -10    0.09    0.51
   4 -15  -9   23.47    1.04
   4 -15  -8    4.48    0.56
   4 -15  -7    0.67    0.52
   4 -15  -6    3.91    0.58
   4 -15  -5   29.19    1.13
   4 -15  -4    1.28    0.50
   4 -15  -3   45.07    1.42
   4 -15  -2    3.90    0.75
   4 -15  -1   28.42    1.14
   4 -15   0   13.25    0.89
   4 -15   1    0.97    0.64
   4 -15   2    1.32    0.75
   4 -15   3   67.88    1.83
   4 -15   4   27.15    1.18
   4 -15   5   47.39    1.58
   4 -15   6   16.54    0.90
   4 -15   7   56.09    1.74
   4 -15   8    4.35    0.67
   4 -15   9   11.80    0.88
   4 -15  10    0.24    0.74
   4 -15  11   22.10    1.26
   4 -15  12    1.26    0.67
   4 -15  13   13.40    0.98
   4 -15  14   17.59    0.93
   4 -15  15    0.88    0.81
   5 -15 -17    1.51    0.79
   5 -15 -16   -0.60    0.57
   5 -15 -15    5.58    0.71
   5 -15 -14   -0.03    0.56
   5 -15 -13   11.10    0.78
   5 -15 -12    1.46    0.52
   5 -15 -11    2.11    0.57
   5 -15 -10   12.15    0.72
   5 -15  -9    0.01    0.52
   5 -15  -8    1.04    0.53
   5 -15  -7   28.66    1.10
   5 -15  -6   12.18    0.85
   5 -15  -5    0.21    0.51
   5 -15  -4   20.06    0.97
   5 -15  -3    2.94    0.61
   5 -15  -2  109.81    2.56
   5 -15  -1    9.01    0.75
   5 -15   0    0.05    0.58
   5 -15   1    3.18    0.67
   5 -15   2   63.36    1.87
   5 -15   3    2.19    0.65
   5 -15   4   12.87    0.80
   5 -15   5    6.66    0.94
   5 -15   6   36.19    1.35
   5 -15   7    0.57    0.93
   5 -15   8    0.06    0.71
   5 -15   9    1.00    0.83
   5 -15  10   61.68    1.69
   5 -15  11    1.40    0.79
   5 -15  12   39.55    1.33
   5 -15  13   14.65    0.91
   5 -15  14    4.17    0.88
   5 -15  15    3.55    0.72
   6 -15 -16    3.86    0.77
   6 -15 -15    0.37    0.68
   6 -15 -14    5.74    0.63
   6 -15 -13    9.87    0.67
   6 -15 -12    5.76    0.66
   6 -15 -11   29.49    1.07
   6 -15 -10   -0.11    0.56
   6 -15  -9   16.55    0.87
   6 -15  -8   31.65    1.11
   6 -15  -7   34.10    1.21
   6 -15  -6   10.28    0.80
   6 -15  -5   36.24    1.25
   6 -15  -4   11.76    0.85
   6 -15  -3   15.02    0.80
   6 -15  -2   -0.24    0.55
   6 -15  -1    1.07    0.60
   6 -15   0   -0.10    0.57
   6 -15   1   18.61    0.95
   6 -15   2    1.26    0.65
   6 -15   3    1.57    0.82
   6 -15   4    0.64    0.66
   6 -15   5    0.90    0.90
   6 -15   6   10.46    0.86
   6 -15   7    7.77    0.89
   6 -15   8   16.74    0.96
   6 -15   9   50.98    1.55
   6 -15  10    4.53    0.97
   6 -15  11    4.15    0.75
   6 -15  12   10.28    0.85
   6 -15  13    0.17    0.60
   6 -15  14    7.52    0.88
   7 -15 -16    0.05    0.85
   7 -15 -15    2.12    0.70
   7 -15 -14    4.69    0.63
   7 -15 -13    1.73    0.59
   7 -15 -12   12.72    0.84
   7 -15 -11    1.36    0.64
   7 -15 -10   32.04    1.06
   7 -15  -9    5.59    0.74
   7 -15  -8   14.79    0.80
   7 -15  -7    8.19    0.80
   7 -15  -6   31.27    1.30
   7 -15  -5    8.49    0.78
   7 -15  -4   -0.25    0.55
   7 -15  -3   12.45    0.89
   7 -15  -2    2.64    0.68
   7 -15  -1    0.59    0.78
   7 -15   0   50.93    1.61
   7 -15   1    7.04    0.78
   7 -15   2   34.38    1.20
   7 -15   3   18.55    1.01
   7 -15   4    0.74    0.59
   7 -15   5    3.25    0.82
   7 -15   6    9.91    0.90
   7 -15   7   12.22    0.94
   7 -15   8   32.76    1.35
   7 -15   9    3.64    0.72
   7 -15  10    0.08    0.78
   7 -15  11   15.56    1.01
   7 -15  12    3.80    0.75
   7 -15  13    3.18    0.67
   8 -15 -16    0.58    1.14
   8 -15 -15    8.97    0.83
   8 -15 -14    4.32    0.74
   8 -15 -13    2.58    0.77
   8 -15 -12    4.80    0.72
   8 -15 -11    0.15    0.65
   8 -15 -10    0.11    0.65
   8 -15  -9   11.96    0.98
   8 -15  -8    0.90    0.57
   8 -15  -7   68.84    1.87
   8 -15  -6   15.16    0.91
   8 -15  -5   36.67    1.63
   8 -15  -4    5.54    0.70
   8 -15  -3   55.48    1.66
   8 -15  -2    5.08    0.77
   8 -15  -1  145.77    3.07
   8 -15   0    2.45    0.86
   8 -15   1   29.45    1.22
   8 -15   2    0.10    0.72
   8 -15   3    1.95    0.73
   8 -15   4    1.33    0.70
   8 -15   5   46.08    1.72
   8 -15   6    3.57    0.79
   8 -15   7   57.82    2.08
   8 -15   8    7.64    0.77
   8 -15   9    1.79    0.66
   8 -15  10   17.33    1.09
   8 -15  11    0.78    0.64
   8 -15  12    1.42    0.81
   9 -15 -15    0.40    0.59
   9 -15 -14    1.54    0.72
   9 -15 -13    0.47    0.67
   9 -15 -12   22.40    0.99
   9 -15 -11    0.76    0.69
   9 -15 -10   28.89    1.15
   9 -15  -9    9.06    0.77
   9 -15  -8   40.86    1.50
   9 -15  -7    1.67    0.60
   9 -15  -6    4.89    0.75
   9 -15  -5   -0.19    0.58
   9 -15  -4   34.88    1.42
   9 -15  -3    2.43    0.63
   9 -15  -2   69.30    1.91
   9 -15  -1    4.57    0.73
   9 -15   0    2.74    0.63
   9 -15   1   12.55    1.00
   9 -15   2    7.02    0.76
   9 -15   3    2.57    0.75
   9 -15   4   13.13    0.96
   9 -15   5    0.42    0.63
   9 -15   6   12.42    0.99
   9 -15   7    7.39    0.79
   9 -15   8    1.45    0.77
   9 -15   9   13.27    0.91
   9 -15  10    3.00    0.69
   9 -15  11   -0.07    0.76
  10 -15 -15    2.27    1.69
  10 -15 -14    1.14    0.71
  10 -15 -13    6.46    0.67
  10 -15 -12    0.40    0.82
  10 -15 -11   24.61    1.15
  10 -15 -10   -0.09    0.65
  10 -15  -9    8.33    0.80
  10 -15  -8    6.47    0.73
  10 -15  -7   -0.15    0.83
  10 -15  -6    2.20    0.72
  10 -15  -5   37.29    1.49
  10 -15  -4   -0.53    0.72
  10 -15  -3   10.48    1.07
  10 -15  -2    0.90    0.79
  10 -15  -1   12.99    0.86
  10 -15   0    4.12    0.69
  10 -15   1   17.90    0.99
  10 -15   2    0.51    0.83
  10 -15   3    5.54    0.82
  10 -15   4    1.07    0.77
  10 -15   5    0.26    0.69
  10 -15   6    2.08    0.81
  10 -15   7   13.00    1.02
  10 -15   8    0.99    0.68
  10 -15   9   16.97    1.06
  10 -15  10    5.45    0.83
  11 -15 -14    3.54    1.42
  11 -15 -13    0.05    0.67
  11 -15 -12    0.31    0.73
  11 -15 -11    2.54    0.80
  11 -15 -10    0.09    0.63
  11 -15  -9   -0.01    0.70
  11 -15  -8   16.09    0.89
  11 -15  -7    0.15    0.62
  11 -15  -6    8.37    0.80
  11 -15  -5   18.08    1.03
  11 -15  -4   -0.60    0.64
  11 -15  -3    0.64    0.61
  11 -15  -2   27.59    1.07
  11 -15  -1    0.27    0.86
  11 -15   0   17.25    1.00
  11 -15   1   27.22    1.40
  11 -15   2   -0.05    0.76
  11 -15   3    3.45    0.74
  11 -15   4    3.54    0.82
  11 -15   5    0.24    0.65
  11 -15   6   15.74    1.19
  11 -15   7    0.59    0.75
  11 -15   8    8.33    0.81
  11 -15   9    9.71    1.20
  12 -15 -12    2.54    0.80
  12 -15 -11    1.28    0.69
  12 -15 -10    8.02    0.81
  12 -15  -9   37.85    1.27
  12 -15  -8    0.25    0.70
  12 -15  -7    4.81    0.75
  12 -15  -6    4.25    0.81
  12 -15  -5    0.97    0.71
  12 -15  -4    1.53    0.86
  12 -15  -3   17.46    1.03
  12 -15  -2    4.01    0.92
  12 -15  -1   24.09    1.06
  12 -15   0    0.18    0.85
  12 -15   1    2.15    0.79
  12 -15   2    0.89    0.75
  12 -15   3    1.98    0.91
  12 -15   4    0.68    0.66
  12 -15   5    7.72    0.82
  12 -15   6    2.85    0.72
  12 -15   7    3.98    0.77
  13 -15 -11    0.07    0.80
  13 -15 -10   19.03    1.48
  13 -15  -9    8.16    0.93
  13 -15  -8    6.66    1.01
  13 -15  -7    6.04    0.86
  13 -15  -6    6.78    0.91
  13 -15  -5    0.08    0.67
  13 -15  -4    6.40    0.74
  13 -15  -3    2.55    0.72
  13 -15  -2    0.61    0.73
  13 -15  -1    2.71    0.73
  13 -15   0    4.74    0.90
  13 -15   1    6.98    0.96
  13 -15   2   17.03    1.08
  13 -15   3   -0.86    0.75
  13 -15   4    3.14    0.71
  13 -15   5    6.60    0.99
  14 -15  -9    2.08    1.24
  14 -15  -8    4.37    0.78
  14 -15  -7   11.34    0.87
  14 -15  -6   -0.62    0.64
  14 -15  -5    5.23    0.86
  14 -15  -4    0.64    0.83
  14 -15  -3    0.90    0.78
  14 -15  -2    1.95    0.72
  14 -15  -1    7.00    0.97
  14 -15   0    0.34    0.74
  14 -15   1   15.00    0.97
  14 -15   2    0.32    0.87
  14 -15   3    6.68    1.71
 -13 -16  -2    1.06    0.74
 -13 -16  -1    2.25    0.89
 -13 -16   0    3.13    0.75
 -13 -16   1    1.52    0.83
 -13 -16   2   -0.07    0.72
 -13 -16   3    3.61    0.87
 -13 -16   4    3.26    0.95
 -13 -16   5    7.99    0.85
 -13 -16   6   -0.11    0.89
 -13 -16   7   -0.33    0.99
 -12 -16  -2    6.12    0.72
 -12 -16  -1    4.79    0.66
 -12 -16   0    9.44    0.92
 -12 -16   1    0.82    0.77
 -12 -16   2   24.39    1.04
 -12 -16   3    4.13    0.76
 -12 -16   4    4.65    0.71
 -12 -16   5    0.47    0.68
 -12 -16   6    1.02    0.81
 -12 -16   7   -0.68    0.62
 -12 -16   8    1.71    0.64
 -12 -16   9    0.56    0.61
 -12 -16  10    6.72    0.87
 -11 -16  -2    2.11    0.68
 -11 -16  -1   10.60    0.71
 -11 -16   0    2.00    0.71
 -11 -16   1   29.55    1.13
 -11 -16   2    0.20    0.77
 -11 -16   3    0.06    0.59
 -11 -16   4    1.21    0.75
 -11 -16   5    1.60    0.77
 -11 -16   6    1.74    0.64
 -11 -16   7    8.46    0.88
 -11 -16   8    0.98    0.59
 -11 -16   9    8.67    0.95
 -11 -16  10    0.42    0.73
 -11 -16  11    2.65    0.72
 -11 -16  12    3.22    1.00
 -10 -16  -3    0.71    0.35
 -10 -16  -2   28.71    1.24
 -10 -16  -1    1.15    0.64
 -10 -16   0    3.09    0.73
 -10 -16   1    1.06    0.61
 -10 -16   2    2.23    0.69
 -10 -16   3    0.37    0.60
 -10 -16   4    9.10    0.86
 -10 -16   5    0.06    0.58
 -10 -16   6    3.02    0.68
 -10 -16   7    3.77    0.78
 -10 -16   8    2.62    0.90
 -10 -16   9   -0.20    0.64
 -10 -16  10   13.60    1.00
 -10 -16  11    5.75    0.79
 -10 -16  12    3.67    0.84
  -9 -16  -3   18.59    0.86
  -9 -16  -2   13.33    0.83
  -9 -16  -1    3.58    0.59
  -9 -16   0    3.46    0.63
  -9 -16   1   22.68    1.08
  -9 -16   2    0.92    0.75
  -9 -16   3   18.38    0.95
  -9 -16   4    3.83    0.61
  -9 -16   5    0.62    0.60
  -9 -16   6    3.90    0.73
  -9 -16   7    0.96    0.73
  -9 -16   8    0.77    0.56
  -9 -16   9   44.95    1.50
  -9 -16  10   -0.25    0.68
  -9 -16  11    5.65    0.76
  -9 -16  12    0.98    0.74
  -9 -16  13    8.05    0.82
  -9 -16  14   10.69    1.89
  -8 -16  -3    9.39    0.63
  -8 -16  -2   -0.20    0.45
  -8 -16  -1   18.95    0.95
  -8 -16   0   47.21    1.41
  -8 -16   1    1.77    0.58
  -8 -16   2   16.61    0.89
  -8 -16   3    6.68    0.70
  -8 -16   4   -0.06    0.62
  -8 -16   5   10.81    0.81
  -8 -16   6    0.46    0.61
  -8 -16   7    6.45    0.72
  -8 -16   8   18.10    0.91
  -8 -16   9    1.41    0.84
  -8 -16  10    5.64    0.82
  -8 -16  11    4.16    0.78
  -8 -16  12    3.01    0.76
  -8 -16  13    8.12    0.86
  -8 -16  14    4.94    0.73
  -7 -16  -4    8.64    0.55
  -7 -16  -3    0.24    0.42
  -7 -16  -2    8.76    0.64
  -7 -16  -1   38.33    1.32
  -7 -16   0    0.77    0.60
  -7 -16   1    7.39    0.70
  -7 -16   2   16.39    0.92
  -7 -16   3    9.54    0.79
  -7 -16   4   16.08    0.98
  -7 -16   5    6.63    0.74
  -7 -16   6    9.98    0.78
  -7 -16   7   12.11    0.92
  -7 -16   8    0.58    0.62
  -7 -16   9    5.88    0.78
  -7 -16  10    6.77    0.83
  -7 -16  11   13.39    0.86
  -7 -16  12    7.55    0.76
  -7 -16  13    8.37    0.94
  -7 -16  14   -0.23    0.73
  -7 -16  15    2.99    0.82
  -6 -16  -4   21.46    0.98
  -6 -16  -3    1.41    0.44
  -6 -16  -2   33.40    1.22
  -6 -16  -1   16.09    0.81
  -6 -16   0    2.74    0.59
  -6 -16   1   47.12    1.55
  -6 -16   2    6.09    0.71
  -6 -16   3   34.36    1.22
  -6 -16   4    7.00    0.72
  -6 -16   5   -0.87    0.70
  -6 -16   6   19.45    0.92
  -6 -16   7    1.03    0.64
  -6 -16   8   10.58    0.88
  -6 -16   9   15.81    0.92
  -6 -16  10    9.48    0.77
  -6 -16  11   -0.05    0.61
  -6 -16  12   11.52    0.83
  -6 -16  13    0.42    0.64
  -6 -16  14    0.44    0.70
  -6 -16  15   14.16    0.89
  -5 -16  -4    0.42    0.39
  -5 -16  -3   29.87    1.05
  -5 -16  -2    0.82    0.42
  -5 -16  -1    1.23    0.48
  -5 -16   0   23.81    0.98
  -5 -16   1    1.31    0.51
  -5 -16   2    0.03    0.58
  -5 -16   3    7.16    0.78
  -5 -16   4    3.39    0.57
  -5 -16   5   94.61    2.66
  -5 -16   6   -0.16    0.67
  -5 -16   7    3.28    0.82
  -5 -16   8   14.53    0.98
  -5 -16   9    8.30    0.86
  -5 -16  10    0.90    0.75
  -5 -16  11   32.75    1.51
  -5 -16  12   -0.11    0.62
  -5 -16  13    2.07    0.67
  -5 -16  14    4.91    0.72
  -5 -16  15    1.01    0.75
  -4 -16  -5    4.23    0.39
  -4 -16  -4    2.28    0.43
  -4 -16  -3    4.62    0.56
  -4 -16  -2   -0.03    0.43
  -4 -16  -1   18.53    0.80
  -4 -16   0    5.28    0.71
  -4 -16   1    0.19    0.50
  -4 -16   2    1.49    0.70
  -4 -16   3    2.86    0.68
  -4 -16   4   23.59    1.01
  -4 -16   5    0.54    0.58
  -4 -16   6   -0.43    0.57
  -4 -16   7   10.21    0.84
  -4 -16   8    7.23    0.69
  -4 -16   9    1.20    0.62
  -4 -16  10   10.68    0.83
  -4 -16  11   -0.01    0.66
  -4 -16  12    8.57    1.03
  -4 -16  13    2.86    0.71
  -4 -16  14    6.91    0.86
  -4 -16  15    0.01    0.64
  -4 -16  16   11.66    1.10
  -3 -16  -6    5.39    0.37
  -3 -16  -5   24.87    1.07
  -3 -16  -4    4.52    0.54
  -3 -16  -3   13.91    0.77
  -3 -16  -2    8.01    0.61
  -3 -16  -1   36.90    1.28
  -3 -16   0    2.62    0.66
  -3 -16   1   27.19    1.13
  -3 -16   2    0.12    0.61
  -3 -16   3   56.44    1.69
  -3 -16   4   -0.11    0.58
  -3 -16   5    6.75    0.78
  -3 -16   6   38.39    1.34
  -3 -16   7   46.04    1.57
  -3 -16   8    0.88    0.58
  -3 -16   9    4.56    0.72
  -3 -16  10    1.55    0.60
  -3 -16  11    6.15    0.80
  -3 -16  12   -0.26    0.86
  -3 -16  13   22.75    1.16
  -3 -16  14    2.26    0.81
  -3 -16  15    4.26    0.87
  -3 -16  16    6.84    1.11
  -2 -16  -6   27.81    1.01
  -2 -16  -5    4.89    0.49
  -2 -16  -4   13.96    0.70
  -2 -16  -3   11.14    0.75
  -2 -16  -2   46.23    1.36
  -2 -16  -1    4.93    0.56
  -2 -16   0   27.58    1.03
  -2 -16   1    6.76    0.62
  -2 -16   2   74.19    2.04
  -2 -16   3    6.24    0.72
  -2 -16   4   12.38    0.79
  -2 -16   5    8.98    0.76
  -2 -16   6    1.77    0.61
  -2 -16   7   10.49    0.93
  -2 -16   8   -0.74    0.68
  -2 -16   9    1.16    0.65
  -2 -16  10   34.55    1.42
  -2 -16  11    5.79    0.80
  -2 -16  12   17.41    1.23
  -2 -16  13    2.50    0.77
  -2 -16  14    0.06    0.63
  -2 -16  15    6.54    0.94
  -2 -16  16    2.62    0.77
  -1 -16  -8    3.79    0.53
  -1 -16  -7   16.21    0.76
  -1 -16  -6   -0.31    0.40
  -1 -16  -5   28.05    1.11
  -1 -16  -4    0.17    0.49
  -1 -16  -3   21.37    0.93
  -1 -16  -2   10.61    0.74
  -1 -16  -1    4.73    0.57
  -1 -16   0   16.32    0.83
  -1 -16   1   13.37    0.80
  -1 -16   2    7.04    0.70
  -1 -16   3   31.29    1.19
  -1 -16   4    1.78    0.69
  -1 -16   5   13.11    0.89
  -1 -16   6    0.17    0.61
  -1 -16   7    4.72    0.69
  -1 -16   8   16.67    0.99
  -1 -16   9   35.90    1.40
  -1 -16  10   14.75    0.98
  -1 -16  11    2.97    0.75
  -1 -16  12    1.74    0.76
  -1 -16  13    0.67    0.65
  -1 -16  14    5.76    0.77
  -1 -16  15    1.52    0.80
  -1 -16  16    3.19    0.82
   0 -16  -9    0.55    0.27
   0 -16  -8   12.76    0.76
   0 -16  -7   -0.05    0.39
   0 -16  -6   22.05    0.92
   0 -16  -5    6.94    0.61
   0 -16  -4    7.26    0.64
   0 -16  -3   28.17    1.15
   0 -16  -2    0.07    0.46
   0 -16  -1    9.48    0.77
   0 -16   0    2.21    0.62
   0 -16   1   10.55    0.87
   0 -16   2   -0.13    0.60
   0 -16   3   29.92    1.20
   0 -16   4    6.90    0.67
   0 -16   5    7.43    0.72
   0 -16   6   22.95    1.11
   0 -16   7    0.15    0.62
   0 -16   8   16.73    0.93
   0 -16   9   -0.60    0.74
   0 -16  10    2.14    0.77
   0 -16  11   14.45    0.85
   0 -16  12    5.73    0.91
   0 -16  13   10.88    0.85
   0 -16  14   30.54    1.09
   0 -16  15    1.03    0.69
   1 -16 -10   13.19    0.68
   1 -16  -9   34.72    1.20
   1 -16  -8   16.09    0.92
   1 -16  -7    4.07    0.55
   1 -16  -6    0.63    0.54
   1 -16  -5   13.31    0.78
   1 -16  -4    1.91    0.54
   1 -16  -3   29.69    1.15
   1 -16  -2    6.96    0.68
   1 -16  -1   13.16    0.87
   1 -16   0   17.05    0.95
   1 -16   1    4.08    0.62
   1 -16   2   12.63    0.79
   1 -16   3   22.14    1.21
   1 -16   4    0.27    0.57
   1 -16   5   29.81    1.20
   1 -16   6    0.16    0.62
   1 -16   7   18.71    1.02
   1 -16   8    5.93    0.75
   1 -16   9   10.36    1.07
   1 -16  10   19.30    1.18
   1 -16  11   11.70    0.81
   1 -16  12    9.37    0.87
   1 -16  13   16.37    0.96
   1 -16  14    1.09    0.87
   1 -16  15    0.72    0.71
   2 -16 -12   12.56    0.62
   2 -16 -11    4.54    0.54
   2 -16 -10   31.67    1.11
   2 -16  -9    0.37    0.47
   2 -16  -8    0.71    0.44
   2 -16  -7   10.11    0.72
   2 -16  -6    1.34    0.47
   2 -16  -5    7.74    0.65
   2 -16  -4   12.48    0.74
   2 -16  -3    5.35    0.57
   2 -16  -2   71.55    2.04
   2 -16  -1    6.39    0.65
   2 -16   0   26.49    1.11
   2 -16   1    4.54    0.66
   2 -16   2   47.38    1.36
   2 -16   3   12.19    0.83
   2 -16   4   13.71    0.83
   2 -16   5    4.86    0.73
   2 -16   6   29.19    1.22
   2 -16   7    2.13    0.69
   2 -16   8    8.07    0.74
   2 -16   9    3.08    0.93
   2 -16  10   17.29    0.96
   2 -16  11   -0.15    0.78
   2 -16  12    1.88    0.67
   2 -16  13   11.31    0.91
   2 -16  14    5.13    0.76
   2 -16  15    3.94    0.74
   3 -16 -14    1.15    0.46
   3 -16 -13   19.88    0.81
   3 -16 -12    0.62    0.48
   3 -16 -11    6.33    0.69
   3 -16 -10    1.50    0.54
   3 -16  -9    4.14    0.60
   3 -16  -8    0.82    0.58
   3 -16  -7   44.44    1.42
   3 -16  -6   35.73    1.30
   3 -16  -5    6.80    0.64
   3 -16  -4   -0.07    0.55
   3 -16  -3   54.31    1.67
   3 -16  -2   -0.74    0.53
   3 -16  -1   27.27    1.05
   3 -16   0    2.29    0.55
   3 -16   1   40.31    1.23
   3 -16   2    8.33    0.77
   3 -16   3   13.93    0.80
   3 -16   4    5.32    0.75
   3 -16   5   27.06    1.12
   3 -16   6    8.51    0.89
   3 -16   7   26.04    1.11
   3 -16   8    0.89    0.61
   3 -16   9   43.57    1.63
   3 -16  10    2.20    0.69
   3 -16  11    1.73    0.77
   3 -16  12   28.80    1.26
   3 -16  13   16.92    1.03
   3 -16  14    7.16    0.90
   4 -16 -15    0.76    0.62
   4 -16 -14    5.92    0.80
   4 -16 -13    2.12    0.57
   4 -16 -12    7.20    0.72
   4 -16 -11    0.40    0.54
   4 -16 -10    9.64    0.78
   4 -16  -9    0.93    0.69
   4 -16  -8    6.95    0.63
   4 -16  -7    9.75    0.77
   4 -16  -6   -0.05    0.61
   4 -16  -5    1.03    0.53
   4 -16  -4   24.36    1.07
   4 -16  -3    2.94    0.64
   4 -16  -2    2.93    0.62
   4 -16  -1    0.30    0.59
   4 -16   0    4.97    0.69
   4 -16   1   18.53    0.94
   4 -16   2    0.52    0.70
   4 -16   3    5.35    0.71
   4 -16   4    1.84    0.76
   4 -16   5    5.97    0.73
   4 -16   6   54.90    1.65
   4 -16   7    5.61    0.71
   4 -16   8    4.46    0.70
   4 -16   9   -0.11    0.76
   4 -16  10    0.61    0.70
   4 -16  11    6.19    0.73
   4 -16  12    7.63    0.80
   4 -16  13    0.95    0.75
   4 -16  14    0.43    0.82
   5 -16 -15    1.61    1.00
   5 -16 -14    5.69    0.86
   5 -16 -13    1.95    0.67
   5 -16 -12    0.72    0.56
   5 -16 -11   29.86    1.19
   5 -16 -10    1.45    0.52
   5 -16  -9    7.52    0.64
   5 -16  -8   14.72    0.79
   5 -16  -7    3.27    0.64
   5 -16  -6    0.45    0.51
   5 -16  -5   93.74    2.43
   5 -16  -4    3.19    0.57
   5 -16  -3    7.81    0.72
   5 -16  -2   -0.01    0.66
   5 -16  -1    0.43    0.66
   5 -16   0   25.04    1.18
   5 -16   1    1.87    0.68
   5 -16   2    1.12    0.66
   5 -16   3   28.05    1.18
   5 -16   4    0.62    0.90
   5 -16   5   55.93    1.72
   5 -16   6    5.65    1.02
   5 -16   7   -0.50    0.65
   5 -16   8   -0.30    0.84
   5 -16   9   11.35    0.91
   5 -16  10    0.27    0.73
   5 -16  11   12.79    0.90
   5 -16  12    0.27    0.71
   5 -16  13   13.33    1.04
   6 -16 -15   13.40    0.83
   6 -16 -14   -0.59    0.62
   6 -16 -13    0.26    0.59
   6 -16 -12   12.14    0.81
   6 -16 -11   -0.06    0.56
   6 -16 -10    8.77    0.96
   6 -16  -9   16.22    0.92
   6 -16  -8    9.70    0.74
   6 -16  -7    0.71    0.73
   6 -16  -6   19.04    0.84
   6 -16  -5   -0.35    0.59
   6 -16  -4    5.11    0.78
   6 -16  -3   33.78    1.42
   6 -16  -2    6.43    0.75
   6 -16  -1   47.87    1.59
   6 -16   0    3.33    0.69
   6 -16   1   16.71    1.03
   6 -16   2   35.33    1.28
   6 -16   3    2.78    0.67
   6 -16   4   26.31    1.20
   6 -16   5   17.53    0.94
   6 -16   6    2.30    0.71
   6 -16   7    5.08    0.67
   6 -16   8   16.56    1.10
   6 -16   9   11.86    0.89
   6 -16  10   19.12    1.01
   6 -16  11    4.82    0.83
   6 -16  12    2.64    0.74
   6 -16  13    7.46    1.18
   7 -16 -15    2.89    1.07
   7 -16 -14    0.31    0.60
   7 -16 -13    6.63    0.76
   7 -16 -12    7.68    0.75
   7 -16 -11   13.14    0.87
   7 -16 -10    6.90    0.78
   7 -16  -9    4.90    0.67
   7 -16  -8    0.27    0.59
   7 -16  -7   13.00    0.91
   7 -16  -6   11.30    0.87
   7 -16  -5    7.31    0.75
   7 -16  -4   15.61    0.82
   7 -16  -3   10.61    0.86
   7 -16  -2   14.98    0.79
   7 -16  -1    7.90    0.74
   7 -16   0    0.40    0.59
   7 -16   1   40.34    1.57
   7 -16   2    9.33    0.85
   7 -16   3   -0.47    0.70
   7 -16   4   14.20    0.90
   7 -16   5    1.04    0.74
   7 -16   6    1.61    0.64
   7 -16   7    3.73    0.78
   7 -16   8    0.14    0.74
   7 -16   9   14.96    0.93
   7 -16  10    1.98    0.64
   7 -16  11    1.07    0.69
   7 -16  12    8.91    1.30
   8 -16 -14    5.09    0.83
   8 -16 -13    7.24    0.86
   8 -16 -12    3.01    0.61
   8 -16 -11    3.25    0.84
   8 -16 -10    4.69    0.72
   8 -16  -9    1.32    0.65
   8 -16  -8   17.43    0.97
   8 -16  -7    6.41    0.71
   8 -16  -6    0.90    0.73
   8 -16  -5   12.26    0.94
   8 -16  -4   -0.21    0.69
   8 -16  -3    6.64    0.85
   8 -16  -2   17.44    1.06
   8 -16  -1    0.89    0.74
   8 -16   0   52.25    1.58
   8 -16   1   21.57    0.99
   8 -16   2    0.66    0.72
   8 -16   3   10.45    0.89
   8 -16   4    5.59    0.82
   8 -16   5    0.75    0.73
   8 -16   6   12.92    1.02
   8 -16   7    0.91    0.70
   8 -16   8    1.84    0.68
   8 -16   9    5.61    0.76
   8 -16  10    6.72    0.77
   8 -16  11    4.96    1.50
   9 -16 -14   10.75    1.47
   9 -16 -13    9.42    0.88
   9 -16 -12    0.14    0.70
   9 -16 -11    5.13    0.73
   9 -16 -10   -0.24    0.59
   9 -16  -9   44.32    1.54
   9 -16  -8    0.41    0.74
   9 -16  -7    1.24    0.66
   9 -16  -6    4.12    0.68
   9 -16  -5    0.45    0.58
   9 -16  -4    4.06    0.76
   9 -16  -3   19.04    0.91
   9 -16  -2    0.65    0.71
   9 -16  -1   24.71    1.14
   9 -16   0    4.81    0.88
   9 -16   1    4.30    0.72
   9 -16   2   15.02    0.89
   9 -16   3   21.47    1.23
   9 -16   4    0.14    0.69
   9 -16   5   12.28    1.11
   9 -16   6    0.89    0.65
   9 -16   7   -0.11    0.93
   9 -16   8    2.90    0.68
   9 -16   9    5.05    0.78
   9 -16  10    0.51    1.19
  10 -16 -13    0.57    1.02
  10 -16 -12    4.34    0.77
  10 -16 -11    6.14    0.79
  10 -16 -10   14.56    0.97
  10 -16  -9   -0.71    0.62
  10 -16  -8    3.66    0.77
  10 -16  -7    4.58    0.88
  10 -16  -6    2.84    0.72
  10 -16  -5    0.18    0.72
  10 -16  -4    9.89    0.86
  10 -16  -3    0.84    0.85
  10 -16  -2    2.78    0.76
  10 -16  -1    1.61    0.67
  10 -16   0    4.59    0.67
  10 -16   1    0.54    0.81
  10 -16   2   34.05    1.41
  10 -16   3    0.51    0.70
  10 -16   4   15.85    1.07
  10 -16   5    1.28    0.74
  10 -16   6    0.41    0.78
  10 -16   7    0.70    0.84
  10 -16   8    3.34    0.74
  11 -16 -12    4.15    2.09
  11 -16 -11    2.07    0.79
  11 -16 -10    1.55    0.63
  11 -16  -9    8.01    0.89
  11 -16  -8    0.34    0.63
  11 -16  -7    8.48    0.82
  11 -16  -6    1.62    0.59
  11 -16  -5    1.21    0.63
  11 -16  -4    2.15    0.67
  11 -16  -3   -0.74    0.64
  11 -16  -2    0.30    0.73
  11 -16  -1   29.06    1.35
  11 -16   0    2.23    0.72
  11 -16   1   12.56    0.90
  11 -16   2    2.79    0.83
  11 -16   3    1.01    0.77
  11 -16   4    0.76    0.79
  11 -16   5   13.38    0.97
  11 -16   6   -0.26    0.74
  11 -16   7   30.56    1.06
  12 -16 -10    7.28    0.85
  12 -16  -9    0.89    0.65
  12 -16  -8    1.97    0.67
  12 -16  -7   -0.03    0.57
  12 -16  -6    1.56    0.74
  12 -16  -5    0.17    0.63
  12 -16  -4    4.92    0.94
  12 -16  -3    3.53    0.77
  12 -16  -2   24.65    1.25
  12 -16  -1    1.30    0.74
  12 -16   0   10.86    1.12
  12 -16   1    5.45    0.78
  12 -16   2    5.99    0.99
  12 -16   3    0.47    0.68
  12 -16   4    2.56    0.72
  12 -16   5    2.29    0.87
  13 -16  -8    1.51    1.93
  13 -16  -7   -0.91    0.72
  13 -16  -6    0.20    0.71
  13 -16  -5    8.10    0.81
  13 -16  -4    3.73    0.73
  13 -16  -3    3.76    0.73
  13 -16  -2    0.02    0.79
  13 -16  -1    2.01    0.72
  13 -16   0    3.10    0.76
  13 -16   1    3.28    1.01
  13 -16   2    3.32    0.85
 -12 -17   0   21.43    0.98
 -12 -17   1    2.62    0.71
 -12 -17   2   -0.52    0.76
 -12 -17   3   -0.24    0.63
 -12 -17   4   -0.32    0.70
 -12 -17   5    2.84    0.84
 -12 -17   6    9.77    2.19
 -11 -17  -2    1.35    1.33
 -11 -17  -1    3.34    0.83
 -11 -17   0    3.67    0.79
 -11 -17   1   11.26    0.84
 -11 -17   2    0.78    0.79
 -11 -17   3    8.79    0.90
 -11 -17   4    0.04    0.67
 -11 -17   5    6.11    0.91
 -11 -17   6    0.90    0.75
 -11 -17   7   -0.24    0.79
 -11 -17   8    0.63    0.59
 -11 -17   9    1.17    0.98
 -10 -17  -2    0.21    0.65
 -10 -17  -1   10.44    0.79
 -10 -17   0   16.50    1.14
 -10 -17   1    0.26    0.61
 -10 -17   2   20.03    1.01
 -10 -17   3    6.66    0.85
 -10 -17   4    1.97    0.66
 -10 -17   5    0.48    0.66
 -10 -17   6    3.13    0.73
 -10 -17   7   10.76    0.80
 -10 -17   8   17.19    1.04
 -10 -17   9    0.61    0.80
 -10 -17  10    1.31    0.74
  -9 -17  -2    3.80    0.61
  -9 -17  -1   24.21    1.10
  -9 -17   0    1.06    0.69
  -9 -17   1   13.52    0.79
  -9 -17   2    0.04    0.64
  -9 -17   3    3.77    0.65
  -9 -17   4    0.39    0.63
  -9 -17   5   22.53    1.19
  -9 -17   6    0.62    0.61
  -9 -17   7   21.43    1.19
  -9 -17   8    0.86    0.70
  -9 -17   9    2.09    0.65
  -9 -17  10    1.54    0.68
  -9 -17  11    1.11    0.77
  -9 -17  12    2.47    1.21
  -8 -17  -3    0.21    0.45
  -8 -17  -2    8.73    0.78
  -8 -17  -1    1.14    0.52
  -8 -17   0   12.07    0.74
  -8 -17   1   -0.29    0.55
  -8 -17   2    1.59    0.60
  -8 -17   3    4.29    0.66
  -8 -17   4   25.90    1.23
  -8 -17   5    4.20    0.66
  -8 -17   6   25.03    1.12
  -8 -17   7    3.28    0.69
  -8 -17   8   -0.04    0.60
  -8 -17   9    0.72    0.73
  -8 -17  10   35.67    1.34
  -8 -17  11    0.64    0.79
  -8 -17  12   15.71    0.91
  -7 -17  -3   15.40    0.76
  -7 -17  -2    5.47    0.60
  -7 -17  -1    0.38    0.51
  -7 -17   0    1.15    0.56
  -7 -17   1   17.06    0.82
  -7 -17   2   -0.49    0.65
  -7 -17   3   31.47    1.13
  -7 -17   4    0.07    0.69
  -7 -17   5    0.49    0.60
  -7 -17   6    1.39    0.64
  -7 -17   7    1.52    0.71
  -7 -17   8    0.75    0.71
  -7 -17   9   17.07    1.02
  -7 -17  10   -0.33    0.76
  -7 -17  11    3.64    0.71
  -7 -17  12    1.67    0.73
  -7 -17  13    0.41    0.66
  -6 -17  -4   23.35    1.00
  -6 -17  -3    0.56    0.52
  -6 -17  -2    0.08    0.50
  -6 -17  -1    2.55    0.55
  -6 -17   0   49.20    1.46
  -6 -17   1   10.89    0.83
  -6 -17   2   55.80    1.51
  -6 -17   3    4.45    0.63
  -6 -17   4    6.55    0.73
  -6 -17   5   11.23    0.91
  -6 -17   6    6.70    0.74
  -6 -17   7    0.79    0.62
  -6 -17   8   22.91    1.13
  -6 -17   9    3.64    0.68
  -6 -17  10    0.87    0.62
  -6 -17  11    1.70    0.65
  -6 -17  12    2.01    0.68
  -6 -17  13   -0.32    0.55
  -5 -17  -4    0.65    0.39
  -5 -17  -3   11.07    0.69
  -5 -17  -2   -0.27    0.58
  -5 -17  -1   58.33    1.67
  -5 -17   0   20.32    0.88
  -5 -17   1   22.24    1.13
  -5 -17   2    1.28    0.62
  -5 -17   3    2.01    0.62
  -5 -17   4    0.49    0.54
  -5 -17   5    2.84    0.77
  -5 -17   6    1.41    0.58
  -5 -17   7   22.88    1.20
  -5 -17   8    2.36    0.74
  -5 -17   9    1.72    0.66
  -5 -17  10    0.02    0.65
  -5 -17  11   10.00    0.85
  -5 -17  12    1.28    0.65
  -5 -17  13    1.88    0.70
  -5 -17  14    2.00    0.73
  -4 -17  -5    1.61    0.38
  -4 -17  -4   46.95    1.30
  -4 -17  -3    0.48    0.53
  -4 -17  -2   15.40    0.83
  -4 -17  -1    8.91    0.76
  -4 -17   0   18.07    0.89
  -4 -17   1    3.29    0.69
  -4 -17   2    8.16    0.74
  -4 -17   3    0.43    0.61
  -4 -17   4   27.85    1.06
  -4 -17   5    4.58    0.77
  -4 -17   6   40.99    1.41
  -4 -17   7    6.04    0.82
  -4 -17   8   20.23    1.06
  -4 -17   9    8.81    0.88
  -4 -17  10    8.12    0.92
  -4 -17  11    8.82    0.91
  -4 -17  12   -0.04    0.79
  -4 -17  13    0.63    0.85
  -4 -17  14    4.23    0.90
  -3 -17  -6    0.16    0.39
  -3 -17  -5   54.67    1.40
  -3 -17  -4    2.38    0.52
  -3 -17  -3   12.11    0.72
  -3 -17  -2    3.62    0.51
  -3 -17  -1   19.53    0.81
  -3 -17   0   18.50    0.86
  -3 -17   1    1.59    0.75
  -3 -17   2    6.03    0.68
  -3 -17   3    9.44    0.78
  -3 -17   4    0.16    0.54
  -3 -17   5    1.38    0.63
  -3 -17   6   24.95    1.05
  -3 -17   7   22.95    1.15
  -3 -17   8   -0.42    0.56
  -3 -17   9    4.11    0.67
  -3 -17  10    0.55    0.78
  -3 -17  11    0.82    0.96
  -3 -17  12    5.22    0.73
  -3 -17  13    0.94    0.67
  -3 -17  14    2.60    0.70
  -2 -17  -6   66.62    1.70
  -2 -17  -5    0.40    0.43
  -2 -17  -4    3.65    0.52
  -2 -17  -3   12.45    0.71
  -2 -17  -2    2.68    0.63
  -2 -17  -1    4.95    0.58
  -2 -17   0    9.88    0.76
  -2 -17   1   -0.19    0.60
  -2 -17   2    5.60    0.74
  -2 -17   3    0.16    0.68
  -2 -17   4   13.07    0.90
  -2 -17   5    4.32    0.71
  -2 -17   6   26.39    1.40
  -2 -17   7   -0.18    0.70
  -2 -17   8   18.82    0.97
  -2 -17   9   11.29    0.89
  -2 -17  10    0.63    0.81
  -2 -17  11    1.00    0.80
  -2 -17  12    0.53    0.66
  -2 -17  13    4.24    0.76
  -2 -17  14   19.34    1.16
  -1 -17  -7   13.23    0.81
  -1 -17  -6    1.85    0.43
  -1 -17  -5    0.68    0.46
  -1 -17  -4    6.47    0.68
  -1 -17  -3    1.13    0.56
  -1 -17  -2   -0.64    0.52
  -1 -17  -1   55.65    1.65
  -1 -17   0    5.07    0.61
  -1 -17   1    5.11    0.69
  -1 -17   2    2.28    0.61
  -1 -17   3    8.40    0.79
  -1 -17   4    0.28    0.59
  -1 -17   5   33.43    1.28
  -1 -17   6    4.12    0.76
  -1 -17   7    3.42    0.73
  -1 -17   8    0.71    0.63
  -1 -17   9    2.30    0.81
  -1 -17  10    1.66    0.72
  -1 -17  11   26.43    1.14
  -1 -17  12    2.87    0.71
  -1 -17  13   17.52    0.86
  -1 -17  14   -0.08    0.78
   0 -17  -9    0.34    0.47
   0 -17  -8    3.49    0.49
   0 -17  -7    1.34    0.47
   0 -17  -6    2.67    0.60
   0 -17  -5    4.12    0.56
   0 -17  -4   21.95    0.94
   0 -17  -3    3.63    0.61
   0 -17  -2   28.26    1.07
   0 -17  -1   14.60    0.77
   0 -17   0    0.23    0.47
   0 -17   1   14.20    0.74
   0 -17   2   28.12    1.13
   0 -17   3    3.47    0.68
   0 -17   4   22.37    1.14
   0 -17   5    3.82    0.64
   0 -17   6    2.21    0.72
   0 -17   7    1.57    0.66
   0 -17   8    5.56    0.84
   0 -17   9    0.75    0.81
   0 -17  10   10.79    0.84
   0 -17  11    1.54    0.75
   0 -17  12    5.61    0.82
   0 -17  13    3.14    0.76
   0 -17  14   -0.51    0.92
   1 -17 -10    1.18    0.38
   1 -17  -9    2.85    0.46
   1 -17  -8    0.41    0.55
   1 -17  -7    3.56    0.62
   1 -17  -6    4.66    0.62
   1 -17  -5   32.69    1.37
   1 -17  -4    0.59    0.58
   1 -17  -3    8.74    0.67
   1 -17  -2    2.09    0.65
   1 -17  -1    4.63    0.62
   1 -17   0    4.85    0.65
   1 -17   1   58.87    1.70
   1 -17   2    0.60    0.60
   1 -17   3    0.10    0.59
   1 -17   4    6.47    0.85
   1 -17   5    1.31    0.69
   1 -17   6    0.74    0.72
   1 -17   7   15.25    0.89
   1 -17   8    3.87    0.94
   1 -17   9   22.26    0.99
   1 -17  10    8.33    0.76
   1 -17  11   12.39    0.92
   1 -17  12    9.74    0.88
   1 -17  13   -0.06    0.97
   1 -17  14    1.88    0.85
   2 -17 -11    0.45    0.38
   2 -17 -10    1.23    0.50
   2 -17  -9   11.66    0.75
   2 -17  -8   17.76    0.94
   2 -17  -7    0.37    0.57
   2 -17  -6   25.47    1.06
   2 -17  -5    4.82    0.61
   2 -17  -4   13.15    0.77
   2 -17  -3    0.85    0.71
   2 -17  -2    5.59    0.66
   2 -17  -1    0.02    0.57
   2 -17   0    9.76    0.74
   2 -17   1    4.70    0.67
   2 -17   2    2.95    0.69
   2 -17   3   14.19    0.84
   2 -17   4    4.81    0.80
   2 -17   5    1.07    0.74
   2 -17   6   68.80    1.91
   2 -17   7    0.94    0.64
   2 -17   8   18.72    1.26
   2 -17   9    1.59    0.63
   2 -17  10    8.03    0.88
   2 -17  11    8.01    0.80
   2 -17  12    8.95    0.92
   2 -17  13    3.93    1.08
   3 -17 -13   -0.22    0.64
   3 -17 -12    5.47    0.62
   3 -17 -11   -0.09    0.52
   3 -17 -10    0.76    0.58
   3 -17  -9    4.56    0.67
   3 -17  -8    0.13    0.52
   3 -17  -7   20.51    1.03
   3 -17  -6   24.15    1.06
   3 -17  -5    0.46    0.55
   3 -17  -4    0.14    0.70
   3 -17  -3    9.30    0.72
   3 -17  -2    5.87    0.66
   3 -17  -1    0.85    0.70
   3 -17   0   18.84    1.03
   3 -17   1   20.27    1.02
   3 -17   2    3.93    0.73
   3 -17   3   13.13    0.87
   3 -17   4    2.73    0.71
   3 -17   5   56.40    1.81
   3 -17   6    0.09    0.64
   3 -17   7   26.79    1.10
   3 -17   8    0.06    0.76
   3 -17   9    9.20    0.77
   3 -17  10    2.36    0.77
   3 -17  11    9.33    0.96
   3 -17  12    0.28    0.93
   3 -17  13    1.80    0.76
   4 -17 -14    1.84    0.89
   4 -17 -13    0.65    0.68
   4 -17 -12   -0.12    0.71
   4 -17 -11    7.46    0.89
   4 -17 -10    8.27    0.77
   4 -17  -9    8.20    0.88
   4 -17  -8   20.07    1.12
   4 -17  -7    5.13    0.78
   4 -17  -6   40.95    1.23
   4 -17  -5    3.66    0.58
   4 -17  -4   28.49    1.03
   4 -17  -3   -0.03    0.76
   4 -17  -2    8.60    0.70
   4 -17  -1    3.95    0.61
   4 -17   0   18.69    1.04
   4 -17   1    9.61    0.81
   4 -17   2   16.17    0.94
   4 -17   3    1.26    0.65
   4 -17   4   49.63    1.52
   4 -17   5    1.66    0.86
   4 -17   6   37.81    1.45
   4 -17   7    1.36    0.82
   4 -17   8   41.00    1.49
   4 -17   9    0.17    0.66
   4 -17  10    4.94    0.80
   4 -17  11   -0.23    0.79
   4 -17  12    4.58    0.74
   5 -17 -14    0.65    1.19
   5 -17 -13    1.50    0.98
   5 -17 -12    1.45    0.70
   5 -17 -11   10.58    0.84
   5 -17 -10    0.49    0.62
   5 -17  -9    1.81    0.58
   5 -17  -8    2.48    0.58
   5 -17  -7   22.73    1.06
   5 -17  -6    0.82    0.57
   5 -17  -5    2.72    0.69
   5 -17  -4    0.29    0.55
   5 -17  -3    2.11    0.60
   5 -17  -2    1.11    0.54
   5 -17  -1   24.10    0.99
   5 -17   0   21.10    1.03
   5 -17   1   59.89    1.91
   5 -17   2   -0.50    0.73
   5 -17   3   10.86    0.88
   5 -17   4   -0.28    0.61
   5 -17   5    1.67    0.76
   5 -17   6   -0.31    0.64
   5 -17   7   31.29    1.48
   5 -17   8    2.23    0.64
   5 -17   9    0.71    0.75
   5 -17  10    0.81    0.81
   5 -17  11   -0.31    0.74
   5 -17  12    0.80    0.87
   6 -17 -13    0.54    0.60
   6 -17 -12    1.71    0.75
   6 -17 -11    1.84    0.62
   6 -17 -10    0.76    0.54
   6 -17  -9    3.31    0.70
   6 -17  -8   22.57    1.00
   6 -17  -7    0.73    0.56
   6 -17  -6    7.07    0.76
   6 -17  -5   10.39    0.88
   6 -17  -4    7.10    0.70
   6 -17  -3    4.09    0.81
   6 -17  -2   57.66    1.65
   6 -17  -1    9.98    0.90
   6 -17   0   51.62    1.70
   6 -17   1    3.29    0.68
   6 -17   2    0.10    0.77
   6 -17   3    0.37    0.72
   6 -17   4   34.64    1.46
   6 -17   5   -0.73    0.61
   6 -17   6    8.23    0.80
   6 -17   7   -0.51    0.68
   6 -17   8    1.24    0.76
   6 -17   9    1.01    0.73
   6 -17  10   -0.17    0.81
   6 -17  11    2.19    0.67
   7 -17 -13   -0.19    0.96
   7 -17 -12    2.05    0.82
   7 -17 -11    3.24    0.62
   7 -17 -10   -0.05    0.65
   7 -17  -9   16.08    0.91
   7 -17  -8    0.45    0.66
   7 -17  -7    2.06    0.63
   7 -17  -6    1.29    0.76
   7 -17  -5    0.82    0.71
   7 -17  -4   -0.30    0.58
   7 -17  -3   34.22    1.36
   7 -17  -2    0.15    0.58
   7 -17  -1   16.65    1.04
   7 -17   0    1.23    0.65
   7 -17   1   -0.11    0.81
   7 -17   2    5.63    0.74
   7 -17   3   19.62    1.02
   7 -17   4    1.24    0.70
   7 -17   5    2.50    0.72
   7 -17   6   -0.18    0.68
   7 -17   7    4.26    0.76
   7 -17   8    1.38    0.59
   7 -17   9   -0.73    0.86
   7 -17  10    2.97    0.71
   8 -17 -12   14.62    0.90
   8 -17 -11    0.81    0.69
   8 -17 -10   35.81    1.15
   8 -17  -9   -0.10    0.75
   8 -17  -8    0.20    0.72
   8 -17  -7    4.45    0.65
   8 -17  -6   25.32    1.17
   8 -17  -5    3.84    0.69
   8 -17  -4   26.06    1.25
   8 -17  -3    5.04    0.76
   8 -17  -2    1.42    0.62
   8 -17  -1    1.18    0.67
   8 -17   0   11.18    0.81
   8 -17   1    1.53    0.74
   8 -17   2   10.33    0.93
   8 -17   3   -0.15    0.64
   8 -17   4    1.25    0.81
   8 -17   5    1.94    0.76
   8 -17   6   14.34    1.05
   8 -17   7    0.32    0.67
   8 -17   8    1.49    0.69
   8 -17   9    0.26    0.92
   9 -17 -12    2.31    1.04
   9 -17 -11   -0.01    0.67
   9 -17 -10    0.73    0.75
   9 -17  -9    2.60    0.73
   9 -17  -8   -0.61    0.74
   9 -17  -7   20.87    1.13
   9 -17  -6    1.87    0.71
   9 -17  -5   21.62    1.06
   9 -17  -4    1.16    0.63
   9 -17  -3    4.22    0.69
   9 -17  -2   -0.46    0.71
   9 -17  -1   15.30    0.98
   9 -17   0    1.87    0.86
   9 -17   1   24.89    1.22
   9 -17   2    2.11    0.83
   9 -17   3    6.09    0.82
   9 -17   4    4.25    0.76
   9 -17   5    2.11    0.72
   9 -17   6    2.00    0.71
   9 -17   7    3.93    0.75
   9 -17   8    1.64    1.81
  10 -17 -10    0.25    0.67
  10 -17  -9    0.86    0.65
  10 -17  -8   18.74    1.07
  10 -17  -7   10.40    0.88
  10 -17  -6    2.57    0.84
  10 -17  -5    0.27    0.83
  10 -17  -4    1.30    0.63
  10 -17  -3    5.32    0.86
  10 -17  -2   22.09    1.02
  10 -17  -1    0.17    0.77
  10 -17   0   17.11    1.10
  10 -17   1   10.85    0.96
  10 -17   2    0.45    0.65
  10 -17   3    3.77    0.86
  10 -17   4    5.29    0.77
  10 -17   5    0.02    0.72
  10 -17   6    2.83    0.79
  11 -17  -9    1.45    1.11
  11 -17  -8    0.31    0.65
  11 -17  -7    0.26    0.93
  11 -17  -6    0.08    0.64
  11 -17  -5    5.88    0.79
  11 -17  -4    0.14    0.64
  11 -17  -3   10.36    0.87
  11 -17  -2   -0.02    0.80
  11 -17  -1   12.66    0.89
  11 -17   0    5.29    0.83
  11 -17   1    3.75    0.84
  11 -17   2    0.33    0.61
  11 -17   3    8.29    0.87
  11 -17   4    2.02    0.71
  12 -17  -6    9.01    1.34
  12 -17  -5    2.45    1.05
  12 -17  -4   -0.09    0.87
  12 -17  -3   -0.57    0.61
  12 -17  -2   -0.64    0.68
  12 -17  -1    2.68    0.73
  12 -17   0   20.51    1.17
  12 -17   1    0.60    0.77
 -10 -18  -2    0.10    0.58
 -10 -18   0   -0.21    0.86
 -10 -18   1   10.98    1.40
 -10 -18   2    0.58    0.60
 -10 -18   3    1.12    0.75
 -10 -18   4   -0.78    1.76
 -10 -18   5    1.60    0.87
 -10 -18   6    2.40    1.18
 -10 -18   7    1.03    0.90
  -9 -18  -2    0.56    0.53
  -9 -18  -1    0.50    1.22
  -9 -18   0    4.67    0.74
  -9 -18   1    1.33    0.63
  -9 -18   2    0.54    0.66
  -9 -18   3    2.00    0.71
  -9 -18   4    0.08    0.60
  -9 -18   5    1.17    0.88
  -9 -18   6    0.21    0.58
  -9 -18   7    0.64    0.66
  -9 -18   8   12.96    1.00
  -9 -18   9    1.87    0.90
  -8 -18  -2    0.34    0.68
  -8 -18  -1    2.62    0.56
  -8 -18   0   11.53    0.85
  -8 -18   1   -0.23    0.65
  -8 -18   2    6.12    0.79
  -8 -18   3    1.56    0.75
  -8 -18   4    9.81    0.74
  -8 -18   5    3.52    0.64
  -8 -18   6   -0.03    0.70
  -8 -18   7    1.90    0.84
  -8 -18   8    3.20    0.62
  -8 -18   9    0.07    0.59
  -8 -18  10    1.15    0.79
  -7 -18  -3    0.53    0.53
  -7 -18  -2    7.45    0.70
  -7 -18  -1    9.03    0.78
  -7 -18   0   -0.26    0.63
  -7 -18   1    3.39    0.63
  -7 -18   2   14.57    0.90
  -7 -18   3    3.37    0.75
  -7 -18   4   25.83    1.11
  -7 -18   5    2.76    0.69
  -7 -18   6    0.04    0.70
  -7 -18   7   15.98    0.88
  -7 -18   8    0.83    0.73
  -7 -18   9    1.53    0.81
  -7 -18  10    8.82    1.04
  -7 -18  11    1.91    0.88
  -6 -18  -3    1.30    0.56
  -6 -18  -2    9.71    0.77
  -6 -18  -1   14.80    0.91
  -6 -18   0    2.32    0.68
  -6 -18   1   13.34    0.78
  -6 -18   2    0.13    0.59
  -6 -18   3   10.64    0.81
  -6 -18   4   16.53    0.98
  -6 -18   5    1.96    0.64
  -6 -18   6   14.64    0.99
  -6 -18   7    3.54    0.78
  -6 -18   8    5.55    0.90
  -6 -18   9    8.57    0.83
  -6 -18  10    4.84    0.68
  -6 -18  11    0.96    0.60
  -5 -18  -4    1.39    0.44
  -5 -18  -3    0.82    0.54
  -5 -18  -2    4.60    0.59
  -5 -18  -1   10.88    0.77
  -5 -18   0    1.68    0.63
  -5 -18   1    0.41    0.68
  -5 -18   2    3.94    0.76
  -5 -18   3    0.21    0.57
  -5 -18   4   -0.56    0.69
  -5 -18   5   -0.54    0.74
  -5 -18   6    9.26    0.81
  -5 -18   7    0.83    0.60
  -5 -18   8    0.69    0.62
  -5 -18   9    1.36    0.66
  -5 -18  10    1.43    0.63
  -5 -18  11    0.73    0.63
  -5 -18  12   15.64    1.16
  -4 -18  -5    7.92    0.73
  -4 -18  -4    2.99    0.53
  -4 -18  -3   24.91    0.99
  -4 -18  -2    3.32    0.59
  -4 -18  -1   20.48    0.86
  -4 -18   0    0.34    0.62
  -4 -18   1    0.66    0.57
  -4 -18   2    4.70    0.87
  -4 -18   3    3.49    0.67
  -4 -18   4    0.52    0.61
  -4 -18   5   22.21    1.07
  -4 -18   6    2.21    0.73
  -4 -18   7    7.46    0.97
  -4 -18   8    0.39    0.68
  -4 -18   9    4.00    0.67
  -4 -18  10    1.30    0.73
  -4 -18  11   17.42    1.00
  -4 -18  12   15.68    0.86
  -3 -18  -6    6.45    0.62
  -3 -18  -5    1.38    0.53
  -3 -18  -4    7.83    0.67
  -3 -18  -3    6.96    0.70
  -3 -18  -2    1.37    0.63
  -3 -18  -1    4.44    0.63
  -3 -18   0   -0.57    0.56
  -3 -18   1    2.06    0.64
  -3 -18   2    6.13    0.78
  -3 -18   3   -0.58    0.79
  -3 -18   4   -0.97    0.56
  -3 -18   5    0.69    0.71
  -3 -18   6    1.43    0.67
  -3 -18   7    1.04    0.70
  -3 -18   8   22.56    1.12
  -3 -18   9   -0.16    0.73
  -3 -18  10   18.13    1.06
  -3 -18  11    1.77    0.65
  -3 -18  12    2.63    0.70
  -2 -18  -6    5.55    0.57
  -2 -18  -5    1.29    0.51
  -2 -18  -4   22.87    1.18
  -2 -18  -3    3.49    0.52
  -2 -18  -2    4.84    0.65
  -2 -18  -1    0.53    0.60
  -2 -18   0    7.15    0.78
  -2 -18   1   65.55    1.86
  -2 -18   2    0.14    0.54
  -2 -18   3    1.69    0.64
  -2 -18   4    1.66    0.68
  -2 -18   5    0.40    0.60
  -2 -18   6   11.08    0.85
  -2 -18   7   33.36    1.15
  -2 -18   8    1.32    0.66
  -2 -18   9   14.41    1.06
  -2 -18  10    3.72    0.77
  -2 -18  11    1.92    0.66
  -2 -18  12    2.05    0.66
  -1 -18  -7    0.88    0.43
  -1 -18  -6    2.80    0.57
  -1 -18  -5   54.55    1.52
  -1 -18  -4    0.40    0.49
  -1 -18  -3   -0.11    0.55
  -1 -18  -2    4.66    0.63
  -1 -18  -1    2.83    0.70
  -1 -18   0   28.25    1.38
  -1 -18   1    0.52    0.61
  -1 -18   2    0.34    0.60
  -1 -18   3    2.71    0.71
  -1 -18   4   11.86    0.96
  -1 -18   5    0.12    0.71
  -1 -18   6   27.36    1.27
  -1 -18   7   -0.25    0.64
  -1 -18   8   21.12    1.14
  -1 -18   9    7.06    0.89
  -1 -18  10    7.68    0.91
  -1 -18  11    0.11    0.69
  -1 -18  12   14.91    0.79
   0 -18  -8   12.62    0.66
   0 -18  -7    5.96    0.69
   0 -18  -6   30.50    1.07
   0 -18  -5    2.02    0.56
   0 -18  -4    5.43    0.68
   0 -18  -3    6.72    0.62
   0 -18  -2    8.08    0.80
   0 -18  -1   -0.37    0.55
   0 -18   0    1.36    0.55
   0 -18   1   -0.16    0.59
   0 -18   2    9.04    0.66
   0 -18   3    7.89    0.68
   0 -18   4    5.90    0.73
   0 -18   5    2.46    0.74
   0 -18   6   30.96    1.27
   0 -18   7    6.60    0.73
   0 -18   8   13.03    0.97
   0 -18   9    3.12    0.69
   0 -18  10    0.65    0.81
   0 -18  11    9.69    0.86
   0 -18  12    0.15    0.84
   1 -18 -10    5.32    0.66
   1 -18  -9    7.20    0.89
   1 -18  -8   21.64    1.15
   1 -18  -7    0.08    0.55
   1 -18  -6   26.72    1.18
   1 -18  -5    0.01    0.59
   1 -18  -4   11.46    0.75
   1 -18  -3    1.89    0.66
   1 -18  -2    0.27    0.48
   1 -18  -1    0.99    0.55
   1 -18   0   29.79    1.26
   1 -18   1    2.12    0.73
   1 -18   2    4.90    0.79
   1 -18   3   -0.03    0.64
   1 -18   4    1.52    0.62
   1 -18   5   57.41    1.72
   1 -18   6    2.74    0.72
   1 -18   7   -0.36    0.74
   1 -18   8   31.46    1.13
   1 -18   9    5.28    0.77
   1 -18  10    6.29    0.83
   1 -18  11    5.81    0.78
   1 -18  12    0.53    0.89
   2 -18 -11    0.98    0.62
   2 -18 -10    3.13    0.66
   2 -18  -9   14.50    0.77
   2 -18  -8    0.67    0.56
   2 -18  -7   31.32    1.21
   2 -18  -6   11.02    0.79
   2 -18  -5    0.47    0.54
   2 -18  -4    2.28    0.71
   2 -18  -3    2.02    0.63
   2 -18  -2    0.91    0.77
   2 -18  -1   67.39    1.99
   2 -18   0    7.80    0.73
   2 -18   1    1.09    0.58
   2 -18   2    4.57    0.78
   2 -18   3    3.25    0.88
   2 -18   4   24.02    1.06
   2 -18   5    1.53    0.69
   2 -18   6    6.18    0.76
   2 -18   7   10.89    0.94
   2 -18   8    1.85    0.68
   2 -18   9   10.08    0.87
   2 -18  10    3.16    0.75
   2 -18  11    0.84    0.76
   3 -18 -11    0.71    0.61
   3 -18 -10   16.78    0.85
   3 -18  -9    0.60    0.77
   3 -18  -8   22.71    0.88
   3 -18  -7    1.24    0.59
   3 -18  -6    1.16    0.70
   3 -18  -5    1.28    0.71
   3 -18  -4   -0.12    0.56
   3 -18  -3    0.49    0.61
   3 -18  -2    6.64    0.61
   3 -18  -1    1.51    0.58
   3 -18   0    0.25    0.68
   3 -18   1    5.32    0.70
   3 -18   2    1.11    0.63
   3 -18   3    7.03    0.95
   3 -18   4    7.61    0.81
   3 -18   5    2.25    0.69
   3 -18   6   14.52    1.00
   3 -18   7    8.45    0.83
   3 -18   8    6.14    0.69
   3 -18   9    5.42    0.93
   3 -18  10    9.50    0.86
   3 -18  11    0.61    0.97
   4 -18 -12   13.32    1.37
   4 -18 -11   16.63    1.10
   4 -18 -10    0.81    0.57
   4 -18  -9    3.55    0.60
   4 -18  -8   -0.40    0.56
   4 -18  -7    7.14    0.72
   4 -18  -6    2.42    0.60
   4 -18  -5   20.58    1.04
   4 -18  -4    0.23    0.56
   4 -18  -3    4.28    0.69
   4 -18  -2    5.39    0.71
   4 -18  -1    1.42    0.65
   4 -18   0    0.27    0.73
   4 -18   1   22.44    1.00
   4 -18   2    2.96    0.62
   4 -18   3   22.90    1.36
   4 -18   4    2.28    0.67
   4 -18   5   10.71    0.75
   4 -18   6   29.22    1.37
   4 -18   7    2.69    0.66
   4 -18   8   15.99    1.01
   4 -18   9   16.51    1.06
   4 -18  10    3.33    0.72
   5 -18 -11    0.99    0.59
   5 -18 -10    0.95    0.59
   5 -18  -9    1.07    0.59
   5 -18  -8    1.06    0.71
   5 -18  -7    0.44    0.70
   5 -18  -6    9.02    0.83
   5 -18  -5    0.03    0.50
   5 -18  -4    0.66    0.63
   5 -18  -3   -0.72    0.83
   5 -18  -2    3.51    0.71
   5 -18  -1    0.28    0.60
   5 -18   0    2.12    0.78
   5 -18   1   11.80    0.84
   5 -18   2    5.23    0.72
   5 -18   3    1.53    0.77
   5 -18   4    2.14    0.73
   5 -18   5   10.21    0.85
   5 -18   6    7.15    0.78
   5 -18   7    6.79    0.77
   5 -18   8   10.06    0.96
   5 -18   9    0.31    0.72
   5 -18  10   14.25    1.51
   6 -18 -11   -0.64    0.78
   6 -18 -10    4.60    0.97
   6 -18  -9    8.67    0.74
   6 -18  -8    5.42    0.66
   6 -18  -7    4.62    0.67
   6 -18  -6   13.98    0.96
   6 -18  -5    2.09    0.67
   6 -18  -4   15.34    0.95
   6 -18  -3   10.26    0.88
   6 -18  -2    0.06    0.62
   6 -18  -1   12.96    0.85
   6 -18   0    2.52    0.73
   6 -18   1   15.25    0.85
   6 -18   2   10.52    0.93
   6 -18   3   -0.23    0.57
   6 -18   4    0.79    0.63
   6 -18   5    1.48    0.76
   6 -18   6    0.17    0.60
   6 -18   7    5.63    0.83
   6 -18   8    5.79    0.86
   6 -18   9    1.44    0.98
   7 -18 -11    1.63    0.91
   7 -18 -10    8.24    1.30
   7 -18  -9    0.97    0.62
   7 -18  -8    0.24    0.77
   7 -18  -7   15.16    0.82
   7 -18  -6    0.47    0.69
   7 -18  -5    2.29    0.73
   7 -18  -4   24.69    1.22
   7 -18  -3    2.99    0.88
   7 -18  -2   14.63    1.09
   7 -18  -1    3.82    0.82
   7 -18   0    0.09    0.68
   7 -18   1   10.68    0.85
   7 -18   2    9.58    0.92
   7 -18   3   -0.23    0.69
   7 -18   4    1.17    0.71
   7 -18   5    0.26    0.82
   7 -18   6   16.89    1.18
   7 -18   7   -0.10    0.67
   7 -18   8    1.72    1.21
   8 -18 -10    0.82    0.92
   8 -18  -9    0.58    0.55
   8 -18  -8    2.47    0.71
   8 -18  -7    1.24    0.81
   8 -18  -6    0.46    0.64
   8 -18  -5    3.65    0.66
   8 -18  -4    9.73    0.85
   8 -18  -3    1.09    0.65
   8 -18  -2    7.15    0.73
   8 -18  -1    0.03    0.71
   8 -18   0   10.95    0.93
   8 -18   1    3.41    0.79
   8 -18   2   -0.29    0.62
   8 -18   3    4.01    0.77
   8 -18   4    1.75    0.66
   8 -18   5    4.93    0.82
   8 -18   6    4.27    0.82
   9 -18  -9    2.44    0.87
   9 -18  -8   11.67    1.07
   9 -18  -7    0.27    0.73
   9 -18  -6    0.35    0.70
   9 -18  -5    2.18    0.81
   9 -18  -4    0.01    0.70
   9 -18  -3    2.31    0.79
   9 -18  -2    0.31    0.94
   9 -18  -1    1.23    0.59
   9 -18   0    4.50    0.81
   9 -18   1    0.42    0.63
   9 -18   2    0.82    0.92
   9 -18   3    0.22    0.68
   9 -18   4   -0.06    0.91
   9 -18   5    5.62    1.17
  10 -18  -7    0.57    0.85
  10 -18  -6    0.22    0.83
  10 -18  -5    2.33    0.65
  10 -18  -4    0.59    0.63
  10 -18  -3    1.29    0.71
  10 -18  -2    1.02    0.69
  10 -18  -1    6.38    0.94
  10 -18   0    0.46    0.79
  10 -18   1   -0.61    0.79
  10 -18   2   -0.04    0.74
  -8 -19  -2    0.93    1.19
  -8 -19  -1    1.01    0.90
  -8 -19   0    1.65    0.74
  -8 -19   1    3.83    0.78
  -8 -19   2    0.87    0.67
  -8 -19   3    6.30    0.83
  -8 -19   4    1.74    0.68
  -8 -19   5    1.63    0.82
  -8 -19   6    1.45    0.76
  -7 -19  -2    3.43    0.85
  -7 -19  -1    0.37    0.64
  -7 -19   0   13.79    0.91
  -7 -19   1   -0.05    0.68
  -7 -19   2    7.07    0.89
  -7 -19   3    0.47    0.70
  -7 -19   4    1.48    0.58
  -7 -19   5    0.20    0.68
  -7 -19   6   -0.33    0.71
  -7 -19   7    0.35    0.67
  -6 -19  -2    1.18    0.59
  -6 -19  -1   13.09    0.81
  -6 -19   0    0.28    0.63
  -6 -19   1    1.18    0.70
  -6 -19   2    0.52    0.72
  -6 -19   3   29.58    1.12
  -6 -19   4    0.39    0.80
  -6 -19   5    1.74    0.61
  -6 -19   6    0.41    0.69
  -6 -19   7   -0.11    0.63
  -6 -19   8    3.25    0.79
  -5 -19  -4    7.82    1.50
  -5 -19  -3    1.62    0.58
  -5 -19  -2    9.61    0.78
  -5 -19  -1    3.65    0.86
  -5 -19   0    3.85    0.65
  -5 -19   1    3.37    0.69
  -5 -19   2   55.33    1.40
  -5 -19   3    0.58    0.47
  -5 -19   4    6.70    0.70
  -5 -19   5    2.03    0.79
  -5 -19   6    1.36    0.69
  -5 -19   7    1.20    0.69
  -5 -19   8    5.90    0.81
  -5 -19   9   -0.41    0.63
  -4 -19  -4    2.47    0.57
  -4 -19  -3    5.76    0.69
  -4 -19  -2    0.11    0.68
  -4 -19  -1    9.68    0.80
  -4 -19   0    0.01    0.53
  -4 -19   1   11.10    0.80
  -4 -19   2    0.86    0.61
  -4 -19   3    0.36    0.72
  -4 -19   4    1.12    0.65
  -4 -19   5   18.85    0.95
  -4 -19   6    0.39    0.63
  -4 -19   7   18.02    0.95
  -4 -19   8   -0.67    0.62
  -4 -19   9    3.49    0.71
  -4 -19  10    3.49    1.07
  -3 -19  -5    0.02    0.53
  -3 -19  -4   -0.05    0.54
  -3 -19  -3    5.00    0.67
  -3 -19  -2   10.98    0.73
  -3 -19  -1    2.42    0.70
  -3 -19   0   15.02    0.93
  -3 -19   1    1.80    0.75
  -3 -19   2    4.39    0.71
  -3 -19   3    0.20    0.65
  -3 -19   4   13.04    0.86
  -3 -19   5   -0.04    0.69
  -3 -19   6    8.81    0.89
  -3 -19   7   -0.28    0.64
  -3 -19   8    2.30    0.60
  -3 -19   9    6.13    0.78
  -3 -19  10    4.33    0.82
  -2 -19  -6    0.39    0.51
  -2 -19  -5    1.14    0.57
  -2 -19  -4    7.51    0.68
  -2 -19  -3    9.41    0.80
  -2 -19  -2    0.17    0.53
  -2 -19  -1   16.14    1.04
  -2 -19   0    7.14    0.62
  -2 -19   1   22.95    0.91
  -2 -19   2   -0.16    0.69
  -2 -19   3    2.83    0.80
  -2 -19   4    5.06    0.78
  -2 -19   5    8.55    0.82
  -2 -19   6    1.84    0.92
  -2 -19   7    0.56    0.68
  -2 -19   8    9.27    0.83
  -2 -19   9    2.32    0.71
  -2 -19  10    0.35    0.64
  -1 -19  -7    0.62    0.97
  -1 -19  -6    6.81    0.72
  -1 -19  -5   10.92    0.93
  -1 -19  -4   17.63    0.84
  -1 -19  -3    1.86    0.66
  -1 -19  -2   -0.14    0.60
  -1 -19  -1    5.36    0.78
  -1 -19   0    9.44    0.73
  -1 -19   1    3.27    0.62
  -1 -19   2   24.42    1.03
  -1 -19   3    1.51    0.59
  -1 -19   4   10.00    0.84
  -1 -19   5    1.03    0.62
  -1 -19   6    0.42    0.62
  -1 -19   7    2.10    0.73
  -1 -19   8   -0.61    0.92
  -1 -19   9    7.22    0.73
  -1 -19  10   14.86    0.90
   0 -19  -8    0.33    0.85
   0 -19  -7    4.48    0.76
   0 -19  -6   10.20    0.69
   0 -19  -5    6.19    0.80
   0 -19  -4    4.15    0.86
   0 -19  -3    4.03    0.63
   0 -19  -2    5.03    0.70
   0 -19  -1   20.35    1.09
   0 -19   0   -0.09    0.73
   0 -19   1   20.87    1.08
   0 -19   2    4.88    0.84
   0 -19   3    3.33    0.74
   0 -19   4    4.16    0.71
   0 -19   5    6.14    0.81
   0 -19   6   11.19    0.81
   0 -19   7    5.90    0.82
   0 -19   8   -0.11    0.66
   0 -19   9    4.63    0.67
   0 -19  10    1.96    0.83
   1 -19  -9    7.03    1.38
   1 -19  -8    0.11    0.74
   1 -19  -7    2.25    0.53
   1 -19  -6    0.91    0.58
   1 -19  -5    1.18    0.68
   1 -19  -4    9.60    0.79
   1 -19  -3    1.63    0.58
   1 -19  -2   24.40    0.97
   1 -19  -1    4.55    0.74
   1 -19   0    9.43    0.74
   1 -19   1    4.37    0.73
   1 -19   2    0.53    0.69
   1 -19   3    1.06    0.64
   1 -19   4   18.47    1.09
   1 -19   5   11.82    0.99
   1 -19   6    6.19    0.77
   1 -19   7    1.64    0.71
   1 -19   8    1.04    0.71
   1 -19   9    1.89    0.73
   1 -19  10    0.45    0.94
   2 -19 -10    0.56    0.69
   2 -19  -9    1.68    0.67
   2 -19  -8    7.00    0.72
   2 -19  -7    0.12    0.67
   2 -19  -6    0.84    0.62
   2 -19  -5    9.18    0.79
   2 -19  -4    4.89    0.67
   2 -19  -3    5.04    0.79
   2 -19  -2   -0.05    0.69
   2 -19  -1   23.03    1.01
   2 -19   0    7.65    0.80
   2 -19   1   16.50    0.89
   2 -19   2    0.02    0.57
   2 -19   3    9.67    0.82
   2 -19   4    7.50    0.89
   2 -19   5    1.16    0.66
   2 -19   6    1.87    0.68
   2 -19   7    5.41    0.80
   2 -19   8    1.22    0.78
   2 -19   9    3.12    0.89
   3 -19 -10    3.70    1.03
   3 -19  -9    4.90    0.64
   3 -19  -8    3.04    0.72
   3 -19  -7    0.25    0.65
   3 -19  -6    7.83    0.77
   3 -19  -5   -0.17    0.63
   3 -19  -4   12.41    0.77
   3 -19  -3    1.23    0.54
   3 -19  -2    3.61    0.63
   3 -19  -1    1.08    0.69
   3 -19   0   15.21    1.02
   3 -19   1    1.79    0.77
   3 -19   2   10.45    0.77
   3 -19   3    5.39    0.61
   3 -19   4    0.09    0.90
   3 -19   5    0.72    0.66
   3 -19   6    4.11    0.74
   3 -19   7    4.55    0.80
   3 -19   8    2.01    0.70
   3 -19   9    0.75    1.21
   4 -19 -10    3.13    1.69
   4 -19  -9    3.59    0.68
   4 -19  -8   -0.14    0.65
   4 -19  -7   17.38    0.86
   4 -19  -6   -0.45    0.66
   4 -19  -5   18.49    0.82
   4 -19  -4    1.79    0.71
   4 -19  -3    0.02    0.82
   4 -19  -2    0.47    0.68
   4 -19  -1   10.59    0.77
   4 -19   0    0.29    0.71
   4 -19   1    8.89    0.88
   4 -19   2    0.19    0.71
   4 -19   3    6.39    0.74
   4 -19   4    2.93    0.83
   4 -19   5    7.19    0.78
   4 -19   6    0.00    0.62
   4 -19   7    5.49    0.82
   4 -19   8    1.88    0.74
   5 -19  -9   -0.38    1.19
   5 -19  -8    4.30    0.83
   5 -19  -7    1.43    0.69
   5 -19  -6    1.68    0.58
   5 -19  -5    2.84    0.64
   5 -19  -4    6.78    0.72
   5 -19  -3    0.50    0.71
   5 -19  -2   58.05    1.41
   5 -19  -1    2.87    0.68
   5 -19   0    3.15    0.69
   5 -19   1    4.08    0.76
   5 -19   2    8.80    0.84
   5 -19   3    1.12    0.80
   5 -19   4   10.27    0.86
   5 -19   5    1.07    0.74
   5 -19   6   13.97    1.21
   5 -19   7    3.15    0.75
   6 -19  -8    0.58    0.42
   6 -19  -7   -0.12    0.73
   6 -19  -6   -0.50    0.59
   6 -19  -5    1.29    0.61
   6 -19  -4   -0.11    0.67
   6 -19  -3   29.27    1.30
   6 -19  -2    1.43    0.70
   6 -19  -1    1.47    0.68
   6 -19   0   -0.50    0.85
   6 -19   1   12.97    0.96
   6 -19   2    0.80    0.65
   6 -19   3    4.26    0.84
   6 -19   4    1.06    0.64
   6 -19   5    0.35    0.70
   6 -19   6    2.41    0.73
   7 -19  -7   -0.39    0.83
   7 -19  -6   -0.05    0.63
   7 -19  -5    0.41    0.62
   7 -19  -4    1.41    0.74
   7 -19  -3    1.40    0.81
   7 -19  -2    8.83    0.92
   7 -19  -1    0.16    0.66
   7 -19   0   12.79    0.80
   7 -19   1    0.10    0.67
   7 -19   2    3.32    0.88
   7 -19   3    0.93    0.66
   7 -19   4   -0.26    0.99
   8 -19  -6    2.10    0.89
   8 -19  -5    2.20    0.70
   8 -19  -4    0.73    0.84
   8 -19  -3    7.40    0.77
   8 -19  -2    1.57    0.68
   8 -19  -1    4.38    0.95
   8 -19   0    1.27    0.69
   8 -19   1    1.27    0.75
   8 -19   2    0.70    0.70
  -6 -20   0    2.72    0.95
  -6 -20   1   -0.83    1.05
  -6 -20   2    2.18    0.98
  -6 -20   3    1.59    1.04
  -5 -20  -3    1.85    1.31
  -5 -20  -2   -0.26    0.71
  -5 -20   0    0.90    0.75
  -5 -20   1   11.68    0.81
  -5 -20   2   -0.50    0.68
  -5 -20   3    5.54    0.96
  -5 -20   4   11.99    1.58
  -5 -20   5   -0.03    1.17
  -4 -20  -4    0.88    1.22
  -4 -20  -3    0.75    1.19
  -4 -20  -2    0.86    0.79
  -4 -20  -1    3.03    0.81
  -4 -20   0    4.07    0.74
  -4 -20   1    0.72    0.63
  -4 -20   2    0.26    0.98
  -4 -20   3    6.11    0.72
  -4 -20   4    3.79    0.71
  -4 -20   5   -0.27    1.07
  -4 -20   6    0.43    0.47
  -3 -20  -5    0.80    0.85
  -3 -20  -4    0.32    0.75
  -3 -20  -3    3.01    0.73
  -3 -20  -2    0.58    0.61
  -3 -20  -1   13.73    0.85
  -3 -20   0    6.97    0.85
  -3 -20   1    0.83    0.67
  -3 -20   2    2.81    0.72
  -3 -20   3    4.86    1.02
  -3 -20   4    5.54    1.00
  -3 -20   5    2.60    0.70
  -3 -20   6    0.11    0.58
  -2 -20  -5    2.45    0.86
  -2 -20  -4    4.19    1.04
  -2 -20  -3    2.23    0.64
  -2 -20  -2   14.48    0.86
  -2 -20  -1    3.19    0.77
  -2 -20   0    0.30    0.67
  -2 -20   1    5.87    0.70
  -2 -20   2    0.76    0.58
  -2 -20   3    2.20    0.66
  -2 -20   4    0.68    0.65
  -2 -20   5    1.17    0.62
  -2 -20   6    0.51    0.65
  -2 -20   7    3.02    0.89
  -1 -20  -6   -0.02    0.95
  -1 -20  -5    1.91    0.60
  -1 -20  -4    2.10    0.59
  -1 -20  -3    0.64    0.63
  -1 -20  -2    2.39    0.77
  -1 -20  -1    2.47    0.66
  -1 -20   0    0.40    0.58
  -1 -20   1   14.37    0.91
  -1 -20   2   -0.42    0.71
  -1 -20   3    0.17    0.65
  -1 -20   4    0.61    0.71
  -1 -20   5    0.71    0.75
  -1 -20   6    6.57    0.91
  -1 -20   7    2.54    0.77
   0 -20  -7    1.49    1.10
   0 -20  -6    4.58    0.87
   0 -20  -5    0.86    0.65
   0 -20  -4    0.83    0.66
   0 -20  -3    0.14    0.62
   0 -20  -2   14.23    0.79
   0 -20  -1    1.64    0.84
   0 -20   0   59.56    1.61
   0 -20   1    2.69    0.80
   0 -20   2   15.04    0.97
   0 -20   3    0.54    0.88
   0 -20   4    0.12    0.63
   0 -20   5    1.73    0.73
   0 -20   6    4.34    0.74
   0 -20   7    0.77    0.81
   1 -20  -6    4.66    0.84
   1 -20  -5    0.77    0.60
   1 -20  -4   -0.35    1.02
   1 -20  -3    1.04    0.67
   1 -20  -2   -0.09    0.87
   1 -20  -1   15.23    0.86
   1 -20   0    0.13    0.62
   1 -20   1    3.37    0.60
   1 -20   2    1.99    0.61
   1 -20   3    0.34    0.64
   1 -20   4    2.31    0.84
   1 -20   5    1.37    0.71
   1 -20   6   -0.85    0.82
   2 -20  -7    3.21    1.57
   2 -20  -6    0.85    0.58
   2 -20  -5    0.86    0.62
   2 -20  -4   -0.04    1.04
   2 -20  -3    1.30    0.67
   2 -20  -2    1.07    0.94
   2 -20  -1    5.28    0.81
   2 -20   0    1.20    0.82
   2 -20   1    3.12    0.80
   2 -20   2   13.44    0.87
   2 -20   3    1.61    0.66
   2 -20   4    2.88    0.84
   2 -20   5    2.79    0.66
   2 -20   6    0.73    0.82
   3 -20  -6    0.79    0.75
   3 -20  -5    2.37    0.60
   3 -20  -4    3.77    0.87
   3 -20  -3    5.04    0.90
   3 -20  -2    1.96    0.67
   3 -20  -1    0.66    0.59
   3 -20   0    7.67    0.79
   3 -20   1   13.37    0.93
   3 -20   2    0.75    0.74
   3 -20   3    3.53    0.73
   3 -20   4    0.79    0.61
   3 -20   5   -0.85    1.04
   4 -20  -6    3.13    1.64
   4 -20  -5    0.53    1.45
   4 -20  -4    5.34    0.88
   4 -20  -3    4.08    0.67
   4 -20  -2    1.21    0.66
   4 -20  -1    0.35    0.59
   4 -20   0    4.98    0.68
   4 -20   1    2.26    0.70
   4 -20   2    1.42    0.65
   4 -20   3    0.18    0.74
   4 -20   4    2.11    0.68
   5 -20  -5    1.10    1.00
   5 -20  -4    2.98    0.82
   5 -20  -3    6.08    0.86
   5 -20  -2    0.19    0.71
   5 -20  -1   10.81    0.75
   5 -20   0    0.96    0.66
   5 -20   1   -0.15    0.79
   5 -20   2   -0.14    0.64
   5 -20   3    2.71    0.96
   6 -20  -3    1.68    1.27
   6 -20  -2    1.17    1.25
   6 -20  -1    0.50    0.98
   6 -20   0    2.85    0.96
   0   0   0    0.00    0.00
;
_shelx_hkl_checksum              77784
#END Tags that were not found in dictionaries
loop_
_space_group_symop_operation_xyz
'x, y, z'
'-x+1/2, y+1/2, -z+1/2'
'-x, -y, -z'
'x-1/2, -y-1/2, z-1/2'
loop_
_atom_site_label
_atom_site_type_symbol
_atom_site_fract_x
_atom_site_fract_y
_atom_site_fract_z
_atom_site_U_iso_or_equiv
_atom_site_adp_type
_atom_site_occupancy
_atom_site_site_symmetry_order
_atom_site_calc_flag
_atom_site_refinement_flags_posn
_atom_site_refinement_flags_adp
_atom_site_refinement_flags_occupancy
_atom_site_disorder_assembly
_atom_site_disorder_group
C1 C 0.74393(15) 0.50926(17) 0.14827(13) 0.0395(6) Uani 1 1 d . . . . .
C2 C 0.80119(15) 0.45495(17) 0.14064(14) 0.0429(6) Uani 1 1 d . . . . .
H2 H 0.8211 0.4173 0.1698 0.051 Uiso 1 1 calc R U . . .
C3 C 0.82055(15) 0.46879(17) 0.08347(14) 0.0430(6) Uani 1 1 d . . . . .
H3 H 0.8564 0.4424 0.0658 0.052 Uiso 1 1 calc R U . . .
C4 C 0.77581(14) 0.53169(17) 0.05479(13) 0.0405(6) Uani 1 1 d . . . . .
C5 C 0.78324(16) 0.56888(18) -0.00215(13) 0.0445(7) Uani 1 1 d . . . . .
C6 C 0.74067(17) 0.63145(19) -0.02978(14) 0.0471(7) Uani 1 1 d . . . . .
C7 C 0.75212(19) 0.6713(2) -0.08671(15) 0.0603(9) Uani 1 1 d . . . . .
H7 H 0.7873 0.6592 -0.1119 0.072 Uiso 1 1 calc R U . . .
C8 C 0.70289(19) 0.7289(2) -0.09645(16) 0.0604(9) Uani 1 1 d . . . . .
H8 H 0.6975 0.7642 -0.1297 0.072 Uiso 1 1 calc R U . . .
C9 C 0.65957(16) 0.72621(18) -0.04593(13) 0.0448(7) Uani 1 1 d . . . . .
C10 C 0.60402(16) 0.77880(17) -0.03841(13) 0.0433(6) Uani 1 1 d . . . . .
C11 C 0.56387(15) 0.77955(16) 0.01200(13) 0.0398(6) Uani 1 1 d . . . . .
C12 C 0.50998(17) 0.83685(17) 0.02153(14) 0.0448(6) Uani 1 1 d . . . . .
H12 H 0.4919 0.8762 -0.0065 0.054 Uiso 1 1 calc R U . . .
C13 C 0.49064(17) 0.82280(17) 0.07865(14) 0.0447(7) Uani 1 1 d . . . . .
H13 H 0.4570 0.8509 0.0976 0.054 Uiso 1 1 calc R U . . .
C14 C 0.53176(15) 0.75593(16) 0.10510(13) 0.0383(6) Uani 1 1 d . . . . .
C15 C 0.53226(16) 0.72626(16) 0.16646(13) 0.0407(6) Uani 1 1 d . . . . .
C16 C 0.57518(16) 0.66468(17) 0.19469(13) 0.0429(6) Uani 1 1 d . . . . .
C17 C 0.5773(2) 0.63790(19) 0.25923(15) 0.0532(8) Uani 1 1 d . . . . .
H17 H 0.5490 0.6566 0.2883 0.064 Uiso 1 1 calc R U . . .
C18 C 0.6278(2) 0.5807(2) 0.26955(14) 0.0551(8) Uani 1 1 d . . . . .
H18 H 0.6413 0.5529 0.3073 0.066 Uiso 1 1 calc R U . . .
C19 C 0.65722(17) 0.57026(18) 0.21158(13) 0.0445(6) Uani 1 1 d . . . . .
C20 C 0.71302(16) 0.51821(17) 0.20361(13) 0.0422(6) Uani 1 1 d . . . . .
C21 C 0.84806(17) 0.5450(2) -0.03290(14) 0.0495(7) Uani 1 1 d . . . . .
C22 C 0.84950(18) 0.4767(2) -0.06346(15) 0.0547(8) Uani 1 1 d . . . . .
H22 H 0.8089 0.4435 -0.0663 0.066 Uiso 1 1 calc R U . . .
C23 C 0.91211(17) 0.45613(19) -0.09074(15) 0.0522(8) Uani 1 1 d D . . . .
C24 C 0.97219(18) 0.5046(2) -0.08556(15) 0.0526(8) Uani 1 1 d . . . . .
H24 H 1.0142 0.4902 -0.1021 0.063 Uiso 1 1 calc R U . . .
C25 C 0.97144(19) 0.5743(2) -0.05633(16) 0.0571(8) Uani 1 1 d . . . . .
H25 H 1.0118 0.6076 -0.0544 0.069 Uiso 1 1 calc R U . . .
C26 C 0.90958(18) 0.5944(2) -0.02966(15) 0.0539(8) Uani 1 1 d . . . . .
H26 H 0.9090 0.6414 -0.0094 0.065 Uiso 1 1 calc R U . . .
C27 C 0.59154(17) 0.84489(19) -0.08392(14) 0.0475(7) Uani 1 1 d . . . . .
C28 C 0.54259(16) 0.84112(19) -0.14204(14) 0.0453(7) Uani 1 1 d . . . . .
H28 H 0.5166 0.7961 -0.1541 0.054 Uiso 1 1 calc R U . . .
C29 C 0.53141(16) 0.90429(18) -0.18337(14) 0.0462(7) Uani 1 1 d . . . . .
C30 C 0.5706(2) 0.9709(2) -0.16489(17) 0.0614(9) Uani 1 1 d . . . . .
H30 H 0.5633 1.0131 -0.1919 0.074 Uiso 1 1 calc R U . . .
C31 C 0.6201(3) 0.9756(2) -0.10730(19) 0.0770(12) Uani 1 1 d . . . . .
H31 H 0.6465 1.0205 -0.0955 0.092 Uiso 1 1 calc R U . . .
C32 C 0.6304(2) 0.9130(2) -0.06706(18) 0.0707(11) Uani 1 1 d . . . . .
H32 H 0.6638 0.9162 -0.0280 0.085 Uiso 1 1 calc R U . . .
C33 C 0.49022(17) 0.77159(17) 0.20854(13) 0.0446(7) Uani 1 1 d . . . . .
C34 C 0.41398(19) 0.7644(2) 0.20574(16) 0.0593(9) Uani 1 1 d . . . . .
H34 H 0.3869 0.7290 0.1779 0.071 Uiso 1 1 calc R U . . .
C35 C 0.37609(17) 0.8100(2) 0.24434(16) 0.0595(9) Uani 1 1 d . . . . .
C36 C 0.41728(19) 0.86156(18) 0.28565(15) 0.0504(7) Uani 1 1 d . . . . .
H36 H 0.3930 0.8923 0.3112 0.060 Uiso 1 1 calc R U . . .
C37 C 0.49383(19) 0.86820(18) 0.28955(16) 0.0518(7) Uani 1 1 d . . . . .
H37 H 0.5213 0.9023 0.3184 0.062 Uiso 1 1 calc R U . . .
C38 C 0.52975(18) 0.82437(18) 0.25080(15) 0.0499(7) Uani 1 1 d . . . . .
H38 H 0.5814 0.8301 0.2529 0.060 Uiso 1 1 calc R U . . .
C39 C 0.74904(17) 0.47289(18) 0.26154(13) 0.0448(7) Uani 1 1 d . . . . .
C40 C 0.71367(19) 0.41270(19) 0.28490(14) 0.0511(7) Uani 1 1 d . . . . .
H40 H 0.6654 0.3988 0.2645 0.061 Uiso 1 1 calc R U . . .
C41 C 0.74941(18) 0.37198(17) 0.33895(15) 0.0507(7) Uani 1 1 d . . . . .
C42 C 0.82133(18) 0.39337(19) 0.36904(14) 0.0503(7) Uani 1 1 d . . . . .
H42 H 0.8456 0.3664 0.4048 0.060 Uiso 1 1 calc R U . . .
C43 C 0.85670(19) 0.4529(2) 0.34708(16) 0.0597(9) Uani 1 1 d . . . . .
H43 H 0.9048 0.4671 0.3679 0.072 Uiso 1 1 calc R U . . .
C44 C 0.82081(19) 0.4928(2) 0.29330(16) 0.0595(9) Uani 1 1 d . . . . .
H44 H 0.8454 0.5336 0.2783 0.071 Uiso 1 1 calc R U . . .
C45 C 0.9173(4) 0.3800(3) -0.1189(3) 0.0536(15) Uani 0.745(9) 1 d D . P A 1
H45 H 0.9625 0.3659 -0.1305 0.064 Uiso 0.745(9) 1 calc R U P A 1
N5 N 0.8635(3) 0.3329(3) -0.1282(2) 0.0618(14) Uani 0.745(9) 1 d D . P A 1
C46 C 0.8756(3) 0.2622(4) -0.1612(3) 0.0715(18) Uani 0.745(9) 1 d D . P A 1
H46A H 0.8660 0.2190 -0.1354 0.086 Uiso 0.745(9) 1 calc R U P A 1
H46B H 0.9277 0.2595 -0.1667 0.086 Uiso 0.745(9) 1 calc R U P A 1
C47 C 0.8228(3) 0.2588(5) -0.2271(3) 0.081(2) Uani 0.745(9) 1 d D . P A 1
H47A H 0.8315 0.3028 -0.2523 0.098 Uiso 0.745(9) 1 calc R U P A 1
H47B H 0.8339 0.2134 -0.2498 0.098 Uiso 0.745(9) 1 calc R U P A 1
N6 N 0.7442(2) 0.2573(4) -0.2200(3) 0.0738(17) Uani 0.745(9) 1 d D . P A 1
C48 C 0.7040(2) 0.2023(4) -0.2473(3) 0.0604(16) Uani 0.745(9) 1 d D . P A 1
H48 H 0.7268 0.1676 -0.2707 0.073 Uiso 0.745(9) 1 calc R U P A 1
C45B C 0.9059(12) 0.3925(12) -0.1367(10) 0.0536(15) Uani 0.255(9) 1 d D U P A 2
H45B H 0.9504 0.3796 -0.1501 0.064 Uiso 0.255(9) 1 calc R U P A 2
N5B N 0.8484(12) 0.3525(15) -0.1609(15) 0.135(10) Uani 0.255(9) 1 d D U P A 2
C46B C 0.8575(16) 0.2895(14) -0.2045(15) 0.137(10) Uani 0.255(9) 1 d D U P A 2
H46C H 0.9105 0.2843 -0.2065 0.164 Uiso 0.255(9) 1 calc R U P A 2
H46D H 0.8304 0.3015 -0.2473 0.164 Uiso 0.255(9) 1 calc R U P A 2
C47B C 0.8282(8) 0.2126(12) -0.1827(12) 0.114(8) Uani 0.255(9) 1 d D U P A 2
H47C H 0.8383 0.1718 -0.2107 0.137 Uiso 0.255(9) 1 calc R U P A 2
H47D H 0.8532 0.2008 -0.1392 0.137 Uiso 0.255(9) 1 calc R U P A 2
N6B N 0.7482(7) 0.2202(14) -0.1857(10) 0.093(6) Uani 0.255(9) 1 d D U P A 2
C48B C 0.7052(10) 0.1783(12) -0.2252(8) 0.0604(16) Uani 0.255(9) 1 d D U P A 2
H48B H 0.7267 0.1375 -0.2432 0.073 Uiso 0.255(9) 1 calc R U P A 2
C49 C 0.47820(17) 0.90136(19) -0.24492(14) 0.0482(7) Uani 1 1 d . . . . .
H49 H 0.4753 0.9434 -0.2719 0.058 Uiso 1 1 calc R U . . .
C50 C 0.3812(2) 0.8545(2) -0.32318(18) 0.0532(10) Uani 0.897(4) 1 d D . P B 1
H50A H 0.3939 0.8994 -0.3457 0.064 Uiso 0.897(4) 1 calc R U P B 1
H50B H 0.3315 0.8622 -0.3133 0.064 Uiso 0.897(4) 1 calc R U P B 1
C51 C 0.3799(2) 0.7859(2) -0.36586(17) 0.0573(10) Uani 0.897(4) 1 d D . P B 1
H51A H 0.3480 0.7962 -0.4071 0.069 Uiso 0.897(4) 1 calc R U P B 1
H51B H 0.4305 0.7757 -0.3730 0.069 Uiso 0.897(4) 1 calc R U P B 1
N8 N 0.35154(18) 0.71886(18) -0.33700(14) 0.0535(8) Uani 0.897(4) 1 d D . P B 1
C52 C 0.2881(2) 0.6929(2) -0.36408(16) 0.0498(9) Uani 0.897(4) 1 d D . P B 1
H52 H 0.2638 0.7159 -0.4018 0.060 Uiso 0.897(4) 1 calc R U P B 1
C50B C 0.4037(15) 0.834(2) -0.3314(9) 0.0532(10) Uani 0.103(4) 1 d D . P B 2
H50C H 0.4251 0.7902 -0.3487 0.064 Uiso 0.103(4) 1 calc R U P B 2
H50D H 0.4113 0.8790 -0.3564 0.064 Uiso 0.103(4) 1 calc R U P B 2
C51B C 0.3215(15) 0.8226(14) -0.3304(15) 0.0573(10) Uani 0.103(4) 1 d D . P B 2
H51C H 0.3058 0.8580 -0.3004 0.069 Uiso 0.103(4) 1 calc R U P B 2
H51D H 0.2920 0.8330 -0.3727 0.069 Uiso 0.103(4) 1 calc R U P B 2
N8B N 0.3075(14) 0.7452(13) -0.3119(12) 0.0535(8) Uani 0.103(4) 1 d D . P B 2
C52B C 0.2512(15) 0.7120(2) -0.3420(14) 0.0498(9) Uani 0.103(4) 1 d D . P B 2
H52B H 0.2109 0.7389 -0.3655 0.060 Uiso 0.103(4) 1 calc R U P B 2
C53 C 0.5856(3) 0.4807(3) 0.0005(3) 0.0453(13) Uani 0.5 1 d . . P C -1
H53A H 0.6194 0.4554 0.0351 0.054 Uiso 0.5 1 calc R U P C -1
H53B H 0.6149 0.4973 -0.0309 0.054 Uiso 0.5 1 calc R U P C -1
C54 C 0.5247(3) 0.4243(4) -0.0311(3) 0.0483(14) Uani 0.5 1 d . . P C -1
H54A H 0.5279 0.4179 -0.0760 0.058 Uiso 0.5 1 calc R U P C -1
H54B H 0.5334 0.3751 -0.0103 0.058 Uiso 0.5 1 calc R U P C -1
C55 C 0.4960(3) 0.5834(3) -0.0235(3) 0.0444(13) Uani 0.5 1 d . . P C -1
H55A H 0.5213 0.6035 -0.0564 0.053 Uiso 0.5 1 calc R U P C -1
H55B H 0.4725 0.6256 -0.0053 0.053 Uiso 0.5 1 calc R U P C -1
C56 C 0.4349(3) 0.5269(3) -0.0542(3) 0.0471(14) Uani 0.5 1 d . . P C -1
H56A H 0.3860 0.5450 -0.0479 0.057 Uiso 0.5 1 calc R U P C -1
H56B H 0.4339 0.5242 -0.1000 0.057 Uiso 0.5 1 calc R U P C -1
C57 C 0.5079(3) 0.5156(4) 0.0768(3) 0.0449(13) Uani 0.5 1 d . . P C -1
H57A H 0.5429 0.4904 0.1106 0.054 Uiso 0.5 1 calc R U P C -1
H57B H 0.4841 0.5570 0.0959 0.054 Uiso 0.5 1 calc R U P C -1
C58 C 0.4475(4) 0.4587(4) 0.0455(3) 0.0466(14) Uani 0.5 1 d . . P C -1
H58A H 0.3982 0.4759 0.0513 0.056 Uiso 0.5 1 calc R U P C -1
H58B H 0.4571 0.4093 0.0659 0.056 Uiso 0.5 1 calc R U P C -1
C59 C 0.3374(3) 0.7617(3) -0.1695(2) 0.0568(10) Uani 0.819(7) 1 d D . P D 1
H59 H 0.3677 0.7738 -0.2020 0.068 Uiso 0.819(7) 1 calc R U P D 1
Cl1 Cl 0.36848(14) 0.67480(14) -0.13350(11) 0.0751(6) Uani 0.819(7) 1 d D . P D
1
Cl2 Cl 0.24218(8) 0.75517(9) -0.20750(9) 0.0701(6) Uani 0.819(7) 1 d D . P D 1
Cl3 Cl 0.34936(17) 0.83476(17) -0.11219(16) 0.0874(8) Uani 0.819(7) 1 d D . P D
1
C59B C 0.3294(12) 0.7590(14) -0.1646(17) 0.0568(10) Uani 0.091(7) 1 d D U P E 2
H59B H 0.3404 0.7554 -0.2081 0.068 Uiso 0.091(7) 1 calc R U P E 2
Cl1B Cl 0.3838(13) 0.6973(12) -0.1131(11) 0.082(5) Uani 0.091(7) 1 d D U P E 2
Cl2B Cl 0.2345(8) 0.7418(11) -0.1644(19) 0.122(10) Uani 0.091(7) 1 d D U P E 2
Cl3B Cl 0.3499(13) 0.8498(11) -0.1321(11) 0.066(4) Uani 0.091(7) 1 d D U P E 2
C60 C 0.2518(9) 0.7293(9) 0.0396(10) 0.068(2) Uani 0.482(14) 1 d . . P F 1
H60 H 0.2240 0.7082 0.0710 0.081 Uiso 0.482(14) 1 calc R U P F 1
Cl4 Cl 0.3294(4) 0.6701(4) 0.0411(4) 0.0788(13) Uani 0.482(14) 1 d . . P F 1
Cl5 Cl 0.1887(3) 0.7293(3) -0.0341(3) 0.0835(14) Uani 0.482(14) 1 d . . P F 1
Cl6 Cl 0.2780(2) 0.8222(2) 0.0659(2) 0.0702(13) Uani 0.482(14) 1 d . . P F 1
C60B C 0.2465(11) 0.7319(11) 0.0468(14) 0.068(2) Uani 0.350(14) 1 d D U P G 2
H60B H 0.2344 0.7231 0.0893 0.081 Uiso 0.350(14) 1 calc R U P G 2
Cl4C Cl 0.3118(7) 0.6680(8) 0.0309(8) 0.123(4) Uani 0.350(14) 1 d D U P G 2
Cl5C Cl 0.1666(6) 0.7256(6) -0.0126(8) 0.123(3) Uani 0.350(14) 1 d D U P G 2
Cl6C Cl 0.2834(6) 0.8240(5) 0.0412(8) 0.166(4) Uani 0.350(14) 1 d D U P G 2
C61 C 0.1483(7) 0.9535(7) -0.0211(6) 0.073(3) Uani 0.432(6) 1 d . . P H 1
H61 H 0.1470 0.8977 -0.0222 0.088 Uiso 0.432(6) 1 calc R U P H 1
Cl7 Cl 0.2246(2) 0.9804(3) -0.0522(2) 0.0602(9) Uani 0.432(6) 1 d . . P H 1
Cl8 Cl 0.06386(15) 0.9848(2) -0.06860(12) 0.0765(13) Uani 0.432(6) 1 d . . P H
1
Cl9 Cl 0.1549(2) 0.9803(3) 0.06032(18) 0.0780(12) Uani 0.432(6) 1 d . . P H 1
C61B C 0.1410(14) 0.9299(18) -0.0224(11) 0.073(3) Uani 0.145(7) 1 d D U P I 2
H61B H 0.1644 0.8796 -0.0229 0.088 Uiso 0.145(7) 1 calc R U P I 2
Cl7E Cl 0.1954(12) 0.9934(11) -0.0529(7) 0.098(5) Uani 0.145(7) 1 d D U P I 2
Cl8E Cl 0.0513(8) 0.9250(14) -0.0698(7) 0.142(7) Uani 0.145(7) 1 d D U P I 2
Cl9E Cl 0.1442(15) 0.9554(16) 0.0573(9) 0.148(10) Uani 0.145(7) 1 d D U P I 2
C62 C 0.6878(10) 0.4507(16) -0.2279(10) 0.102(4) Uani 0.250(10) 1 d D . P J 1
H62 H 0.7052 0.4034 -0.2053 0.122 Uiso 0.250(10) 1 calc R U P J 1
Cl10 Cl 0.5961(8) 0.4371(8) -0.2669(12) 0.232(9) Uani 0.250(10) 1 d D . P J 1
Cl11 Cl 0.6888(6) 0.5197(6) -0.1725(4) 0.075(2) Uani 0.250(10) 1 d D . P J 1
Cl12 Cl 0.7432(14) 0.4672(12) -0.2851(8) 0.198(9) Uani 0.250(10) 1 d D . P J 1
C62B C 0.7040(9) 0.4337(12) -0.2275(8) 0.102(4) Uani 0.330(12) 1 d D U P K 2
H62B H 0.7223 0.3876 -0.2035 0.122 Uiso 0.330(12) 1 calc R U P K 2
Cl1C Cl 0.6281(5) 0.4085(6) -0.2867(2) 0.112(3) Uani 0.330(12) 1 d D U P K 2
Cl2C Cl 0.6754(7) 0.4952(9) -0.1760(5) 0.147(6) Uani 0.330(12) 1 d D U P K 2
Cl3C Cl 0.7750(4) 0.4666(4) -0.2656(5) 0.096(3) Uani 0.330(12) 1 d D U P K 2
C62C C 0.7048(13) 0.4191(15) -0.2287(10) 0.102(4) Uani 0.247(8) 1 d D U P L 4
H62C H 0.7390 0.3805 -0.2060 0.122 Uiso 0.247(8) 1 calc R U P L 4
Cl1D Cl 0.6671(12) 0.3757(9) -0.3012(6) 0.190(6) Uani 0.247(8) 1 d D U P L 4
Cl2D Cl 0.6425(7) 0.4342(9) -0.1802(7) 0.178(5) Uani 0.247(8) 1 d D U P L 4
Cl3D Cl 0.7634(9) 0.4961(9) -0.2350(5) 0.156(5) Uani 0.247(8) 1 d D U P L 4
C63 C 0.4466(9) 0.6631(12) 0.4638(7) 0.119(3) Uani 0.356(8) 1 d D . P M 1
H63 H 0.4494 0.6090 0.4530 0.143 Uiso 0.356(8) 1 calc R U P M 1
Cl13 Cl 0.4725(5) 0.7172(2) 0.4008(2) 0.097(2) Uani 0.356(8) 1 d D . P M 1
Cl14 Cl 0.5109(3) 0.6800(5) 0.5332(2) 0.102(2) Uani 0.356(8) 1 d D . P M 1
Cl15 Cl 0.3557(2) 0.6813(3) 0.4784(4) 0.115(3) Uani 0.356(8) 1 d D . P M 1
C63B C 0.4385(10) 0.6645(16) 0.4701(8) 0.119(3) Uani 0.272(8) 1 d D U P N 2
H63B H 0.4560 0.6119 0.4677 0.143 Uiso 0.272(8) 1 calc R U P N 2
Cl4B Cl 0.4199(9) 0.7017(8) 0.3905(4) 0.151(5) Uani 0.272(8) 1 d D U P N 2
Cl5B Cl 0.5120(5) 0.7167(6) 0.5126(6) 0.133(3) Uani 0.272(8) 1 d D U P N 2
Cl6B Cl 0.3533(8) 0.6615(12) 0.4982(6) 0.255(10) Uani 0.272(8) 1 d D U P N 2
C64 C 0.5013(15) 0.6224(13) -0.2582(9) 0.154(4) Uani 0.217(4) 1 d D U P O 1
H64 H 0.4567 0.6552 -0.2683 0.184 Uiso 0.217(4) 1 calc R U P O 1
Cl16 Cl 0.5620(3) 0.6604(4) -0.1943(2) 0.0742(18) Uani 0.217(4) 1 d D U P O 1
Cl17 Cl 0.4726(4) 0.5312(4) -0.2424(4) 0.113(3) Uani 0.217(4) 1 d D U P O 1
Cl18 Cl 0.5424(13) 0.6157(10) -0.3260(5) 0.219(9) Uani 0.217(4) 1 d D U P O 1
C64B C 0.5389(16) 0.559(2) -0.2546(13) 0.154(4) Uani 0.158(6) 1 d D U P P 3
H64B H 0.5202 0.5090 -0.2447 0.184 Uiso 0.158(6) 1 calc R U P P 3
Cl7B Cl 0.5133(11) 0.6219(14) -0.2020(10) 0.190(9) Uani 0.158(6) 1 d D U P P 3
Cl8B Cl 0.6357(13) 0.552(2) -0.2477(16) 0.320(17) Uani 0.158(6) 1 d D U P P 3
Cl9B Cl 0.4904(16) 0.585(2) -0.3311(11) 0.208(11) Uani 0.158(6) 1 d D U P P 3
C64C C 0.5272(19) 0.6475(18) -0.2578(13) 0.154(4) Uani 0.089(4) 1 d D U P Q 4
H64C H 0.4804 0.6752 -0.2564 0.184 Uiso 0.089(4) 1 calc R U P Q 4
Cl7C Cl 0.5668(19) 0.6111(13) -0.1839(9) 0.124(7) Uani 0.089(4) 1 d D U P Q 4
Cl8C Cl 0.5975(12) 0.7078(12) -0.2740(9) 0.130(7) Uani 0.089(4) 1 d D U P Q 4
Cl9C Cl 0.5129(16) 0.5736(19) -0.3143(11) 0.133(8) Uani 0.089(4) 1 d D U P Q 4
C64D C 0.5353(17) 0.5542(19) -0.2549(12) 0.154(4) Uani 0.159(5) 1 d D U P R 5
H64D H 0.5007 0.5110 -0.2646 0.184 Uiso 0.159(5) 1 calc R U P R 5
Cl7D Cl 0.4813(10) 0.6331(10) -0.2712(10) 0.180(8) Uani 0.159(5) 1 d D U P R 5
Cl8D Cl 0.588(2) 0.536(3) -0.1803(10) 0.342(19) Uani 0.159(5) 1 d D U P R 5
Cl9D Cl 0.5945(14) 0.550(2) -0.3111(9) 0.242(12) Uani 0.159(5) 1 d D U P R 5
N1 N 0.72760(12) 0.55428(14) 0.09421(10) 0.0383(5) Uani 1 1 d . . . . .
N2 N 0.68330(13) 0.66572(14) -0.00652(11) 0.0405(5) Uani 1 1 d . . . . .
N3 N 0.57466(12) 0.72949(13) 0.06266(10) 0.0377(5) Uani 1 1 d . . . . .
N4 N 0.62331(13) 0.62154(13) 0.16626(11) 0.0403(5) Uani 1 1 d . . . . .
N7 N 0.43646(15) 0.84528(16) -0.26309(12) 0.0515(6) Uani 1 1 d D . . . .
N9 N 0.55132(12) 0.54820(13) 0.02636(10) 0.0352(5) Uani 1 1 d . . . . .
Zn1 Zn 0.63788(2) 0.62975(2) 0.07178(2) 0.03518(14) Uani 1 1 d . . . . .
loop_
_atom_site_aniso_label
_atom_site_aniso_U_11
_atom_site_aniso_U_22
_atom_site_aniso_U_33
_atom_site_aniso_U_23
_atom_site_aniso_U_13
_atom_site_aniso_U_12
C1 0.0331(13) 0.0497(15) 0.0333(13) 0.0042(12) 0.0007(10) 0.0017(12)
C2 0.0369(14) 0.0512(16) 0.0388(14) 0.0063(12) 0.0030(11) 0.0078(12)
C3 0.0328(13) 0.0546(17) 0.0410(15) 0.0000(13) 0.0056(11) 0.0057(12)
C4 0.0295(13) 0.0567(17) 0.0343(13) -0.0003(12) 0.0033(10) 0.0021(12)
C5 0.0356(14) 0.0620(18) 0.0359(14) 0.0039(13) 0.0068(11) 0.0054(13)
C6 0.0392(15) 0.068(2) 0.0350(14) 0.0068(13) 0.0091(12) 0.0049(14)
C7 0.0544(19) 0.090(3) 0.0413(16) 0.0187(17) 0.0205(14) 0.0175(18)
C8 0.0577(19) 0.083(2) 0.0430(17) 0.0250(17) 0.0147(15) 0.0139(18)
C9 0.0409(15) 0.0601(18) 0.0319(13) 0.0076(13) 0.0028(11) 0.0016(13)
C10 0.0417(15) 0.0506(16) 0.0342(14) 0.0048(12) -0.0013(11) -0.0033(13)
C11 0.0391(14) 0.0445(15) 0.0323(13) 0.0026(11) -0.0021(11) -0.0023(12)
C12 0.0467(16) 0.0436(15) 0.0402(15) 0.0026(12) -0.0016(12) 0.0031(13)
C13 0.0443(15) 0.0471(16) 0.0403(15) -0.0015(12) 0.0022(12) 0.0061(13)
C14 0.0367(13) 0.0425(14) 0.0334(13) -0.0034(11) 0.0009(11) -0.0014(11)
C15 0.0407(14) 0.0460(15) 0.0344(13) -0.0037(12) 0.0046(11) 0.0014(12)
C16 0.0442(15) 0.0532(17) 0.0315(13) 0.0000(12) 0.0076(11) 0.0057(13)
C17 0.062(2) 0.065(2) 0.0345(15) 0.0046(14) 0.0149(14) 0.0156(16)
C18 0.066(2) 0.068(2) 0.0336(14) 0.0111(14) 0.0133(14) 0.0182(17)
C19 0.0470(15) 0.0546(17) 0.0310(13) 0.0077(12) 0.0054(11) 0.0076(13)
C20 0.0397(14) 0.0530(16) 0.0328(13) 0.0060(12) 0.0044(11) 0.0036(12)
C21 0.0397(15) 0.071(2) 0.0379(15) 0.0067(14) 0.0072(12) 0.0082(14)
C22 0.0436(16) 0.073(2) 0.0476(17) -0.0032(16) 0.0074(13) 0.0020(15)
C23 0.0403(16) 0.071(2) 0.0444(16) 0.0016(15) 0.0065(13) 0.0059(15)
C24 0.0445(16) 0.073(2) 0.0413(15) 0.0061(15) 0.0118(13) 0.0045(15)
C25 0.0479(17) 0.078(2) 0.0468(17) 0.0073(17) 0.0125(14) -0.0028(16)
C26 0.0470(17) 0.072(2) 0.0437(16) 0.0029(15) 0.0121(13) 0.0017(15)
C27 0.0458(16) 0.0562(17) 0.0381(15) 0.0095(13) 0.0016(12) -0.0008(14)
C28 0.0411(15) 0.0541(17) 0.0396(15) 0.0084(13) 0.0052(12) 0.0008(13)
C29 0.0417(15) 0.0571(18) 0.0399(15) 0.0102(13) 0.0076(12) 0.0033(13)
C30 0.069(2) 0.0570(19) 0.0548(19) 0.0170(16) 0.0031(16) -0.0058(17)
C31 0.095(3) 0.061(2) 0.063(2) 0.0133(18) -0.015(2) -0.023(2)
C32 0.081(3) 0.065(2) 0.054(2) 0.0148(17) -0.0156(18) -0.018(2)
C33 0.0480(16) 0.0501(16) 0.0350(14) 0.0009(12) 0.0061(12) 0.0072(13)
C34 0.0502(18) 0.077(2) 0.0491(18) -0.0212(17) 0.0063(14) -0.0022(16)
C35 0.0489(18) 0.077(2) 0.0509(18) -0.0155(17) 0.0060(14) -0.0001(16)
C36 0.0560(18) 0.0545(18) 0.0407(16) -0.0052(13) 0.0092(14) 0.0041(14)
C37 0.0573(19) 0.0518(18) 0.0455(17) -0.0063(14) 0.0074(14) -0.0028(14)
C38 0.0479(16) 0.0547(18) 0.0470(17) -0.0063(14) 0.0088(13) 0.0000(14)
C39 0.0442(15) 0.0562(17) 0.0337(14) 0.0060(13) 0.0065(12) 0.0084(13)
C40 0.0518(17) 0.0565(18) 0.0408(15) 0.0067(14) -0.0016(13) 0.0043(14)
C41 0.0562(18) 0.0537(18) 0.0387(16) 0.0054(13) -0.0001(13) 0.0038(14)
C42 0.0497(17) 0.0604(18) 0.0375(15) 0.0069(14) 0.0000(13) 0.0102(15)
C43 0.0455(17) 0.076(2) 0.0517(18) 0.0166(17) -0.0046(14) -0.0003(16)
C44 0.0498(18) 0.074(2) 0.0518(18) 0.0163(17) 0.0013(14) -0.0040(16)
C45 0.037(3) 0.083(3) 0.040(4) 0.002(3) 0.003(2) 0.008(2)
N5 0.038(2) 0.088(3) 0.061(3) -0.025(2) 0.0125(19) -0.008(2)
C46 0.046(3) 0.096(4) 0.074(4) -0.031(3) 0.015(3) -0.008(3)
C47 0.051(3) 0.129(6) 0.066(4) -0.044(4) 0.018(3) -0.020(3)
N6 0.048(2) 0.116(4) 0.058(3) -0.035(3) 0.013(2) -0.011(3)
C48 0.052(2) 0.090(5) 0.038(3) -0.016(3) 0.006(2) 0.004(3)
C45B 0.037(3) 0.083(3) 0.040(4) 0.002(3) 0.003(2) 0.008(2)
N5B 0.071(9) 0.188(16) 0.16(2) -0.111(16) 0.048(10) -0.041(9)
C46B 0.096(15) 0.174(15) 0.155(19) -0.102(14) 0.059(14) -0.045(11)
C47B 0.056(7) 0.167(15) 0.119(16) -0.100(13) 0.019(7) -0.025(7)
N6B 0.057(6) 0.140(14) 0.083(11) -0.067(11) 0.019(6) -0.013(7)
C48B 0.052(2) 0.090(5) 0.038(3) -0.016(3) 0.006(2) 0.004(3)
C49 0.0460(16) 0.0566(18) 0.0414(15) 0.0153(14) 0.0064(13) 0.0021(14)
C50 0.046(2) 0.063(3) 0.0462(19) 0.0187(17) -0.0033(16) 0.0000(17)
C51 0.055(2) 0.070(2) 0.0417(18) 0.0171(17) -0.0030(15) -0.0093(18)
N8 0.0555(18) 0.0598(18) 0.0416(15) 0.0123(14) 0.0002(13) -0.0045(14)
C52 0.051(2) 0.059(2) 0.0359(17) 0.0098(15) -0.0007(14) 0.0048(17)
C50B 0.046(2) 0.063(3) 0.0462(19) 0.0187(17) -0.0033(16) 0.0000(17)
C51B 0.055(2) 0.070(2) 0.0417(18) 0.0171(17) -0.0030(15) -0.0093(18)
N8B 0.0555(18) 0.0598(18) 0.0416(15) 0.0123(14) 0.0002(13) -0.0045(14)
C52B 0.051(2) 0.059(2) 0.0359(17) 0.0098(15) -0.0007(14) 0.0048(17)
C53 0.035(3) 0.050(3) 0.052(3) -0.015(3) 0.010(2) 0.000(2)
C54 0.029(3) 0.054(3) 0.062(4) -0.016(3) 0.010(3) -0.001(2)
C55 0.043(3) 0.045(3) 0.039(3) 0.006(2) -0.009(2) -0.004(2)
C56 0.047(3) 0.045(3) 0.043(3) 0.009(3) -0.008(3) -0.001(3)
C57 0.044(3) 0.063(4) 0.029(3) 0.000(3) 0.009(2) -0.014(3)
C58 0.052(3) 0.061(4) 0.027(3) -0.004(3) 0.009(2) -0.015(3)
C59 0.055(2) 0.064(2) 0.051(2) 0.0113(17) 0.0098(17) -0.0024(17)
Cl1 0.0969(12) 0.0702(11) 0.0512(11) 0.0175(8) -0.0040(8) 0.0026(9)
Cl2 0.0557(7) 0.0857(9) 0.0655(10) -0.0018(7) 0.0030(6) 0.0025(6)
Cl3 0.0844(12) 0.0878(14) 0.0872(18) -0.0255(12) 0.0094(12) -0.0141(10)
C59B 0.055(2) 0.064(2) 0.051(2) 0.0113(17) 0.0098(17) -0.0024(17)
Cl1B 0.106(10) 0.072(9) 0.059(11) 0.024(7) -0.008(7) 0.006(8)
Cl2B 0.072(6) 0.129(12) 0.16(3) -0.009(12) 0.023(7) -0.023(6)
Cl3B 0.062(7) 0.071(6) 0.070(10) 0.016(5) 0.028(7) 0.010(5)
C60 0.060(3) 0.082(3) 0.069(5) -0.021(3) 0.030(3) -0.017(2)
Cl4 0.049(3) 0.115(3) 0.073(2) -0.0300(18) 0.013(2) 0.0078(19)
Cl5 0.071(2) 0.0795(18) 0.091(2) -0.0232(17) -0.0067(16) -0.0083(16)
Cl6 0.0757(18) 0.0703(17) 0.0593(19) -0.0147(12) -0.0010(11) -0.0071(15)
C60B 0.060(3) 0.082(3) 0.069(5) -0.021(3) 0.030(3) -0.017(2)
Cl4C 0.051(5) 0.197(7) 0.125(8) -0.062(5) 0.022(4) -0.004(3)
Cl5C 0.090(4) 0.114(4) 0.154(7) -0.048(5) -0.006(4) -0.021(3)
Cl6C 0.200(7) 0.155(5) 0.118(8) 0.015(4) -0.031(5) -0.117(5)
C61 0.073(5) 0.069(7) 0.080(5) -0.009(5) 0.022(4) -0.007(4)
Cl7 0.0579(16) 0.0748(17) 0.0506(14) -0.0062(11) 0.0171(13) -0.0160(14)
Cl8 0.0638(15) 0.099(3) 0.0665(15) 0.0057(14) 0.0107(11) 0.0103(14)
Cl9 0.0847(19) 0.102(3) 0.0502(14) 0.0000(14) 0.0206(12) 0.0155(19)
C61B 0.073(5) 0.069(7) 0.080(5) -0.009(5) 0.022(4) -0.007(4)
Cl7E 0.132(11) 0.111(10) 0.044(4) -0.012(5) 0.002(7) -0.043(9)
Cl8E 0.127(8) 0.179(19) 0.122(8) -0.029(9) 0.030(6) -0.017(8)
Cl9E 0.217(19) 0.151(18) 0.087(7) 0.000(7) 0.059(8) -0.031(12)
C62 0.091(6) 0.130(9) 0.082(4) 0.007(5) 0.010(4) -0.030(6)
Cl10 0.104(8) 0.207(12) 0.35(2) -0.134(14) -0.051(9) -0.034(7)
Cl11 0.070(3) 0.097(5) 0.055(3) 0.014(3) 0.004(2) -0.004(3)
Cl12 0.26(2) 0.238(15) 0.106(8) 0.018(8) 0.057(11) -0.099(15)
C62B 0.091(6) 0.130(9) 0.082(4) 0.007(5) 0.010(4) -0.030(6)
Cl1C 0.113(5) 0.152(7) 0.067(3) -0.019(3) 0.008(3) -0.057(5)
Cl2C 0.125(8) 0.164(11) 0.128(6) -0.055(6) -0.035(5) 0.069(8)
Cl3C 0.089(3) 0.103(4) 0.104(6) 0.009(4) 0.038(4) -0.028(3)
C62C 0.091(6) 0.130(9) 0.082(4) 0.007(5) 0.010(4) -0.030(6)
Cl1D 0.247(15) 0.207(12) 0.104(6) -0.003(6) -0.001(7) -0.013(10)
Cl2D 0.185(10) 0.175(11) 0.195(10) 0.019(8) 0.090(8) 0.001(8)
Cl3D 0.178(9) 0.192(10) 0.094(6) 0.012(6) 0.016(6) -0.071(8)
C63 0.140(7) 0.092(6) 0.110(6) 0.024(5) -0.016(5) -0.011(5)
Cl13 0.158(5) 0.073(2) 0.0592(19) -0.0026(15) 0.018(2) -0.016(3)
Cl14 0.091(3) 0.143(5) 0.067(2) -0.015(3) 0.0007(19) 0.021(3)
Cl15 0.061(2) 0.086(3) 0.188(6) -0.022(3) 0.000(3) 0.0070(17)
C63B 0.140(7) 0.092(6) 0.110(6) 0.024(5) -0.016(5) -0.011(5)
Cl4B 0.192(10) 0.162(8) 0.094(4) 0.044(4) 0.019(5) 0.064(8)
Cl5B 0.104(4) 0.134(7) 0.153(8) 0.010(5) 0.008(5) 0.017(4)
Cl6B 0.174(9) 0.44(2) 0.154(8) 0.163(12) 0.037(6) 0.027(9)
C64 0.178(8) 0.163(7) 0.122(6) -0.003(5) 0.031(5) -0.047(5)
Cl16 0.078(3) 0.081(4) 0.066(3) 0.001(2) 0.018(2) 0.008(3)
Cl17 0.080(4) 0.114(5) 0.147(6) 0.009(4) 0.022(4) -0.024(3)
Cl18 0.331(19) 0.241(14) 0.108(6) -0.067(8) 0.101(10) -0.188(15)
C64B 0.178(8) 0.163(7) 0.122(6) -0.003(5) 0.031(5) -0.047(5)
Cl7B 0.139(12) 0.261(18) 0.163(13) -0.033(12) 0.006(10) -0.027(12)
Cl8B 0.200(12) 0.48(4) 0.27(3) -0.03(3) 0.027(12) -0.006(13)
Cl9B 0.22(2) 0.23(2) 0.166(12) 0.019(11) 0.035(10) -0.049(16)
C64C 0.178(8) 0.163(7) 0.122(6) -0.003(5) 0.031(5) -0.047(5)
Cl7C 0.20(2) 0.082(10) 0.095(8) -0.026(7) 0.041(9) -0.043(11)
Cl8C 0.123(12) 0.144(13) 0.121(13) 0.004(10) 0.017(9) -0.017(10)
Cl9C 0.105(14) 0.195(16) 0.104(12) -0.022(12) 0.034(10) -0.060(13)
C64D 0.178(8) 0.163(7) 0.122(6) -0.003(5) 0.031(5) -0.047(5)
Cl7D 0.197(12) 0.188(11) 0.184(15) 0.029(9) 0.112(11) -0.044(8)
Cl8D 0.35(3) 0.51(5) 0.158(11) 0.016(15) 0.043(12) 0.12(3)
Cl9D 0.245(18) 0.37(3) 0.113(10) -0.003(14) 0.042(11) 0.032(18)
N1 0.0302(11) 0.0532(13) 0.0306(11) 0.0024(10) 0.0035(9) 0.0000(10)
N2 0.0355(11) 0.0525(14) 0.0325(11) 0.0043(10) 0.0038(9) 0.0027(10)
N3 0.0368(11) 0.0442(12) 0.0302(11) 0.0006(9) 0.0015(9) -0.0013(10)
N4 0.0404(12) 0.0469(13) 0.0322(11) 0.0016(10) 0.0033(9) 0.0044(10)
N7 0.0474(14) 0.0625(16) 0.0412(14) 0.0154(12) -0.0005(11) -0.0006(13)
N9 0.0321(11) 0.0424(12) 0.0298(11) -0.0008(9) 0.0027(9) 0.0019(9)
Zn1 0.03149(19) 0.0447(2) 0.02802(19) 0.00194(12) 0.00230(12) 0.00077(12)
loop_
_atom_type_symbol
_atom_type_description
_atom_type_scat_dispersion_real
_atom_type_scat_dispersion_imag
_atom_type_scat_source
C C -0.0020 0.0021
'WCromer program, Cromer Liberman method with Kissel-Pratt correction'
H H 0.0000 0.0000
'WCromer program, Cromer Liberman method with Kissel-Pratt correction'
N N -0.0031 0.0043
'WCromer program, Cromer Liberman method with Kissel-Pratt correction'
loop_
_geom_angle_atom_site_label_1
_geom_angle_atom_site_label_2
_geom_angle_atom_site_label_3
_geom_angle
_geom_angle_site_symmetry_1
_geom_angle_site_symmetry_3
N1 C1 C20 125.2(3) . .
N1 C1 C2 109.4(2) . .
C20 C1 C2 125.3(3) . .
C3 C2 C1 107.2(3) . .
C3 C2 H2 126.4 . .
C1 C2 H2 126.4 . .
C2 C3 C4 107.4(3) . .
C2 C3 H3 126.3 . .
C4 C3 H3 126.3 . .
N1 C4 C5 124.4(3) . .
N1 C4 C3 109.6(2) . .
C5 C4 C3 125.9(3) . .
C4 C5 C6 126.2(3) . .
C4 C5 C21 117.0(3) . .
C6 C5 C21 116.5(3) . .
N2 C6 C5 125.9(3) . .
N2 C6 C7 109.1(3) . .
C5 C6 C7 125.1(3) . .
C8 C7 C6 107.4(3) . .
C8 C7 H7 126.3 . .
C6 C7 H7 126.3 . .
C7 C8 C9 107.4(3) . .
C7 C8 H8 126.3 . .
C9 C8 H8 126.3 . .
N2 C9 C10 126.3(3) . .
N2 C9 C8 109.2(3) . .
C10 C9 C8 124.5(3) . .
C9 C10 C11 125.5(3) . .
C9 C10 C27 117.5(3) . .
C11 C10 C27 116.6(3) . .
N3 C11 C10 125.0(3) . .
N3 C11 C12 109.7(2) . .
C10 C11 C12 125.1(3) . .
C13 C12 C11 107.2(3) . .
C13 C12 H12 126.4 . .
C11 C12 H12 126.4 . .
C12 C13 C14 107.3(3) . .
C12 C13 H13 126.4 . .
C14 C13 H13 126.4 . .
N3 C14 C15 125.3(3) . .
N3 C14 C13 109.4(2) . .
C15 C14 C13 125.2(3) . .
C16 C15 C14 126.3(3) . .
C16 C15 C33 117.1(2) . .
C14 C15 C33 116.1(3) . .
N4 C16 C15 125.7(2) . .
N4 C16 C17 109.4(3) . .
C15 C16 C17 124.9(3) . .
C18 C17 C16 107.0(3) . .
C18 C17 H17 126.5 . .
C16 C17 H17 126.5 . .
C17 C18 C19 107.7(3) . .
C17 C18 H18 126.2 . .
C19 C18 H18 126.2 . .
N4 C19 C20 125.5(3) . .
N4 C19 C18 109.1(3) . .
C20 C19 C18 125.3(3) . .
C19 C20 C1 125.9(3) . .
C19 C20 C39 117.3(2) . .
C1 C20 C39 116.5(2) . .
C22 C21 C26 118.7(3) . .
C22 C21 C5 122.5(3) . .
C26 C21 C5 118.8(3) . .
C21 C22 C23 120.6(3) . .
C21 C22 H22 119.7 . .
C23 C22 H22 119.7 . .
C24 C23 C22 119.5(3) . .
C24 C23 C45B 119.0(10) . .
C22 C23 C45B 119.9(9) . .
C24 C23 C45 119.1(4) . .
C22 C23 C45 121.0(4) . .
C23 C24 C25 121.0(3) . .
C23 C24 H24 119.5 . .
C25 C24 H24 119.5 . .
C24 C25 C26 119.2(3) . .
C24 C25 H25 120.4 . .
C26 C25 H25 120.4 . .
C25 C26 C21 120.9(3) . .
C25 C26 H26 119.6 . .
C21 C26 H26 119.6 . .
C28 C27 C32 118.5(3) . .
C28 C27 C10 122.2(3) . .
C32 C27 C10 119.3(3) . .
C27 C28 C29 120.9(3) . .
C27 C28 H28 119.5 . .
C29 C28 H28 119.5 . .
C30 C29 C28 119.0(3) . .
C30 C29 C49 119.7(3) . .
C28 C29 C49 121.4(3) . .
C31 C30 C29 121.0(3) . .
C31 C30 H30 119.5 . .
C29 C30 H30 119.5 . .
C30 C31 C32 119.4(3) . .
C30 C31 H31 120.3 . .
C32 C31 H31 120.3 . .
C31 C32 C27 121.3(3) . .
C31 C32 H32 119.3 . .
C27 C32 H32 119.3 . .
C34 C33 C38 118.5(3) . .
C34 C33 C15 122.7(3) . .
C38 C33 C15 118.7(3) . .
C33 C34 C35 121.1(3) . .
C33 C34 H34 119.5 . .
C35 C34 H34 119.5 . .
C36 C35 C34 118.6(3) . .
C36 C35 C48B 118.5(8) . 3_665
C34 C35 C48B 119.4(7) . 3_665
C36 C35 C48 119.0(3) . 3_665
C34 C35 C48 122.0(4) . 3_665
C37 C36 C35 120.7(3) . .
C37 C36 H36 119.7 . .
C35 C36 H36 119.7 . .
C36 C37 C38 120.0(3) . .
C36 C37 H37 120.0 . .
C38 C37 H37 120.0 . .
C37 C38 C33 121.1(3) . .
C37 C38 H38 119.5 . .
C33 C38 H38 119.5 . .
C40 C39 C44 118.3(3) . .
C40 C39 C20 122.8(3) . .
C44 C39 C20 118.9(3) . .
C39 C40 C41 120.9(3) . .
C39 C40 H40 119.5 . .
C41 C40 H40 119.5 . .
C42 C41 C40 119.0(3) . .
C42 C41 C52B 105.3(10) . 3_665
C40 C41 C52B 122.6(10) . 3_665
C42 C41 C52 119.8(3) . 3_665
C40 C41 C52 121.2(3) . 3_665
C43 C42 C41 120.8(3) . .
C43 C42 H42 119.6 . .
C41 C42 H42 119.6 . .
C42 C43 C44 119.6(3) . .
C42 C43 H43 120.2 . .
C44 C43 H43 120.2 . .
C39 C44 C43 121.3(3) . .
C39 C44 H44 119.3 . .
C43 C44 H44 119.3 . .
N5 C45 C23 123.5(5) . .
N5 C45 H45 118.3 . .
C23 C45 H45 118.3 . .
C45 N5 C46 116.8(5) . .
N5 C46 C47 110.2(5) . .
N5 C46 H46A 109.6 . .
C47 C46 H46A 109.6 . .
N5 C46 H46B 109.6 . .
C47 C46 H46B 109.6 . .
H46A C46 H46B 108.1 . .
N6 C47 C46 110.9(4) . .
N6 C47 H47A 109.5 . .
C46 C47 H47A 109.5 . .
N6 C47 H47B 109.5 . .
C46 C47 H47B 109.5 . .
H47A C47 H47B 108.1 . .
C48 N6 C47 116.6(5) . .
N6 C48 C35 124.6(5) . 3_665
N6 C48 H48 117.7 . .
C35 C48 H48 117.7 3_665 .
N5B C45B C23 130(2) . .
N5B C45B H45B 115.2 . .
C23 C45B H45B 115.2 . .
C45B N5B C46B 119.2(19) . .
N5B C46B C47B 112.4(18) . .
N5B C46B H46C 109.1 . .
C47B C46B H46C 109.1 . .
N5B C46B H46D 109.1 . .
C47B C46B H46D 109.1 . .
H46C C46B H46D 107.8 . .
N6B C47B C46B 107.6(18) . .
N6B C47B H47C 110.2 . .
C46B C47B H47C 110.2 . .
N6B C47B H47D 110.2 . .
C46B C47B H47D 110.2 . .
H47C C47B H47D 108.5 . .
C48B N6B C47B 117.4(14) . .
N6B C48B C35 124.1(17) . 3_665
N6B C48B H48B 117.9 . .
C35 C48B H48B 117.9 3_665 .
N7 C49 C29 123.7(3) . .
N7 C49 H49 118.2 . .
C29 C49 H49 118.2 . .
N7 C50 C51 111.3(3) . .
N7 C50 H50A 109.4 . .
C51 C50 H50A 109.4 . .
N7 C50 H50B 109.4 . .
C51 C50 H50B 109.4 . .
H50A C50 H50B 108.0 . .
N8 C51 C50 111.0(3) . .
N8 C51 H51A 109.4 . .
C50 C51 H51A 109.4 . .
N8 C51 H51B 109.4 . .
C50 C51 H51B 109.4 . .
H51A C51 H51B 108.0 . .
C52 N8 C51 117.3(3) . .
N8 C52 C41 123.5(3) . 3_665
N8 C52 H52 118.2 . .
C41 C52 H52 118.2 3_665 .
N7 C50B C51B 102.7(19) . .
N7 C50B H50C 111.2 . .
C51B C50B H50C 111.2 . .
N7 C50B H50D 111.2 . .
C51B C50B H50D 111.2 . .
H50C C50B H50D 109.1 . .
N8B C51B C50B 111(2) . .
N8B C51B H51C 109.5 . .
C50B C51B H51C 109.5 . .
N8B C51B H51D 109.5 . .
C50B C51B H51D 109.5 . .
H51C C51B H51D 108.1 . .
C52B N8B C51B 118.0(19) . .
N8B C52B C41 117.3(18) . 3_665
N8B C52B H52B 121.3 . .
C41 C52B H52B 121.3 3_665 .
N9 C53 C54 111.1(4) . .
N9 C53 H53A 109.4 . .
C54 C53 H53A 109.4 . .
N9 C53 H53B 109.4 . .
C54 C53 H53B 109.4 . .
H53A C53 H53B 108.0 . .
N9 C54 C53 110.9(4) 3_665 .
N9 C54 H54A 109.5 3_665 .
C53 C54 H54A 109.5 . .
N9 C54 H54B 109.5 3_665 .
C53 C54 H54B 109.5 . .
H54A C54 H54B 108.0 . .
N9 C55 C56 112.1(4) . .
N9 C55 H55A 109.2 . .
C56 C55 H55A 109.2 . .
N9 C55 H55B 109.2 . .
C56 C55 H55B 109.2 . .
H55A C55 H55B 107.9 . .
N9 C56 C55 111.2(4) 3_665 .
N9 C56 H56A 109.4 3_665 .
C55 C56 H56A 109.4 . .
N9 C56 H56B 109.4 3_665 .
C55 C56 H56B 109.4 . .
H56A C56 H56B 108.0 . .
C58 C57 N9 110.6(4) . .
C58 C57 H57A 109.5 . .
N9 C57 H57A 109.5 . .
C58 C57 H57B 109.5 . .
N9 C57 H57B 109.5 . .
H57A C57 H57B 108.1 . .
C57 C58 N9 109.9(4) . 3_665
C57 C58 H58A 109.7 . .
N9 C58 H58A 109.7 3_665 .
C57 C58 H58B 109.7 . .
N9 C58 H58B 109.7 3_665 .
H58A C58 H58B 108.2 . .
Cl1 C59 Cl3 110.3(3) . .
Cl1 C59 Cl2 110.4(3) . .
Cl3 C59 Cl2 110.4(3) . .
Cl1 C59 H59 108.6 . .
Cl3 C59 H59 108.6 . .
Cl2 C59 H59 108.6 . .
Cl1B C59B Cl2B 109.6(17) . .
Cl1B C59B Cl3B 105.7(16) . .
Cl2B C59B Cl3B 107.0(16) . .
Cl1B C59B H59B 111.4 . .
Cl2B C59B H59B 111.4 . .
Cl3B C59B H59B 111.4 . .
Cl4 C60 Cl5 113.8(10) . .
Cl4 C60 Cl6 112.3(9) . .
Cl5 C60 Cl6 111.9(10) . .
Cl4 C60 H60 106.0 . .
Cl5 C60 H60 106.0 . .
Cl6 C60 H60 106.0 . .
Cl4C C60B Cl5C 109.1(13) . .
Cl4C C60B Cl6C 107.8(14) . .
Cl5C C60B Cl6C 106.5(12) . .
Cl4C C60B H60B 111.1 . .
Cl5C C60B H60B 111.1 . .
Cl6C C60B H60B 111.1 . .
Cl7 C61 Cl8 111.7(7) . .
Cl7 C61 Cl9 113.2(6) . .
Cl8 C61 Cl9 111.7(7) . .
Cl7 C61 H61 106.6 . .
Cl8 C61 H61 106.6 . .
Cl9 C61 H61 106.6 . .
Cl7E C61B Cl8E 110.9(15) . .
Cl7E C61B Cl9E 106.7(15) . .
Cl8E C61B Cl9E 115.5(18) . .
Cl7E C61B H61B 107.8 . .
Cl8E C61B H61B 107.8 . .
Cl9E C61B H61B 107.8 . .
Cl11 C62 Cl10 108.5(13) . .
Cl11 C62 Cl12 115.8(14) . .
Cl10 C62 Cl12 108.5(13) . .
Cl11 C62 H62 107.9 . .
Cl10 C62 H62 107.9 . .
Cl12 C62 H62 107.9 . .
Cl2C C62B Cl1C 109.6(11) . .
Cl2C C62B Cl3C 115.6(11) . .
Cl1C C62B Cl3C 107.4(9) . .
Cl2C C62B H62B 108.0 . .
Cl1C C62B H62B 108.0 . .
Cl3C C62B H62B 108.0 . .
Cl2D C62C Cl1D 114.6(13) . .
Cl2D C62C Cl3D 114.3(14) . .
Cl1D C62C Cl3D 114.6(13) . .
Cl2D C62C H62C 103.8 . .
Cl1D C62C H62C 103.8 . .
Cl3D C62C H62C 103.8 . .
Cl14 C63 Cl15 108.7(10) . .
Cl14 C63 Cl13 108.7(9) . .
Cl15 C63 Cl13 115.1(11) . .
Cl14 C63 H63 108.0 . .
Cl15 C63 H63 108.0 . .
Cl13 C63 H63 108.0 . .
Cl5B C63B Cl6B 118.5(16) . .
Cl5B C63B Cl4B 106.8(12) . .
Cl6B C63B Cl4B 108.3(11) . .
Cl5B C63B H63B 107.6 . .
Cl6B C63B H63B 107.6 . .
Cl4B C63B H63B 107.6 . .
Cl16 C64 Cl17 112.1(13) . .
Cl16 C64 Cl18 111.8(13) . .
Cl17 C64 Cl18 106.7(13) . .
Cl16 C64 H64 108.7 . .
Cl17 C64 H64 108.7 . .
Cl18 C64 H64 108.7 . .
Cl7B C64B Cl8B 113.0(18) . .
Cl7B C64B Cl9B 107.1(17) . .
Cl8B C64B Cl9B 114.6(19) . .
Cl7B C64B H64B 107.3 . .
Cl8B C64B H64B 107.3 . .
Cl9B C64B H64B 107.3 . .
Cl7C C64C Cl8C 102.3(16) . .
Cl7C C64C Cl9C 109.4(17) . .
Cl8C C64C Cl9C 109.5(18) . .
Cl7C C64C H64C 111.8 . .
Cl8C C64C H64C 111.8 . .
Cl9C C64C H64C 111.8 . .
Cl7D C64D Cl8D 123(2) . .
Cl7D C64D Cl9D 107.6(16) . .
Cl8D C64D Cl9D 108.5(16) . .
Cl7D C64D H64D 105.7 . .
Cl8D C64D H64D 105.7 . .
Cl9D C64D H64D 105.7 . .
C4 N1 C1 106.3(2) . .
C4 N1 Zn1 126.93(18) . .
C1 N1 Zn1 126.24(18) . .
C6 N2 C9 107.0(2) . .
C6 N2 Zn1 126.37(19) . .
C9 N2 Zn1 126.63(19) . .
C11 N3 C14 106.4(2) . .
C11 N3 Zn1 127.28(19) . .
C14 N3 Zn1 126.22(18) . .
C19 N4 C16 106.8(2) . .
C19 N4 Zn1 126.90(19) . .
C16 N4 Zn1 126.26(18) . .
C49 N7 C50B 120.7(14) . .
C49 N7 C50 116.7(3) . .
C55 N9 C53 110.3(4) . .
C55 N9 C57 107.0(4) . .
C53 N9 C57 105.1(4) . .
C55 N9 Zn1 112.1(3) . .
C53 N9 Zn1 111.6(2) . .
C57 N9 Zn1 110.3(2) . .
N4 Zn1 N1 88.30(9) . .
N4 Zn1 N3 88.89(9) . .
N1 Zn1 N3 161.65(9) . .
N4 Zn1 N2 158.66(10) . .
N1 Zn1 N2 88.18(9) . .
N3 Zn1 N2 87.87(9) . .
N4 Zn1 N9 99.70(9) . .
N1 Zn1 N9 98.29(9) . .
N3 Zn1 N9 100.05(9) . .
N2 Zn1 N9 101.64(9) . .
loop_
_geom_bond_atom_site_label_1
_geom_bond_atom_site_label_2
_geom_bond_distance
_geom_bond_site_symmetry_2
C1 N1 1.378(3) .
C1 C20 1.401(4) .
C1 C2 1.438(4) .
C2 C3 1.347(4) .
C2 H2 0.9300 .
C3 C4 1.434(4) .
C3 H3 0.9300 .
C4 N1 1.375(4) .
C4 C5 1.402(4) .
C5 C6 1.403(4) .
C5 C21 1.503(4) .
C6 N2 1.368(4) .
C6 C7 1.444(4) .
C7 C8 1.336(5) .
C7 H7 0.9300 .
C8 C9 1.442(4) .
C8 H8 0.9300 .
C9 N2 1.369(4) .
C9 C10 1.394(4) .
C10 C11 1.401(4) .
C10 C27 1.499(4) .
C11 N3 1.373(4) .
C11 C12 1.440(4) .
C12 C13 1.346(4) .
C12 H12 0.9300 .
C13 C14 1.444(4) .
C13 H13 0.9300 .
C14 N3 1.375(4) .
C14 C15 1.401(4) .
C15 C16 1.397(4) .
C15 C33 1.504(4) .
C16 N4 1.375(4) .
C16 C17 1.442(4) .
C17 C18 1.347(5) .
C17 H17 0.9300 .
C18 C19 1.440(4) .
C18 H18 0.9300 .
C19 N4 1.374(4) .
C19 C20 1.394(4) .
C20 C39 1.505(4) .
C21 C22 1.365(5) .
C21 C26 1.401(5) .
C22 C23 1.411(4) .
C22 H22 0.9300 .
C23 C24 1.367(5) .
C23 C45B 1.47(2) .
C23 C45 1.474(4) .
C24 C25 1.372(5) .
C24 H24 0.9300 .
C25 C26 1.390(5) .
C25 H25 0.9300 .
C26 H26 0.9300 .
C27 C28 1.376(4) .
C27 C32 1.397(5) .
C28 C29 1.404(4) .
C28 H28 0.9300 .
C29 C30 1.384(5) .
C29 C49 1.468(4) .
C30 C31 1.373(5) .
C30 H30 0.9300 .
C31 C32 1.382(5) .
C31 H31 0.9300 .
C32 H32 0.9300 .
C33 C34 1.373(5) .
C33 C38 1.389(4) .
C34 C35 1.410(5) .
C34 H34 0.9300 .
C35 C36 1.377(5) .
C35 C48B 1.462(18) 3_665
C35 C48 1.475(4) 3_665
C36 C37 1.374(5) .
C36 H36 0.9300 .
C37 C38 1.375(4) .
C37 H37 0.9300 .
C38 H38 0.9300 .
C39 C40 1.374(4) .
C39 C44 1.388(4) .
C40 C41 1.401(4) .
C40 H40 0.9300 .
C41 C42 1.386(5) .
C41 C52B 1.475(4) 3_665
C41 C52 1.475(4) 3_665
C42 C43 1.353(5) .
C42 H42 0.9300 .
C43 C44 1.390(5) .
C43 H43 0.9300 .
C44 H44 0.9300 .
C45 N5 1.261(6) .
C45 H45 0.9300 .
N5 C46 1.461(7) .
C46 C47 1.537(8) .
C46 H46A 0.9700 .
C46 H46B 0.9700 .
C47 N6 1.456(6) .
C47 H47A 0.9700 .
C47 H47B 0.9700 .
N6 C48 1.279(6) .
C48 C35 1.475(4) 3_665
C48 H48 0.9300 .
C45B N5B 1.278(16) .
C45B H45B 0.9300 .
N5B C46B 1.471(17) .
C46B C47B 1.551(19) .
C46B H46C 0.9700 .
C46B H46D 0.9700 .
C47B N6B 1.440(15) .
C47B H47C 0.9700 .
C47B H47D 0.9700 .
N6B C48B 1.265(15) .
C48B C35 1.462(18) 3_665
C48B H48B 0.9300 .
C49 N7 1.255(4) .
C49 H49 0.9300 .
C50 N7 1.472(4) .
C50 C51 1.505(6) .
C50 H50A 0.9700 .
C50 H50B 0.9700 .
C51 N8 1.463(5) .
C51 H51A 0.9700 .
C51 H51B 0.9700 .
N8 C52 1.266(4) .
C52 C41 1.475(4) 3_665
C52 H52 0.9300 .
C50B N7 1.471(19) .
C50B C51B 1.502(19) .
C50B H50C 0.9700 .
C50B H50D 0.9700 .
C51B N8B 1.450(18) .
C51B H51C 0.9700 .
C51B H51D 0.9700 .
N8B C52B 1.240(18) .
C52B C41 1.475(4) 3_665
C52B H52B 0.9300 .
C53 N9 1.488(6) .
C53 C54 1.536(8) .
C53 H53A 0.9700 .
C53 H53B 0.9700 .
C54 N9 1.477(6) 3_665
C54 H54A 0.9700 .
C54 H54B 0.9700 .
C55 N9 1.448(6) .
C55 C56 1.533(8) .
C55 H55A 0.9700 .
C55 H55B 0.9700 .
C56 N9 1.447(6) 3_665
C56 H56A 0.9700 .
C56 H56B 0.9700 .
C57 C58 1.534(8) .
C57 N9 1.551(6) .
C57 H57A 0.9700 .
C57 H57B 0.9700 .
C58 N9 1.534(6) 3_665
C58 H58A 0.9700 .
C58 H58B 0.9700 .
C59 Cl1 1.751(4) .
C59 Cl3 1.752(5) .
C59 Cl2 1.759(4) .
C59 H59 0.9800 .
C59B Cl1B 1.712(18) .
C59B Cl2B 1.741(19) .
C59B Cl3B 1.747(18) .
C59B H59B 0.9800 .
C60 Cl4 1.739(15) .
C60 Cl5 1.752(18) .
C60 Cl6 1.759(15) .
C60 H60 0.9800 .
C60B Cl4C 1.706(18) .
C60B Cl5C 1.731(19) .
C60B Cl6C 1.760(19) .
C60B H60B 0.9800 .
C61 Cl7 1.704(11) .
C61 Cl8 1.750(12) .
C61 Cl9 1.772(11) .
C61 H61 0.9800 .
C61B Cl7E 1.693(18) .
C61B Cl8E 1.739(19) .
C61B Cl9E 1.741(18) .
C61B H61B 0.9800 .
C62 Cl11 1.685(17) .
C62 Cl10 1.722(16) .
C62 Cl12 1.737(15) .
C62 H62 0.9800 .
C62B Cl2C 1.685(14) .
C62B Cl1C 1.733(14) .
C62B Cl3C 1.738(13) .
C62B H62B 0.9800 .
C62C Cl2D 1.684(17) .
C62C Cl1D 1.735(15) .
C62C Cl3D 1.736(16) .
C62C H62C 0.9800 .
C63 Cl14 1.720(14) .
C63 Cl15 1.755(17) .
C63 Cl13 1.773(14) .
C63 H63 0.9800 .
C63B Cl5B 1.722(17) .
C63B Cl6B 1.752(18) .
C63B Cl4B 1.783(16) .
C63B H63B 0.9800 .
C64 Cl16 1.709(18) .
C64 Cl17 1.734(19) .
C64 Cl18 1.743(18) .
C64 H64 0.9800 .
C64B Cl7B 1.692(18) .
C64B Cl8B 1.731(18) .
C64B Cl9B 1.752(18) .
C64B H64B 0.9800 .
C64C Cl7C 1.719(19) .
C64C Cl8C 1.736(19) .
C64C Cl9C 1.752(19) .
C64C H64C 0.9800 .
C64D Cl7D 1.691(18) .
C64D Cl8D 1.717(18) .
C64D Cl9D 1.747(18) .
C64D H64D 0.9800 .
N1 Zn1 2.077(2) .
N2 Zn1 2.085(2) .
N3 Zn1 2.079(2) .
N4 Zn1 2.076(2) .
N9 Zn1 2.202(2) .
loop_
_geom_torsion_atom_site_label_1
_geom_torsion_atom_site_label_2
_geom_torsion_atom_site_label_3
_geom_torsion_atom_site_label_4
_geom_torsion
_geom_torsion_site_symmetry_1
_geom_torsion_site_symmetry_4
N1 C1 C2 C3 1.8(3) . .
C20 C1 C2 C3 -174.5(3) . .
C1 C2 C3 C4 0.0(3) . .
C2 C3 C4 N1 -1.8(3) . .
C2 C3 C4 C5 173.7(3) . .
N1 C4 C5 C6 -3.8(5) . .
C3 C4 C5 C6 -178.6(3) . .
N1 C4 C5 C21 169.4(3) . .
C3 C4 C5 C21 -5.5(4) . .
C4 C5 C6 N2 -1.7(5) . .
C21 C5 C6 N2 -174.8(3) . .
C4 C5 C6 C7 176.5(3) . .
C21 C5 C6 C7 3.4(5) . .
N2 C6 C7 C8 0.8(4) . .
C5 C6 C7 C8 -177.6(3) . .
C6 C7 C8 C9 -0.1(4) . .
C7 C8 C9 N2 -0.6(4) . .
C7 C8 C9 C10 177.7(3) . .
N2 C9 C10 C11 1.5(5) . .
C8 C9 C10 C11 -176.6(3) . .
N2 C9 C10 C27 174.7(3) . .
C8 C9 C10 C27 -3.4(5) . .
C9 C10 C11 N3 1.8(5) . .
C27 C10 C11 N3 -171.5(3) . .
C9 C10 C11 C12 175.9(3) . .
C27 C10 C11 C12 2.6(4) . .
N3 C11 C12 C13 2.1(3) . .
C10 C11 C12 C13 -172.8(3) . .
C11 C12 C13 C14 -0.6(3) . .
C12 C13 C14 N3 -1.1(3) . .
C12 C13 C14 C15 174.4(3) . .
N3 C14 C15 C16 -0.9(5) . .
C13 C14 C15 C16 -175.7(3) . .
N3 C14 C15 C33 170.7(3) . .
C13 C14 C15 C33 -4.1(4) . .
C14 C15 C16 N4 -1.5(5) . .
C33 C15 C16 N4 -172.9(3) . .
C14 C15 C16 C17 176.7(3) . .
C33 C15 C16 C17 5.3(5) . .
N4 C16 C17 C18 1.7(4) . .
C15 C16 C17 C18 -176.8(3) . .
C16 C17 C18 C19 -0.7(4) . .
C17 C18 C19 N4 -0.4(4) . .
C17 C18 C19 C20 177.6(3) . .
N4 C19 C20 C1 0.0(5) . .
C18 C19 C20 C1 -177.7(3) . .
N4 C19 C20 C39 173.4(3) . .
C18 C19 C20 C39 -4.3(5) . .
N1 C1 C20 C19 4.7(5) . .
C2 C1 C20 C19 -179.6(3) . .
N1 C1 C20 C39 -168.8(3) . .
C2 C1 C20 C39 6.9(4) . .
C4 C5 C21 C22 72.2(4) . .
C6 C5 C21 C22 -114.0(4) . .
C4 C5 C21 C26 -107.3(3) . .
C6 C5 C21 C26 66.5(4) . .
C26 C21 C22 C23 0.6(5) . .
C5 C21 C22 C23 -179.0(3) . .
C21 C22 C23 C24 1.0(5) . .
C21 C22 C23 C45B -164.9(10) . .
C21 C22 C23 C45 174.7(4) . .
C22 C23 C24 C25 -2.4(5) . .
C45B C23 C24 C25 163.6(10) . .
C45 C23 C24 C25 -176.3(4) . .
C23 C24 C25 C26 2.3(5) . .
C24 C25 C26 C21 -0.7(5) . .
C22 C21 C26 C25 -0.7(5) . .
C5 C21 C26 C25 178.8(3) . .
C9 C10 C27 C28 88.0(4) . .
C11 C10 C27 C28 -98.2(4) . .
C9 C10 C27 C32 -92.4(4) . .
C11 C10 C27 C32 81.4(4) . .
C32 C27 C28 C29 -0.4(5) . .
C10 C27 C28 C29 179.3(3) . .
C27 C28 C29 C30 0.1(5) . .
C27 C28 C29 C49 -178.8(3) . .
C28 C29 C30 C31 0.4(6) . .
C49 C29 C30 C31 179.3(4) . .
C29 C30 C31 C32 -0.6(7) . .
C30 C31 C32 C27 0.2(7) . .
C28 C27 C32 C31 0.3(6) . .
C10 C27 C32 C31 -179.4(4) . .
C16 C15 C33 C34 -103.3(4) . .
C14 C15 C33 C34 84.4(4) . .
C16 C15 C33 C38 78.5(4) . .
C14 C15 C33 C38 -93.9(3) . .
C38 C33 C34 C35 0.6(5) . .
C15 C33 C34 C35 -177.7(3) . .
C33 C34 C35 C36 -0.6(6) . .
C33 C34 C35 C48B 158.1(10) . 3_665
C33 C34 C35 C48 -173.3(4) . 3_665
C34 C35 C36 C37 -0.5(5) . .
C48B C35 C36 C37 -159.4(10) 3_665 .
C48 C35 C36 C37 172.4(4) 3_665 .
C35 C36 C37 C38 1.6(5) . .
C36 C37 C38 C33 -1.7(5) . .
C34 C33 C38 C37 0.6(5) . .
C15 C33 C38 C37 178.9(3) . .
C19 C20 C39 C40 75.7(4) . .
C1 C20 C39 C40 -110.2(3) . .
C19 C20 C39 C44 -103.8(4) . .
C1 C20 C39 C44 70.3(4) . .
C44 C39 C40 C41 -0.6(5) . .
C20 C39 C40 C41 179.9(3) . .
C39 C40 C41 C42 0.2(5) . .
C39 C40 C41 C52B -135.4(15) . 3_665
C39 C40 C41 C52 -179.7(3) . 3_665
C40 C41 C42 C43 0.4(5) . .
C52B C41 C42 C43 142.8(14) 3_665 .
C52 C41 C42 C43 -179.6(3) 3_665 .
C41 C42 C43 C44 -0.6(6) . .
C40 C39 C44 C43 0.5(5) . .
C20 C39 C44 C43 179.9(3) . .
C42 C43 C44 C39 0.2(6) . .
C24 C23 C45 N5 -176.7(5) . .
C22 C23 C45 N5 9.5(7) . .
C45B C23 C45 N5 -82(4) . .
C23 C45 N5 C46 175.4(5) . .
C45 N5 C46 C47 -113.8(6) . .
N5 C46 C47 N6 -63.3(8) . .
C46 C47 N6 C48 -125.3(7) . .
C47 N6 C48 C35 178.4(6) . 3_665
C24 C23 C45B N5B -161(3) . .
C22 C23 C45B N5B 5(3) . .
C45 C23 C45B N5B 104(5) . .
C23 C45B N5B C46B -178(2) . .
C45B N5B C46B C47B 126(3) . .
N5B C46B C47B N6B 64(3) . .
C46B C47B N6B C48B 116(2) . .
C47B N6B C48B C35 -166(2) . 3_665
C30 C29 C49 N7 -174.6(3) . .
C28 C29 C49 N7 4.3(5) . .
N7 C50 C51 N8 66.4(4) . .
C50 C51 N8 C52 111.7(4) . .
C51 N8 C52 C41 -177.0(3) . 3_665
N7 C50B C51B N8B -80(3) . .
C50B C51B N8B C52B -137(3) . .
C51B N8B C52B C41 160(3) . 3_665
N9 C53 C54 N9 -0.9(7) . 3_665
N9 C55 C56 N9 -1.2(7) . 3_665
N9 C57 C58 N9 -0.1(7) . 3_665
C5 C4 N1 C1 -172.7(3) . .
C3 C4 N1 C1 2.9(3) . .
C5 C4 N1 Zn1 15.3(4) . .
C3 C4 N1 Zn1 -169.08(19) . .
C20 C1 N1 C4 173.4(3) . .
C2 C1 N1 C4 -2.9(3) . .
C20 C1 N1 Zn1 -14.6(4) . .
C2 C1 N1 Zn1 169.17(19) . .
C5 C6 N2 C9 177.3(3) . .
C7 C6 N2 C9 -1.2(3) . .
C5 C6 N2 Zn1 -5.1(4) . .
C7 C6 N2 Zn1 176.5(2) . .
C10 C9 N2 C6 -177.2(3) . .
C8 C9 N2 C6 1.1(3) . .
C10 C9 N2 Zn1 5.1(4) . .
C8 C9 N2 Zn1 -176.6(2) . .
C10 C11 N3 C14 172.1(3) . .
C12 C11 N3 C14 -2.8(3) . .
C10 C11 N3 Zn1 -11.2(4) . .
C12 C11 N3 Zn1 173.86(18) . .
C15 C14 N3 C11 -173.1(3) . .
C13 C14 N3 C11 2.4(3) . .
C15 C14 N3 Zn1 10.2(4) . .
C13 C14 N3 Zn1 -174.29(18) . .
C20 C19 N4 C16 -176.5(3) . .
C18 C19 N4 C16 1.4(3) . .
C20 C19 N4 Zn1 5.9(4) . .
C18 C19 N4 Zn1 -176.1(2) . .
C15 C16 N4 C19 176.5(3) . .
C17 C16 N4 C19 -1.9(3) . .
C15 C16 N4 Zn1 -5.9(4) . .
C17 C16 N4 Zn1 175.7(2) . .
C29 C49 N7 C50B -159.8(17) . .
C29 C49 N7 C50 174.3(3) . .
C51B C50B N7 C49 -129.1(17) . .
C51B C50B N7 C50 -43(2) . .
C51 C50 N7 C49 135.1(3) . .
C51 C50 N7 C50B 29(3) . .
C56 C55 N9 C53 56.1(6) . .
C56 C55 N9 C57 -57.7(6) . .
C56 C55 N9 Zn1 -178.8(4) . .
C54 C53 N9 C55 -54.5(6) . .
C54 C53 N9 C57 60.5(6) . .
C54 C53 N9 Zn1 -179.9(4) . .
C58 C57 N9 C55 57.8(6) . .
C58 C57 N9 C53 -59.5(6) . .
C58 C57 N9 Zn1 -180.0(4) . .
