#------------------------------------------------------------------------------
#$Date: 2015-09-22 10:59:13 +0300 (Tue, 22 Sep 2015) $
#$Revision: 158218 $
#$URL: svn://www.crystallography.net/cod/cif/7/11/78/7117801.cif $
#------------------------------------------------------------------------------
#
# This file is available in the Crystallography Open Database (COD),
# http://www.crystallography.net/
#
# All data on this site have been placed in the public domain by the
# contributors.
#
data_7117801
loop_
_publ_author_name
'Tuan Anh Pham'
'Fei Song'
'Mariza N. Alberti'
'Manh-Thuong Nguyen'
'Nils Trapp'
'Carlo Thilgen'
'Francois Diederich'
'Meike Stohr'
_publ_section_title
;
 Heat-induced formation of one-dimensional coordination polymers on
 Au(111): an STM study
;
_journal_name_full               Chem.Commun.
_journal_page_first              14473
_journal_paper_doi               10.1039/C5cc04940G
_journal_volume                  51
_journal_year                    2015
_chemical_formula_moiety         'C74 H68 N6 O Zn, C74 H66 N6 Zn, C H Cl3'
_chemical_formula_sum            'C149 H135 Cl3 N12 O Zn2'
_chemical_formula_weight         2346.77
_chemical_name_common            'Zinc porphyrin complex'
_chemical_name_systematic
{5,10-Bis[3,5-di(tert-butyl)phenyl]-15,20-bis(4'-cyanobiphenyl-4-yl)porphyrinato}zinc(II)
_chemical_properties_physical    Heat-sensitive
_space_group_crystal_system      triclinic
_space_group_IT_number           2
_space_group_name_Hall           '-P 1'
_space_group_name_H-M_alt        'P -1'
_symmetry_space_group_name_Hall  '-P 1'
_symmetry_space_group_name_H-M   'P -1'
_atom_sites_solution_hydrogens   mixed
_atom_sites_solution_primary     direct
_audit_creation_date             2013-10-28
_audit_creation_method
;
Olex2 1.2
(compiled 2013.09.17 svn.r2790 for OlexSys, GUI svn.r4601)
;
_audit_update_record
;
2015-03-26 deposited with the CCDC.
2015-08-10 downloaded from the CCDC.
;
_cell_angle_alpha                83.635(2)
_cell_angle_beta                 80.874(2)
_cell_angle_gamma                83.613(2)
_cell_formula_units_Z            2
_cell_length_a                   12.1388(12)
_cell_length_b                   21.415(2)
_cell_length_c                   25.499(3)
_cell_measurement_reflns_used    7092
_cell_measurement_temperature    100
_cell_measurement_theta_max      25.71
_cell_measurement_theta_min      2.44
_cell_volume                     6474.6(12)
_computing_cell_refinement       'Bruker SAINT'
_computing_data_collection       'Bruker APEX2'
_computing_data_reduction        'Bruker SAINT'
_computing_molecular_graphics    OLEX2
_computing_publication_material  OLEX2
_computing_structure_refinement  'SHELXL-97 (Sheldrick, 2008)'
_computing_structure_solution
;
SHELX, G.M. Sheldrick, Acta Cryst.
(2008). A64, 112-122
;
_diffrn_ambient_temperature      100.0(2)
_diffrn_detector                 'Bruker APEX2 area detector'
_diffrn_detector_area_resol_mean 8.33
_diffrn_detector_type            'CCD area detector'
_diffrn_measured_fraction_theta_full 0.781
_diffrn_measured_fraction_theta_max 0.985
_diffrn_measurement_device       'kappa-stage diffractometer'
_diffrn_measurement_device_type  'Bruker Kappa Apex2 Duo'
_diffrn_measurement_method       '\w and \f scans'
_diffrn_radiation_monochromator  'focusing graphite'
_diffrn_radiation_probe          x-ray
_diffrn_radiation_type           MoK\a
_diffrn_radiation_wavelength     0.71073
_diffrn_radiation_xray_symbol    K-L~3~
_diffrn_reflns_av_R_equivalents  0.0475
_diffrn_reflns_av_unetI/netI     0.1108
_diffrn_reflns_laue_measured_fraction_full 0.781
_diffrn_reflns_laue_measured_fraction_max 0.985
_diffrn_reflns_limit_h_max       13
_diffrn_reflns_limit_h_min       -15
_diffrn_reflns_limit_k_max       26
_diffrn_reflns_limit_k_min       -25
_diffrn_reflns_limit_l_max       24
_diffrn_reflns_limit_l_min       -31
_diffrn_reflns_number            47360
_diffrn_reflns_point_group_measured_fraction_full 0.781
_diffrn_reflns_point_group_measured_fraction_max 0.985
_diffrn_reflns_theta_full        25.35
_diffrn_reflns_theta_max         23.26
_diffrn_reflns_theta_min         1.63
_diffrn_source                   'sealed tube'
_diffrn_standards_number         0
_exptl_absorpt_coefficient_mu    0.489
_exptl_absorpt_correction_T_max  0.7454
_exptl_absorpt_correction_T_min  0.6550
_exptl_absorpt_correction_type   multi-scan
_exptl_absorpt_process_details
;
SADABS-2008/1 (Bruker,2008) was used for absorption correction.
wR2(int) was 0.0486 before and 0.0416 after correction.
The Ratio of minimum to maximum transmission is 0.8787.
The \l/2 correction factor is 0.0000.
;
_exptl_crystal_colour            'clear dark red'
_exptl_crystal_colour_lustre     clear
_exptl_crystal_colour_modifier   dark
_exptl_crystal_colour_primary    red
_exptl_crystal_density_diffrn    1.204
_exptl_crystal_density_meas      .
_exptl_crystal_description       plate
_exptl_crystal_F_000             2464
_exptl_crystal_recrystallization_method
'Re-crystallisation from solvent: Dichloromethane/Acetonitrile'
_exptl_crystal_size_max          0.18
_exptl_crystal_size_mid          0.14
_exptl_crystal_size_min          0.03
_refine_diff_density_max         1.032
_refine_diff_density_min         -0.802
_refine_diff_density_rms         0.066
_refine_ls_extinction_coef       .
_refine_ls_extinction_method     none
_refine_ls_goodness_of_fit_ref   1.017
_refine_ls_hydrogen_treatment    constr
_refine_ls_matrix_type           full
_refine_ls_number_parameters     1498
_refine_ls_number_reflns         18304
_refine_ls_number_restraints     1092
_refine_ls_restrained_S_all      0.996
_refine_ls_R_factor_all          0.1008
_refine_ls_R_factor_gt           0.0604
_refine_ls_shift/su_max          0.000
_refine_ls_shift/su_mean         0.000
_refine_ls_structure_factor_coef Fsqd
_refine_ls_weighting_details
'w=1/[\s^2^(Fo^2^)+(0.0941P)^2^] where P=(Fo^2^+2Fc^2^)/3'
_refine_ls_weighting_scheme      calc
_refine_ls_wR_factor_gt          0.1536
_refine_ls_wR_factor_ref         0.1679
_reflns_Friedel_coverage         0.000
_reflns_friedel_fraction_full    .
_reflns_friedel_fraction_max     .
_reflns_number_gt                11531
_reflns_number_total             18304
_reflns_threshold_expression     'I > 2\s(I)'
_cod_data_source_file            c5cc04940g2.cif
_cod_data_source_block           mo_d211013_0m
_cod_original_cell_volume        6474.8(11)
_cod_database_code               7117801
_shelxl_version_number           2013-4
_shelx_space_group_comment
;
The symmetry employed for this shelxl refinement is uniquely defined
by the following loop, which should always be used as a source of
symmetry information in preference to the above space-group names.
They are only intended as comments.
;
_shelx_estimated_absorpt_t_max   0.985
_shelx_estimated_absorpt_t_min   0.917
_olex2_refinement_description
;
1. Fixed Uiso
 At 1.2 times of:
  All C(H) groups
 At 1.5 times of:
  All C(H,H,H) groups, All O(H,H) groups
2. Restrained planarity
 C56, C55A, C54, C53, C52, C57
 with sigma of 0.1
 C56A, C57A, C52, C53A, C54A, C55A
 with sigma of 0.1
 C50A, C49A, C48, C61A, C51, C60A
 with sigma of 0.1
 C51, C50, C49, C61, C48, C60
 with sigma of 0.1
3. Uiso/Uaniso restraints and constraints
: with sigma of 0.1 and sigma for terminal atoms of 0.2
4. Rigid body (RIGU) restrains
 C2, C1, C3, C4, C5, C6, C7, C8, C9, C10, C11, C12, C13, C14, C15, C16, C17,
 C18, C19, C1A, C20, C21, C22, C23, C24, C25, C26, C27, C28, C29, C30, C31, C32,
  C33, C34, C35, C36, C37, C38, C39, C40, C41, C42, C43, C44, C45, C46, C47,
 C48, C49A, C50A, C51, C60A, C61A, C49, C50, C52, C53A, C54A, C55A, C56A, C57A,
 C53, C54, C56, C57, C58, C60, C61, C62, C63, C64, C65, C66, C67, C68, C69, C70,
  C71, C72, C73, C74, C75, C76, C77, C78, C79, C80, C81, C82, C83, C84, C85,
 C86, C87, C88, C89, C90, C91, C92, C93, C94, C95, C96, C97, C98, C99, C100,
 C101, C102, C103, C104, C105, C106, C107, C108, C109, C111, C112, C113, C114,
 C115, C116, C117, C118, C119, C120, C121, C122, C123, C124, C125, C126, C127,
 C128, C130, C131, C132, C133, C134, C135, C136, C137, C138, C139, C140, C141,
 C142, C143, C144, C145, C146, C147, C148, C149, C150, C1C
 with sigma for 1-2 distances of 0.004 and sigma for 1-3 distances of 0.004
5. Others
 Sof(C49A)=Sof(H49A)=Sof(C50A)=Sof(H50A)=Sof(C60A)=Sof(H60A)=Sof(C61A)=
 Sof(H61A)=Sof(C53A)=Sof(H53A)=Sof(C54A)=Sof(H54A)=Sof(C56A)=Sof(H56A)=
 Sof(C57A)=Sof(H57A)=1-FVAR(1)
 Sof(C49)=Sof(H49)=Sof(C50)=Sof(H50)=Sof(C53)=Sof(H53)=Sof(C54)=Sof(H54)=
 Sof(C56)=Sof(H56)=Sof(C57)=Sof(H57)=Sof(C60)=Sof(H60)=Sof(C61)=Sof(H61)=FVAR(1)
6.a Rotating group:
 O1(H1A,H1B)
6.b Ternary CH refined with riding coordinates:
 C1C(H1C)
6.c Aromatic/amide H refined with riding coordinates:
 C3(H3), C4(H4), C8(H8), C9(H9), C13(H13), C14(H14), C18(H18), C23(H23),
 C29(H29), C31(H31), C32(H32), C35(H35), C37(H37), C39(H39), C49A(H49A),
 C50A(H50A), C60A(H60A), C61A(H61A), C49(H49), C50(H50), C53A(H53A), C54A(H54A),
  C56A(H56A), C57A(H57A), C53(H53), C54(H54), C56(H56), C57(H57), C60(H60),
 C61(H61), C63(H63), C64(H64), C66(H66), C67(H67), C69(H69), C70(H70), C73(H73),
  C74(H74), C76(H76), C77(H77), C81(H81), C83(H83), C89(H89), C95(H95),
 C96(H96), C100(H100), C101(H101), C104(H104), C105(H105), C107(H107),
 C108(H108), C111(H111), C112(H112), C114(H114), C115(H115), C119(H119),
 C120(H120), C122(H122), C123(H123), C125(H125), C126(H126), C130(H130),
 C131(H131), C133(H133), C134(H134), C138(H138), C140(H140), C146(H146)
6.d Fitted hexagon refined as free rotating group:
 C48(C49A,C50A,C51,C60A,C61A), C52(C53A,C54A,C55A,C56A,C57A)
6.e Idealised Me refined as rotating group:
 C20(H20A,H20B,H20C), C21(H21A,H21B,H21C), C22(H22A,H22B,H22C), C26(H26A,H26B,
 H26C), C27(H27A,H27B,H27C), C28(H28A,H28B,H28C), C41(H41A,H41B,H41C), C42(H42A,
 H42B,H42C), C43(H43A,H43B,H43C), C45(H45A,H45B,H45C), C46(H46A,H46B,H46C),
 C47(H47A,H47B,H47C), C86(H86A,H86B,H86C), C87(H87A,H87B,H87C), C88(H88A,H88B,
 H88C), C91(H91A,H91B,H91C), C92(H92A,H92B,H92C), C93(H93A,H93B,H93C),
 C143(H14A,H14B,H14C), C144(H14D,H14E,H14F), C145(H14G,H14H,H14I), C148(H14J,
 H14K,H14L), C149(H14M,H14N,H14O), C150(H15A,H15B,H15C)
;
_shelx_res_file
;
TITL mo_d211013_0m in P-1
CELL 0.71073 12.1388 21.4153 25.4993 83.635 80.874 83.613
ZERR 2 0.0012 0.0022 0.0025 0.002 0.002 0.002
LATT 1

SFAC C N O Zn Cl H
UNIT 298 24 2 4 6 270
FLAT C56 C55A C54 C53 C52 C57
FLAT C56A C57A C52 C53A C54A C55A
FLAT C50A C49A C48 C61A C51 C60A
FLAT C51 C50 C49 C61 C48 C60
RIGU $C
ISOR C50 C49

L.S. 10
PLAN  -20 0 0
SIZE 0.03 0.14 0.18
TEMP -173.16
HTAB
BOND $H
MORE -1
fmap 2
acta
CONF
SHEL 999 0.9
OMIT 2 -2 9
OMIT 10 -6 16
OMIT 1 0 2
REM <HKL>D:/SMoCC_Strukturen/d211013/work/mo_d211013_0m-mask.hkl</HKL>

WGHT    0.094100
FVAR       0.05558   0.57164
ZN1   4    0.009580    0.194815    0.496379    11.00000    0.03563    0.03170 =
         0.02549   -0.00372   -0.00587   -0.00348
ZN2   4    0.200648    0.320516    0.086045    11.00000    0.03269    0.03507 =
         0.02988   -0.00781   -0.00873   -0.00678
N1    2   -0.093057    0.163470    0.563149    11.00000    0.03330    0.02598 =
         0.02536   -0.00161   -0.00780   -0.00145
C2    1   -0.087161    0.253726    0.681694    11.00000    0.02310    0.02822 =
         0.02806   -0.00165   -0.00685   -0.00704
N3    2    0.074521    0.252543    0.540957    11.00000    0.02893    0.02820 =
         0.02830    0.00005   -0.00665   -0.00264
N4    2    0.137797    0.212017    0.435854    11.00000    0.03819    0.02470 =
         0.02469    0.00232   -0.00436   -0.00029
N5    2   -0.032583    0.124104    0.457087    11.00000    0.04131    0.03381 =
         0.02376   -0.00247   -0.01287    0.00279
N6    2   -0.839929   -0.252132    0.644842    11.00000    0.04858    0.06264 =
         0.05464   -0.00810   -0.01357   -0.01595
N8    2    0.130872    0.279596    0.032112    11.00000    0.02897    0.02996 =
         0.02463    0.00061   -0.01062    0.00041
N9    2    0.061713    0.307005    0.140528    11.00000    0.03523    0.02354 =
         0.02302   -0.00186   -0.00996   -0.00040
N10   2    0.332911    0.339508    0.029785    11.00000    0.03193    0.02719 =
         0.02784   -0.00032   -0.01203   -0.00132
N11   2    0.264364    0.367562    0.138000    11.00000    0.03169    0.03131 =
         0.02948    0.00072   -0.00947   -0.00854
C1    1   -0.108412    0.186424    0.612165    11.00000    0.02776    0.02734 =
         0.02279    0.00005   -0.00520    0.00157
C3    1   -0.187649    0.151943    0.648868    11.00000    0.03035    0.03714 =
         0.02573   -0.00227   -0.00772   -0.00225
AFIX  43
H3    6   -0.212001    0.158440    0.685307    11.00000   -1.20000
AFIX   0
C4    1   -0.220957    0.108415    0.621564    11.00000    0.02719    0.03255 =
         0.03465    0.00045   -0.00875   -0.00289
AFIX  43
H4    6   -0.273084    0.078563    0.635377    11.00000   -1.20000
AFIX   0
C5    1   -0.162710    0.115693    0.567602    11.00000    0.03305    0.02594 =
         0.02828    0.00369   -0.01124   -0.00185
C6    1   -0.175553    0.079944    0.526558    11.00000    0.03462    0.02455 =
         0.03257   -0.00005   -0.01716    0.00322
C7    1   -0.113060    0.083788    0.475404    11.00000    0.04565    0.02854 =
         0.02783    0.00044   -0.01095   -0.00467
C8    1   -0.125466    0.046573    0.433406    11.00000    0.07501    0.03916 =
         0.02896   -0.00602   -0.00925   -0.01677
AFIX  43
H8    6   -0.176244    0.015392    0.435398    11.00000   -1.20000
AFIX   0
C9    1   -0.051419    0.064396    0.390819    11.00000    0.08332    0.03812 =
         0.02797   -0.00652   -0.00819   -0.01613
AFIX  43
H9    6   -0.039869    0.047562    0.357226    11.00000   -1.20000
AFIX   0
C10   1    0.006623    0.112828    0.404788    11.00000    0.05005    0.03181 =
         0.02477   -0.00131   -0.00935   -0.00005
C11   1    0.091467    0.143009    0.371830    11.00000    0.05917    0.02788 =
         0.02536   -0.00343   -0.00921    0.00063
C12   1    0.155698    0.186555    0.387442    11.00000    0.04954    0.02690 =
         0.02296   -0.00250   -0.00508    0.00465
C13   1    0.257865    0.206612    0.356400    11.00000    0.05388    0.04110 =
         0.02755   -0.00245    0.00158   -0.00467
AFIX  43
H13   6    0.288338    0.196560    0.321339    11.00000   -1.20000
AFIX   0
C14   1    0.301784    0.242290    0.386591    11.00000    0.04674    0.03848 =
         0.02438    0.00342    0.00026   -0.00317
AFIX  43
H14   6    0.370476    0.260941    0.376970    11.00000   -1.20000
AFIX   0
C15   1    0.226781    0.247297    0.435917    11.00000    0.03418    0.02889 =
         0.02488    0.00442   -0.00475    0.00006
C16   1    0.240493    0.282251    0.477545    11.00000    0.03033    0.02478 =
         0.03030    0.00351   -0.00426    0.00028
C17   1    0.347104    0.314165    0.472005    11.00000    0.02960    0.02672 =
         0.03119   -0.00351    0.00112    0.00378
C18   1    0.382519    0.355300    0.427678    11.00000    0.03195    0.03732 =
         0.03213    0.00377   -0.00925   -0.00109
AFIX  43
H18   6    0.335649    0.366275    0.400916    11.00000   -1.20000
AFIX   0
C19   1    0.485834    0.380788    0.421792    11.00000    0.03504    0.02391 =
         0.03998    0.00306   -0.00536    0.00049
C1A   1    0.531279    0.422144    0.371719    11.00000    0.03850    0.03664 =
         0.04389    0.00769   -0.00509   -0.00544
C20   1    0.652612    0.397963    0.352021    11.00000    0.04337    0.06919 =
         0.04885    0.01356   -0.00372   -0.00383
AFIX 137
H20A  6    0.698602    0.399338    0.380102    11.00000   -1.50000
H20B  6    0.681591    0.424673    0.320206    11.00000   -1.50000
H20C  6    0.655325    0.354398    0.343142    11.00000   -1.50000
AFIX   0
C21   1    0.526755    0.489972    0.385597    11.00000    0.05983    0.03959 =
         0.05430    0.01231   -0.01130   -0.01436
AFIX 137
H21A  6    0.448395    0.507053    0.394106    11.00000   -1.50000
H21B  6    0.563782    0.515717    0.355086    11.00000   -1.50000
H21C  6    0.565185    0.490708    0.416514    11.00000   -1.50000
AFIX   0
C22   1    0.464315    0.420989    0.325169    11.00000    0.05295    0.04768 =
         0.03866    0.01293   -0.00950   -0.00891
AFIX 137
H22A  6    0.462418    0.377230    0.317722    11.00000   -1.50000
H22B  6    0.500444    0.444942    0.293300    11.00000   -1.50000
H22C  6    0.387609    0.440063    0.334959    11.00000   -1.50000
AFIX   0
C23   1    0.547500    0.366993    0.464159    11.00000    0.03157    0.03458 =
         0.04201   -0.00026   -0.00452   -0.00788
AFIX  43
H23   6    0.615524    0.385868    0.461894    11.00000   -1.20000
AFIX   0
C24   1    0.514737    0.327184    0.509400    11.00000    0.03740    0.02760 =
         0.03303   -0.00252   -0.00925    0.00262
C25   1    0.582429    0.311251    0.555765    11.00000    0.04522    0.04430 =
         0.04412    0.00076   -0.01604   -0.00752
C26   1    0.502053    0.323685    0.609096    11.00000    0.06353    0.06975 =
         0.04501   -0.00365   -0.01215   -0.01469
AFIX 137
H26A  6    0.470091    0.367818    0.607153    11.00000   -1.50000
H26B  6    0.544484    0.315060    0.639174    11.00000   -1.50000
H26C  6    0.441501    0.295923    0.614189    11.00000   -1.50000
AFIX   0
C27   1    0.674195    0.352224    0.553122    11.00000    0.06504    0.07957 =
         0.05948    0.01097   -0.02617   -0.02652
AFIX 137
H27A  6    0.728276    0.345919    0.520837    11.00000   -1.50000
H27B  6    0.711901    0.341348    0.584623    11.00000   -1.50000
H27C  6    0.643097    0.396503    0.552157    11.00000   -1.50000
AFIX   0
C28   1    0.621256    0.242395    0.560124    11.00000    0.06373    0.05181 =
         0.08548    0.01603   -0.03756   -0.00791
AFIX 137
H28A  6    0.557702    0.217918    0.560066    11.00000   -1.50000
H28B  6    0.652558    0.230940    0.593410    11.00000   -1.50000
H28C  6    0.678961    0.233184    0.529752    11.00000   -1.50000
AFIX   0
C29   1    0.414522    0.299575    0.511662    11.00000    0.03689    0.02429 =
         0.02341    0.00013   -0.00520    0.00077
AFIX  43
H29   6    0.392168    0.270133    0.541080    11.00000   -1.20000
AFIX   0
C30   1    0.166477    0.286261    0.525654    11.00000    0.02970    0.02366 =
         0.02897    0.00215   -0.00831    0.00271
C31   1    0.176983    0.324525    0.567491    11.00000    0.03226    0.02985 =
         0.03618   -0.00146   -0.00751   -0.00190
AFIX  43
H31   6    0.232155    0.352932    0.566682    11.00000   -1.20000
AFIX   0
C32   1    0.092718    0.312216    0.608448    11.00000    0.03261    0.02945 =
         0.02701   -0.00044   -0.01190   -0.00096
AFIX  43
H32   6    0.078609    0.330328    0.641511    11.00000   -1.20000
AFIX   0
C33   1    0.029840    0.267105    0.592343    11.00000    0.03262    0.02631 =
         0.02455   -0.00061   -0.01041    0.00181
C34   1   -0.055375    0.236620    0.625308    11.00000    0.02616    0.02743 =
         0.02257    0.00009   -0.01027    0.00322
C35   1   -0.163771    0.304820    0.694650    11.00000    0.02786    0.03121 =
         0.02825   -0.00219   -0.00851   -0.00502
AFIX  43
H35   6   -0.192526    0.332216    0.667040    11.00000   -1.20000
AFIX   0
C36   1   -0.198916    0.316343    0.747686    11.00000    0.02456    0.03079 =
         0.03138   -0.00565   -0.00590   -0.00833
C37   1   -0.155367    0.275407    0.786979    11.00000    0.02809    0.04052 =
         0.02590   -0.00928   -0.00287   -0.00928
AFIX  43
H37   6   -0.179428    0.282743    0.823267    11.00000   -1.20000
AFIX   0
C38   1   -0.077439    0.223733    0.775392    11.00000    0.02865    0.04060 =
         0.02347   -0.00418   -0.00891   -0.00986
C39   1   -0.044822    0.214545    0.721944    11.00000    0.02497    0.03268 =
         0.02992   -0.00627   -0.00536    0.00000
AFIX  43
H39   6    0.008505    0.180087    0.712749    11.00000   -1.20000
AFIX   0
C40   1   -0.031540    0.177059    0.818252    11.00000    0.03451    0.04682 =
         0.02369   -0.00309   -0.01032   -0.00170
C41   1   -0.085138    0.191333    0.874646    11.00000    0.04204    0.08091 =
         0.02763   -0.00289   -0.01318    0.00825
AFIX 137
H41A  6   -0.066018    0.232615    0.881603    11.00000   -1.50000
H41B  6   -0.056980    0.158701    0.900636    11.00000   -1.50000
H41C  6   -0.166745    0.191825    0.877821    11.00000   -1.50000
AFIX   0
C42   1   -0.059377    0.110089    0.810438    11.00000    0.05287    0.04640 =
         0.03805    0.00607   -0.02145   -0.00814
AFIX 137
H42A  6   -0.140430    0.110214    0.811402    11.00000   -1.50000
H42B  6   -0.034863    0.079937    0.839077    11.00000   -1.50000
H42C  6   -0.020436    0.097780    0.775897    11.00000   -1.50000
AFIX   0
C43   1    0.095454    0.178764    0.812992    11.00000    0.03483    0.04823 =
         0.03545   -0.00210   -0.01384   -0.00034
AFIX 137
H43A  6    0.130537    0.167720    0.777472    11.00000   -1.50000
H43B  6    0.124964    0.148389    0.840219    11.00000   -1.50000
H43C  6    0.112191    0.221274    0.817916    11.00000   -1.50000
AFIX   0
C44   1   -0.282187    0.373804    0.763666    11.00000    0.03417    0.03508 =
         0.04298   -0.00376   -0.00399    0.00079
C45   1   -0.213471    0.426027    0.771941    11.00000    0.04822    0.03944 =
         0.08014   -0.02095    0.00726   -0.00829
AFIX 137
H45A  6   -0.168506    0.411474    0.800427    11.00000   -1.50000
H45B  6   -0.263827    0.463222    0.781940    11.00000   -1.50000
H45C  6   -0.163740    0.437081    0.738795    11.00000   -1.50000
AFIX   0
C46   1   -0.353938    0.397541    0.719804    11.00000    0.04769    0.05119 =
         0.05190   -0.00411   -0.00392    0.01906
AFIX 137
H46A  6   -0.306078    0.414725    0.688063    11.00000   -1.50000
H46B  6   -0.411131    0.430632    0.732587    11.00000   -1.50000
H46C  6   -0.390450    0.362433    0.710735    11.00000   -1.50000
AFIX   0
C47   1   -0.362319    0.357784    0.814911    11.00000    0.03974    0.04679 =
         0.04192   -0.00962    0.00511   -0.00174
AFIX 137
H47A  6   -0.405867    0.323682    0.809684    11.00000   -1.50000
H47B  6   -0.413302    0.395207    0.823647    11.00000   -1.50000
H47C  6   -0.319089    0.344208    0.844212    11.00000   -1.50000
AFIX  66
C48   1    0.123471    0.125237    0.315311    11.00000    0.05719    0.03267 =
         0.02623   -0.00417   -0.00519   -0.00037
PART 2
C49A  1    0.073094    0.160073    0.274678   -21.00000    0.05128
AFIX  43
H49A  6    0.016181    0.193224    0.282825   -21.00000   -1.20000
AFIX  65
C50A  1    0.105990    0.146405    0.222126   -21.00000    0.02453
AFIX  43
H50A  6    0.071560    0.170214    0.194356   -21.00000   -1.20000
AFIX  65
PART 0
C51   1    0.189263    0.097900    0.210205    11.00000    0.06130    0.03921 =
         0.02709   -0.00576   -0.00618    0.00404
PART 2
C60A  1    0.239640    0.063064    0.250837   -21.00000    0.04760
AFIX  43
H60A  6    0.296553    0.029913    0.242689   -21.00000   -1.20000
AFIX  65
C61A  1    0.206746    0.076731    0.303390   -21.00000    0.04804
AFIX  43
H61A  6    0.241176    0.052922    0.331159   -21.00000   -1.20000
AFIX   0
PART 0
PART 1
C49   1    0.100678    0.168715    0.274212    21.00000    0.01774
AFIX  43
H49   6    0.058631    0.207603    0.281913    21.00000   -1.20000
AFIX   0
C50   1    0.137635    0.157463    0.221101    21.00000    0.02469
AFIX  43
H50   6    0.127813    0.189685    0.193015    21.00000   -1.20000
AFIX  66
PART 0
C52   1    0.229061    0.084469    0.152497    11.00000    0.05316    0.03755 =
         0.02759   -0.00482   -0.00911    0.00908
PART 1
C53A  1    0.328188    0.046427    0.139901   -21.00000    0.02951
AFIX  43
H53A  6    0.368282    0.026969    0.167453   -21.00000   -1.20000
AFIX  65
C54A  1    0.368651    0.036853    0.086994   -21.00000    0.02710
AFIX  43
H54A  6    0.436400    0.010853    0.078386   -21.00000   -1.20000
AFIX  65
PART 0
C55A  1    0.309988    0.065322    0.046682    11.00000    0.04411    0.03446 =
         0.03061   -0.00606   -0.00518    0.00195
PART 1
C56A  1    0.210861    0.103365    0.059276   -21.00000    0.03191
AFIX  43
H56A  6    0.170768    0.122822    0.031725   -21.00000   -1.20000
AFIX  65
C57A  1    0.170396    0.112939    0.112184   -21.00000    0.02469
AFIX  43
H57A  6    0.102647    0.138939    0.120792   -21.00000   -1.20000
AFIX   0
PART 0
PART 2
C53   1    0.298739    0.033358    0.139975    21.00000    0.04013
AFIX  43
H53   6    0.321118    0.003856    0.167874    21.00000   -1.20000
AFIX   0
C54   1    0.339555    0.022232    0.086747    21.00000    0.04474
AFIX  43
H54   6    0.387160   -0.014864    0.078803    21.00000   -1.20000
AFIX   0
C56   1    0.243256    0.121773    0.058665    21.00000    0.03731
AFIX  43
H56   6    0.222361    0.151858    0.030832    21.00000   -1.20000
AFIX   0
C57   1    0.209262    0.132446    0.110794    21.00000    0.05117
AFIX  43
H57   6    0.172043    0.172248    0.119347    21.00000   -1.20000
AFIX   0
PART 0
C58   1    0.352783    0.057402   -0.008646    11.00000    0.05415    0.03610 =
         0.03976   -0.00389   -0.00668   -0.00084
N59   2    0.384644    0.052197   -0.053193    11.00000    0.07697    0.05656 =
         0.03678    0.00013    0.00047    0.00187
PART 1
C60   1    0.190198    0.049291    0.251537    21.00000    0.03848
AFIX  43
H60   6    0.212711    0.006997    0.243717    21.00000   -1.20000
AFIX   0
C61   1    0.158336    0.062887    0.303736    21.00000    0.03955
AFIX  43
H61   6    0.159993    0.029979    0.331914    21.00000   -1.20000
AFIX   0
PART 0
C62   1   -0.263043    0.034648    0.539066    11.00000    0.03764    0.02935 =
         0.02552   -0.00102   -0.01319   -0.00218
C63   1   -0.236358   -0.030238    0.540191    11.00000    0.03462    0.03167 =
         0.03370   -0.00055   -0.00670    0.00310
AFIX  43
H63   6   -0.160413   -0.046601    0.531468    11.00000   -1.20000
AFIX   0
C64   1   -0.319467   -0.071760    0.553948    11.00000    0.03971    0.02634 =
         0.03420   -0.00092   -0.00284   -0.00051
AFIX  43
H64   6   -0.299135   -0.115933    0.554377    11.00000   -1.20000
AFIX   0
C65   1   -0.430259   -0.049804    0.566888    11.00000    0.03200    0.03441 =
         0.03169   -0.00113   -0.01385    0.00612
C66   1   -0.456995    0.015308    0.564613    11.00000    0.03104    0.03469 =
         0.07775   -0.01228   -0.02251    0.00412
AFIX  43
H66   6   -0.533056    0.031686    0.572875    11.00000   -1.20000
AFIX   0
C67   1   -0.376027    0.056064    0.550740    11.00000    0.04095    0.02420 =
         0.06877   -0.00632   -0.02501    0.00522
AFIX  43
H67   6   -0.397323    0.100208    0.549003    11.00000   -1.20000
AFIX   0
C68   1   -0.518213   -0.094475    0.583882    11.00000    0.02876    0.03465 =
         0.03523   -0.00222   -0.01358    0.00248
C69   1   -0.512195   -0.150620    0.561259    11.00000    0.03832    0.03220 =
         0.03387   -0.00209    0.00079   -0.00185
AFIX  43
H69   6   -0.451761   -0.160855    0.534102    11.00000   -1.20000
AFIX   0
C70   1   -0.593163   -0.192180    0.577673    11.00000    0.04398    0.03107 =
         0.04086   -0.00574   -0.00373   -0.00190
AFIX  43
H70   6   -0.588054   -0.230820    0.561995    11.00000   -1.20000
AFIX   0
C71   1   -0.681639   -0.177215    0.617035    11.00000    0.02993    0.05001 =
         0.03998   -0.00485   -0.00985   -0.00465
C72   1   -0.768831   -0.219296    0.632944    11.00000    0.03722    0.05383 =
         0.04665   -0.01222   -0.00911   -0.00588
C73   1   -0.687639   -0.120738    0.640154    11.00000    0.03656    0.06505 =
         0.06652   -0.03056    0.00571   -0.01330
AFIX  43
H73   6   -0.747781   -0.110075    0.667318    11.00000   -1.20000
AFIX   0
C74   1   -0.605422   -0.080546    0.623189    11.00000    0.03558    0.05483 =
         0.06713   -0.03208    0.00160   -0.01046
AFIX  43
H74   6   -0.609315   -0.042185    0.639163    11.00000   -1.20000
AFIX   0

C75   1    0.177486    0.272134   -0.020400    11.00000    0.03384    0.03085 =
         0.02276   -0.00109   -0.01269    0.00177
C76   1    0.110241    0.234710   -0.043085    11.00000    0.03771    0.03741 =
         0.02750   -0.00771   -0.01339   -0.00260
AFIX  43
H76   6    0.123476    0.222888   -0.078532    11.00000   -1.20000
AFIX   0
C77   1    0.025006    0.219303   -0.005222    11.00000    0.03606    0.03640 =
         0.02899   -0.00443   -0.01466   -0.00559
AFIX  43
H77   6   -0.031886    0.193653   -0.008803    11.00000   -1.20000
AFIX   0
C78   1    0.035047    0.248642    0.041999    11.00000    0.02698    0.02847 =
         0.03260   -0.00285   -0.01241   -0.00173
C79   1   -0.039088    0.245040    0.090217    11.00000    0.02886    0.02513 =
         0.02578    0.00330   -0.01516    0.00152
C80   1   -0.133616    0.204367    0.095253    11.00000    0.02932    0.02756 =
         0.02685   -0.00461   -0.00641   -0.00316
C81   1   -0.210783    0.211646    0.059664    11.00000    0.03315    0.03287 =
         0.03031   -0.00397   -0.01122   -0.00066
AFIX  43
H81   6   -0.207699    0.245933    0.032596    11.00000   -1.20000
AFIX   0
C82   1   -0.291892    0.170427    0.062525    11.00000    0.03622    0.03327 =
         0.03617   -0.00649   -0.01287   -0.00476
C83   1   -0.297662    0.122296    0.104092    11.00000    0.03751    0.03105 =
         0.04308   -0.00130   -0.01573   -0.01070
AFIX  43
H83   6   -0.353989    0.094151    0.106905    11.00000   -1.20000
AFIX   0
C84   1   -0.223990    0.113638    0.141894    11.00000    0.04661    0.02724 =
         0.04450   -0.00216   -0.01463   -0.00823
C85   1   -0.232938    0.059618    0.185335    11.00000    0.06205    0.03803 =
         0.05613    0.00807   -0.02682   -0.01575
C86   1   -0.349992    0.065405    0.218991    11.00000    0.08621    0.06667 =
         0.06426    0.01975   -0.01347   -0.02682
AFIX 137
H86A  6   -0.363230    0.106326    0.233852    11.00000   -1.50000
H86B  6   -0.354313    0.031433    0.248131    11.00000   -1.50000
H86C  6   -0.406972    0.062140    0.196423    11.00000   -1.50000
AFIX   0
C87   1   -0.144749    0.058389    0.222414    11.00000    0.10127    0.06762 =
         0.06849    0.03963   -0.04163   -0.04031
AFIX 137
H87A  6   -0.069772    0.050069    0.202243    11.00000   -1.50000
H87B  6   -0.157479    0.025043    0.251676    11.00000   -1.50000
H87C  6   -0.150619    0.099268    0.237029    11.00000   -1.50000
AFIX   0
C88   1   -0.216918   -0.003742    0.160965    11.00000    0.08216    0.03445 =
         0.08901    0.00690   -0.03757   -0.01389
AFIX 137
H88A  6   -0.278318   -0.006379    0.140802    11.00000   -1.50000
H88B  6   -0.216857   -0.038361    0.189526    11.00000   -1.50000
H88C  6   -0.145350   -0.006947    0.137004    11.00000   -1.50000
AFIX   0
C89   1   -0.141742    0.155200    0.135861    11.00000    0.03286    0.02877 =
         0.03307   -0.00359   -0.01567   -0.00097
AFIX  43
H89   6   -0.089198    0.149884    0.160305    11.00000   -1.20000
AFIX   0
C90   1   -0.373514    0.176264    0.021221    11.00000    0.04176    0.04133 =
         0.05021   -0.00367   -0.02889   -0.00701
C91   1   -0.369331    0.112516   -0.001480    11.00000    0.10322    0.05226 =
         0.07668   -0.01393   -0.06752   -0.00212
AFIX 137
H91A  6   -0.295008    0.102640   -0.021784    11.00000   -1.50000
H91B  6   -0.426354    0.114688   -0.025030    11.00000   -1.50000
H91C  6   -0.383958    0.079484    0.027868    11.00000   -1.50000
AFIX   0
C92   1   -0.492213    0.194796    0.049039    11.00000    0.03704    0.05718 =
         0.06459    0.01317   -0.02674   -0.01247
AFIX 137
H92A  6   -0.512496    0.163117    0.078795    11.00000   -1.50000
H92B  6   -0.545268    0.197054    0.023498    11.00000   -1.50000
H92C  6   -0.494793    0.236072    0.062614    11.00000   -1.50000
AFIX   0
C93   1   -0.342244    0.225714   -0.024910    11.00000    0.03958    0.05727 =
         0.04514   -0.00245   -0.02161   -0.00276
AFIX 137
H93A  6   -0.350015    0.267408   -0.011565    11.00000   -1.50000
H93B  6   -0.392108    0.225957   -0.051641    11.00000   -1.50000
H93C  6   -0.264493    0.215588   -0.041200    11.00000   -1.50000
AFIX   0
C94   1   -0.028780    0.275522    0.134854    11.00000    0.02600    0.02373 =
         0.02754    0.00465   -0.01137   -0.00313
C95   1   -0.110067    0.279492    0.181848    11.00000    0.03553    0.03438 =
         0.03177    0.00141   -0.00806   -0.01025
AFIX  43
H95   6   -0.179839    0.261744    0.188175    11.00000   -1.20000
AFIX   0
C96   1   -0.070902    0.312616    0.215538    11.00000    0.03856    0.03598 =
         0.02693    0.00074   -0.00810   -0.00895
AFIX  43
H96   6   -0.107639    0.322736    0.249717    11.00000   -1.20000
AFIX   0
C97   1    0.037383    0.329820    0.189900    11.00000    0.03947    0.02366 =
         0.02684    0.00022   -0.01101    0.00013
C98   1    0.108583    0.362660    0.212904    11.00000    0.03887    0.02089 =
         0.02629    0.00027   -0.01356   -0.00218
C99   1    0.064846    0.383036    0.267789    11.00000    0.03343    0.02933 =
         0.02843   -0.00511   -0.01070   -0.00855
C100  1    0.086587    0.344527    0.312056    11.00000    0.08646    0.03618 =
         0.03212   -0.00398   -0.01481    0.01721
AFIX  43
H100  6    0.131256    0.305500    0.308238    11.00000   -1.20000
AFIX   0
C101  1    0.043749    0.362127    0.362588    11.00000    0.08350    0.03538 =
         0.02937    0.00317   -0.01711    0.00939
AFIX  43
H101  6    0.059184    0.334564    0.392937    11.00000   -1.20000
AFIX   0
C102  1   -0.020853    0.418760    0.369938    11.00000    0.03244    0.02827 =
         0.02894    0.00050   -0.01159   -0.00944
C103  1   -0.065617    0.436974    0.424602    11.00000    0.03441    0.02764 =
         0.02695    0.00229   -0.00756   -0.01354
C104  1   -0.158838    0.481333    0.434057    11.00000    0.03947    0.03857 =
         0.03231    0.00065   -0.01064   -0.00663
AFIX  43
H104  6   -0.195936    0.499764    0.405167    11.00000   -1.20000
AFIX   0
C105  1   -0.197262    0.498505    0.484648    11.00000    0.03842    0.04244 =
         0.03758   -0.00181   -0.00770   -0.00513
AFIX  43
H105  6   -0.259986    0.529003    0.490301    11.00000   -1.20000
AFIX   0
C106  1   -0.145183    0.471663    0.527340    11.00000    0.03320    0.03658 =
         0.02751    0.00318   -0.00322   -0.01726
C107  1   -0.054967    0.427321    0.519261    11.00000    0.04086    0.03826 =
         0.02601    0.00385   -0.01086   -0.01233
AFIX  43
H107  6   -0.019431    0.408558    0.548552    11.00000   -1.20000
AFIX   0
C108  1   -0.015677    0.409903    0.468363    11.00000    0.04572    0.03179 =
         0.03225    0.00022   -0.01019   -0.00440
AFIX  43
H108  6    0.046455    0.378933    0.463227    11.00000   -1.20000
AFIX   0
C109  1   -0.181921    0.490509    0.580752    11.00000    0.03174    0.05131 =
         0.03236    0.00068   -0.00601   -0.00748
N110  2   -0.207508    0.506142    0.622334    11.00000    0.04580    0.07655 =
         0.03768   -0.00636   -0.00435   -0.01807
C111  1   -0.037640    0.456898    0.324966    11.00000    0.05697    0.03784 =
         0.02810    0.00024   -0.00832    0.00962
AFIX  43
H111  6   -0.078926    0.496969    0.328438    11.00000   -1.20000
AFIX   0
C112  1    0.003269    0.439381    0.274410    11.00000    0.06301    0.04074 =
         0.02604    0.00237   -0.01271    0.01187
AFIX  43
H112  6   -0.011800    0.466978    0.244023    11.00000   -1.20000
AFIX   0
C113  1    0.215189    0.377952    0.189092    11.00000    0.03815    0.02113 =
         0.03136   -0.00072   -0.01345   -0.00253
C114  1    0.292449    0.405832    0.215384    11.00000    0.03916    0.03651 =
         0.03665   -0.01007   -0.01189   -0.00640
AFIX  43
H114  6    0.279993    0.416984    0.251028    11.00000   -1.20000
AFIX   0
C115  1    0.384901    0.412829    0.179644    11.00000    0.03870    0.03550 =
         0.04642   -0.00821   -0.01780   -0.00713
AFIX  43
H115  6    0.450051    0.430233    0.185529    11.00000   -1.20000
AFIX   0
C116  1    0.368953    0.389624    0.131010    11.00000    0.03871    0.02242 =
         0.03480   -0.00315   -0.01607   -0.00047
C117  1    0.445009    0.389285    0.083460    11.00000    0.03440    0.02302 =
         0.03876   -0.00110   -0.01338   -0.00340
C118  1    0.554637    0.415896    0.082502    11.00000    0.03309    0.02414 =
         0.03360   -0.00262   -0.01191   -0.00426
C119  1    0.558849    0.479965    0.083178    11.00000    0.02919    0.02398 =
         0.06238   -0.00257   -0.01581   -0.00112
AFIX  43
H119  6    0.491486    0.507371    0.084977    11.00000   -1.20000
AFIX   0
C120  1    0.661133    0.504906    0.081243    11.00000    0.03397    0.02731 =
         0.06004   -0.00556   -0.01605   -0.00013
AFIX  43
H120  6    0.662497    0.548961    0.082604    11.00000   -1.20000
AFIX   0
C121  1    0.761149    0.465751    0.077337    11.00000    0.03113    0.03149 =
         0.02734    0.00222   -0.01185   -0.00398
C122  1    0.756196    0.400933    0.078390    11.00000    0.03265    0.02953 =
         0.04486   -0.00471   -0.01277    0.00134
AFIX  43
H122  6    0.823098    0.373212    0.077573    11.00000   -1.20000
AFIX   0
C123  1    0.653290    0.376473    0.080641    11.00000    0.03595    0.02619 =
         0.04374   -0.00265   -0.00716   -0.00308
AFIX  43
H123  6    0.651055    0.332238    0.080896    11.00000   -1.20000
AFIX   0
C124  1    0.868690    0.494180    0.073954    11.00000    0.03189    0.02853 =
         0.03195   -0.00761   -0.00779    0.00140
C125  1    0.888177    0.549951    0.043226    11.00000    0.03173    0.03092 =
         0.03659   -0.00636   -0.01140   -0.00072
AFIX  43
H125  6    0.833103    0.569210    0.022376    11.00000   -1.20000
AFIX   0
C126  1    0.984322    0.578769    0.041612    11.00000    0.03722    0.03893 =
         0.03704   -0.00827   -0.00749   -0.00794
AFIX  43
H126  6    0.995262    0.617364    0.020099    11.00000   -1.20000
AFIX   0
C127  1    1.064742    0.551005    0.071585    11.00000    0.02839    0.06203 =
         0.03047   -0.01184   -0.00736   -0.00532
C128  1    1.164397    0.582406    0.071821    11.00000    0.03760    0.10464 =
         0.03816   -0.00541   -0.00755   -0.02350
N129  2    1.240870    0.608051    0.072587    11.00000    0.05590    0.17773 =
         0.05858   -0.00863   -0.00821   -0.05700
C130  1    1.048773    0.493594    0.102531    11.00000    0.02925    0.06437 =
         0.03595   -0.00278   -0.01473   -0.00032
AFIX  43
H130  6    1.105190    0.474227    0.122555    11.00000   -1.20000
AFIX   0
C131  1    0.952151    0.465020    0.104182    11.00000    0.03245    0.04810 =
         0.03730   -0.00322   -0.01151    0.00242
AFIX  43
H131  6    0.941420    0.426172    0.125340    11.00000   -1.20000
AFIX   0
C132  1    0.425400    0.367856    0.036104    11.00000    0.03165    0.02183 =
         0.03216    0.00210   -0.00985   -0.00314
C133  1    0.501035    0.372060   -0.013222    11.00000    0.02954    0.02626 =
         0.04129    0.00071   -0.01179   -0.00167
AFIX  43
H133  6    0.570990    0.389601   -0.019349    11.00000   -1.20000
AFIX   0
C134  1    0.454204    0.346505   -0.049074    11.00000    0.03104    0.03011 =
         0.03078    0.00112   -0.00923    0.00188
AFIX  43
H134  6    0.484767    0.342995   -0.085422    11.00000   -1.20000
AFIX   0
C135  1    0.350247    0.325583   -0.022696    11.00000    0.03207    0.02989 =
         0.02761    0.00033   -0.01059    0.00078
C136  1    0.276997    0.295191   -0.046669    11.00000    0.03214    0.02932 =
         0.02528    0.00157   -0.01021    0.00038
C137  1    0.307452    0.287203   -0.104652    11.00000    0.02220    0.03215 =
         0.02787   -0.00082   -0.00759   -0.00434
C138  1    0.381309    0.237880   -0.123952    11.00000    0.02726    0.02915 =
         0.02947    0.00340   -0.00828   -0.00064
AFIX  43
H138  6    0.412368    0.207071   -0.099236    11.00000   -1.20000
AFIX   0
C139  1    0.411432    0.232028   -0.178353    11.00000    0.02516    0.03037 =
         0.02976   -0.00168   -0.00851   -0.00912
C140  1    0.363187    0.278003   -0.213272    11.00000    0.02751    0.03235 =
         0.02840   -0.00359   -0.00477   -0.00698
AFIX  43
H140  6    0.382810    0.275241   -0.250576    11.00000   -1.20000
AFIX   0
C141  1    0.287212    0.327918   -0.195605    11.00000    0.02869    0.03262 =
         0.02639    0.00090   -0.00922   -0.00845
C142  1    0.234108    0.378956   -0.233931    11.00000    0.03689    0.03659 =
         0.02910    0.00421   -0.01054   -0.00209
C143  1    0.273940    0.367865   -0.292433    11.00000    0.06046    0.05088 =
         0.03283    0.00781   -0.01144    0.00294
AFIX 137
H14A  6    0.355497    0.368631   -0.300245    11.00000   -1.50000
H14B  6    0.238059    0.401151   -0.315411    11.00000   -1.50000
H14C  6    0.253782    0.326708   -0.299124    11.00000   -1.50000
AFIX   0
C144  1    0.266925    0.443788   -0.223946    11.00000    0.05422    0.03575 =
         0.04657    0.00528   -0.01607   -0.00010
AFIX 137
H14D  6    0.237920    0.452418   -0.187090    11.00000   -1.50000
H14E  6    0.234919    0.476735   -0.248544    11.00000   -1.50000
H14F  6    0.348762    0.443353   -0.229867    11.00000   -1.50000
AFIX   0
C145  1    0.106623    0.378921   -0.222349    11.00000    0.03988    0.05700 =
         0.04787    0.01880   -0.01622   -0.00129
AFIX 137
H14G  6    0.085886    0.336849   -0.226010    11.00000   -1.50000
H14H  6    0.072335    0.409916   -0.247698    11.00000   -1.50000
H14I  6    0.079928    0.389974   -0.185914    11.00000   -1.50000
AFIX   0
C146  1    0.261326    0.331648   -0.140667    11.00000    0.03093    0.03101 =
         0.03207   -0.00226   -0.00747   -0.00122
AFIX  43
H146  6    0.210790    0.365538   -0.127681    11.00000   -1.20000
AFIX   0
C147  1    0.490590    0.176161   -0.198682    11.00000    0.02577    0.03293 =
         0.02949   -0.00105   -0.00273   -0.00580
C148  1    0.583326    0.157178   -0.164208    11.00000    0.04559    0.05428 =
         0.06213   -0.01999   -0.02543    0.01957
AFIX 137
H14J  6    0.624123    0.193778   -0.162679    11.00000   -1.50000
H14K  6    0.635223    0.123409   -0.179776    11.00000   -1.50000
H14L  6    0.550065    0.142179   -0.128073    11.00000   -1.50000
AFIX   0
C149  1    0.547581    0.191453   -0.256292    11.00000    0.05156    0.04816 =
         0.04312   -0.00512    0.01411    0.00330
AFIX 137
H14M  6    0.491119    0.197078   -0.280383    11.00000   -1.50000
H14N  6    0.603612    0.156649   -0.266537    11.00000   -1.50000
H14O  6    0.584327    0.230376   -0.258667    11.00000   -1.50000
AFIX   0
C150  1    0.421818    0.120385   -0.197625    11.00000    0.04430    0.04464 =
         0.05840   -0.01281   -0.00026   -0.01281
AFIX 137
H15A  6    0.385362    0.109693   -0.161096    11.00000   -1.50000
H15B  6    0.471319    0.083935   -0.210022    11.00000   -1.50000
H15C  6    0.364640    0.131732   -0.221079    11.00000   -1.50000
AFIX   0

CL1   5    0.735446    0.881039    0.438779    11.00000    0.08273    0.07443 =
         0.05770    0.00161   -0.00192    0.02360
CL2   5    0.828095    0.924165    0.333492    11.00000    0.13311    0.04771 =
         0.07469    0.00591    0.03513   -0.01026
C1C   1    0.780177    0.860521    0.375943    11.00000    0.07217    0.06045 =
         0.05574   -0.00162   -0.00456    0.00898
AFIX  13
H1C   6    0.843467    0.826516    0.377269    11.00000   -1.20000
AFIX   0
CL4   5    0.671723    0.830873    0.351572    11.00000    0.16730    0.15454 =
         0.15123    0.00539   -0.08490   -0.06909

O1    3   -0.108294    0.270160    0.462750    11.00000    0.04822    0.06527 =
         0.05753   -0.00522   -0.00451   -0.00543
AFIX   7
H1A   6   -0.179075    0.270978    0.481848    11.00000   -1.50000
H1B   6   -0.115040    0.264322    0.428439    11.00000   -1.50000
AFIX   0
HKLF 4

REM  mo_d211013_0m in P-1
REM R1 =  0.0604 for   11531 Fo > 4sig(Fo)  and  0.1008 for all   18304 data
REM   1498 parameters refined using   1092 restraints

END

WGHT      0.0941      0.0000

REM Instructions for potential hydrogen bonds
EQIV $1 -x+2, -y+1, -z
HTAB C133 N129_$1
EQIV $2 -x-1, -y, -z+1
HTAB O1 N6_$2

REM Highest difference peak  1.032,  deepest hole -0.802,  1-sigma level  0.066
Q1    1   0.6684  0.8446  0.3993  11.00000  0.05    1.03
Q2    1   0.2730  0.7114  0.4786  11.00000  0.05    0.77
Q3    1   0.6981  0.8748  0.3291  11.00000  0.05    0.55
Q4    1   0.2866  0.0800  0.2516  11.00000  0.05    0.50
Q5    1   0.5593  0.2685  0.5904  11.00000  0.05    0.50
Q6    1   0.0827  0.1884  0.4977  11.00000  0.05    0.49
Q7    1   0.5960  0.3705  0.5755  11.00000  0.05    0.48
Q8    1   0.2614  0.0887  0.3026  11.00000  0.05    0.39
Q9    1   0.1428  0.0866  0.1207  11.00000  0.05    0.35
Q10   1   0.7454  0.8013  0.3430  11.00000  0.05    0.34
Q11   1  -0.2494  0.0932  0.2386  11.00000  0.05    0.29
Q12   1  -0.0234  0.1671  0.5311  11.00000  0.05    0.29
Q13   1   0.2652  0.3505  0.0434  11.00000  0.05    0.28
Q14   1   0.2344  0.2922  0.1119  11.00000  0.05    0.28
Q15   1  -0.0379  0.1770  0.5433  11.00000  0.05    0.28
Q16   1   0.8029  0.8957  0.3994  11.00000  0.05    0.27
Q17   1   0.9187  0.9190  0.3317  11.00000  0.05    0.27
Q18   1   0.2190  0.0994  0.1882  11.00000  0.05    0.27
Q19   1   0.3514  0.0286  0.1201  11.00000  0.05    0.27
Q20   1   0.0512  0.1607  0.5309  11.00000  0.05    0.27
;
_shelx_res_checksum              89411
_shelx_hkl_file
;
 -13  -6   1    0.33    0.46
 -13  -5   1    0.08    0.44
 -13  -5   2    0.00    0.44
 -13  -4   1    0.44    0.45
 -13  -4   2    0.06    0.44
 -13  -3   1    0.02    0.43
 -13  -3   2    0.76    0.45
 -13  -3   3    0.57    0.45
 -13  -2   1    0.69    0.44
 -13  -2   2    0.09    0.44
 -13  -2   3    3.53    0.51
 -13  -1   1    2.37    0.48
 -13  -1   2    0.35    0.44
 -13  -1   3    0.01    0.42
 -13   0   1    6.73    0.57
 -13   0   2    0.00    0.43
 -13   1   1    0.00    0.43
 -13   1   2    5.07    0.55
 -13   2   1    2.00    0.48
 -12 -11   1    0.18    0.32
 -12 -11   2    0.28    0.34
 -12 -10   1    3.78    0.37
 -12 -10   2    1.03    0.77
 -12 -10   3    1.16    0.35
 -12 -10   4    0.44    0.34
 -12  -9   1    0.48    0.32
 -12  -9   2    2.76    0.36
 -12  -9   3    0.14    0.43
 -12  -9   4    2.21    0.36
 -12  -9   5    0.47    0.34
 -12  -8   1    0.60    0.34
 -12  -8   2    0.00    0.32
 -12  -8   3    0.45    0.43
 -12  -8   4    0.36    0.33
 -12  -8   5    0.50    0.35
 -12  -8   6    0.61    0.41
 -12  -7   1    0.06    0.67
 -12  -7   2    3.09    0.35
 -12  -7   3    0.00    0.32
 -12  -7   4    1.45    0.38
 -12  -7   5    2.56    0.36
 -12  -7   6    3.30    0.36
 -12  -6   1    0.85    0.31
 -12  -6   2    0.25    0.31
 -12  -6   3    1.19    0.32
 -12  -6   4    0.00    0.32
 -12  -6   5    3.77    0.38
 -12  -6   6    0.37    0.38
 -12  -6   7    1.20    0.35
 -12  -5   1    0.51    0.43
 -12  -5   2    2.07    0.47
 -12  -5   3    0.55    0.32
 -12  -5   4    2.72    0.38
 -12  -5   5    3.37    0.36
 -12  -5   6    0.30    0.34
 -12  -5   7    0.33    0.55
 -12  -5   8    0.03    0.34
 -12  -4   1    1.51    0.44
 -12  -4   2    0.00    0.41
 -12  -4   3    4.13    0.36
 -12  -4   4    1.33    0.34
 -12  -4   5    1.75    0.54
 -12  -4   6    3.29    0.54
 -12  -4   7    0.00    0.33
 -12  -4   8    0.84    0.35
 -12  -3   1    0.01    0.42
 -12  -3   2    1.33    0.44
 -12  -3   3    1.81    0.46
 -12  -3   4    1.73    0.49
 -12  -3   5    0.95    0.32
 -12  -3   6    0.51    0.33
 -12  -3   7    0.20    0.33
 -12  -3   8    0.23    0.34
 -12  -2   1    8.77    0.64
 -12  -2   2    0.53    0.42
 -12  -2   3    2.29    0.46
 -12  -2   4    1.48    0.46
 -12  -2   5    0.03    0.44
 -12  -2   6    2.76    0.35
 -12  -2   7    0.41    0.33
 -12  -2   8    0.48    0.53
 -12  -1   1    0.79    0.42
 -12  -1   2    5.87    0.52
 -12  -1   3    3.34    0.48
 -12  -1   4    0.47    0.43
 -12  -1   5    0.57    0.43
 -12  -1   6    0.58    0.44
 -12  -1   7    0.00    0.37
 -12  -1   8    0.00    0.50
 -12   0   1    4.99    0.49
 -12   0   2    0.32    0.43
 -12   0   3    0.00    0.41
 -12   0   4    3.64    0.49
 -12   0   5    0.50    0.45
 -12   0   6    2.97    0.48
 -12   0   7    0.64    0.46
 -12   0   8    0.01    0.33
 -12   1   1    2.04    0.44
 -12   1   2    2.55    0.46
 -12   1   3    1.23    0.45
 -12   1   4    0.20    0.44
 -12   1   5    0.02    0.44
 -12   1   6    0.47    0.45
 -12   1   7    1.86    0.47
 -12   1   8    0.79    0.47
 -12   2   1    0.00    0.39
 -12   2   2    1.29    0.44
 -12   2   3    0.09    0.42
 -12   2   4    3.72    0.50
 -12   2   5    0.02    0.44
 -12   2   6    0.97    0.45
 -12   2   7    1.47    0.47
 -12   2   8    0.74    0.46
 -12   3   1    0.04    0.41
 -12   3   2    0.20    0.43
 -12   3   3    0.71    0.44
 -12   3   4    0.02    0.42
 -12   3   5    0.21    0.44
 -12   3   6    0.02    0.44
 -12   3   7    1.16    0.46
 -12   4   1    0.03    0.41
 -12   4   2    4.98    0.53
 -12   4   3    0.30    0.43
 -12   4   4    0.02    0.42
 -12   4   5    1.33    0.47
 -12   4   6    0.89    0.46
 -12   5   1    0.90    0.43
 -12   5   2    0.36    0.42
 -12   5   3    0.20    0.44
 -12   5   4    0.00    0.44
 -12   5   5    0.00    0.43
 -12   5   6    0.00    0.44
 -12   6   1    0.00    0.41
 -12   6   2    0.46    0.42
 -12   6   3    0.38    0.42
 -12   6   4    0.01    0.41
 -12   7   1    0.67    0.43
 -12   7   2    0.06    0.43
 -12   7   3    0.20    0.44
 -11 -14   1    1.35    0.34
 -11 -14   2    0.38    0.34
 -11 -14   3    0.70    0.34
 -11 -13   1    0.31    0.34
 -11 -13   2    0.00    0.33
 -11 -13   3    1.68    0.36
 -11 -13   4    0.01    0.34
 -11 -12   1    5.50    0.39
 -11 -12   2    0.53    0.67
 -11 -12   3    2.91    0.36
 -11 -12   4    1.06    0.45
 -11 -12   5    0.23    0.78
 -11 -12   6    2.29    0.36
 -11 -11   1    0.31    0.32
 -11 -11   2    3.12    0.36
 -11 -11   3    0.63    0.33
 -11 -11   4    0.00    0.32
 -11 -11   5    0.32    0.33
 -11 -11   6    0.00    0.51
 -11 -11   7    0.37    0.35
 -11 -10   1    2.10    0.34
 -11 -10   2    0.53    0.32
 -11 -10   3    0.69    0.33
 -11 -10   4    2.21    0.35
 -11 -10   5    0.96    0.34
 -11 -10   6    1.56    0.35
 -11 -10   7    1.14    0.34
 -11 -10   8    0.22    0.34
 -11  -9   1    1.50    0.33
 -11  -9   2    1.02    0.33
 -11  -9   3    0.77    0.40
 -11  -9   4    0.08    0.32
 -11  -9   5    1.30    0.43
 -11  -9   6    1.59    0.49
 -11  -9   7    1.16    0.34
 -11  -9   8    0.16    0.32
 -11  -9   9    0.02    0.34
 -11  -8   1    0.58    0.31
 -11  -8   2    0.15    0.31
 -11  -8   3    0.35    0.61
 -11  -8   4    0.10    0.31
 -11  -8   5    0.06    0.31
 -11  -8   6    0.00    0.32
 -11  -8   7    2.55    0.48
 -11  -8   8    0.04    0.33
 -11  -8   9    0.67    0.35
 -11  -8  10    0.04    0.33
 -11  -7   1    0.05    0.30
 -11  -7   2    0.92    0.46
 -11  -7   3    3.09    0.45
 -11  -7   4    0.56    0.33
 -11  -7   5   10.08    0.60
 -11  -7   6    0.82    0.64
 -11  -7   7    2.24    0.35
 -11  -7   8    0.54    0.33
 -11  -7   9    0.12    0.34
 -11  -7  10    1.34    0.37
 -11  -6   1    1.33    0.30
 -11  -6   2    2.03    0.33
 -11  -6   3    4.38    0.56
 -11  -6   4    0.01    0.31
 -11  -6   5    0.07    0.32
 -11  -6   6    5.34    0.40
 -11  -6   7    0.04    0.60
 -11  -6   8    1.99    0.35
 -11  -6   9    0.31    0.34
 -11  -6  10    0.20    0.34
 -11  -6  11    0.01    0.34
 -11  -5   1    2.96    0.34
 -11  -5   2    1.07    0.30
 -11  -5   3   14.95    0.52
 -11  -5   4    2.80    0.61
 -11  -5   5   10.11    0.49
 -11  -5   6    0.49    0.53
 -11  -5   7    0.34    0.33
 -11  -5   8    2.42    0.35
 -11  -5   9    0.00    0.33
 -11  -5  10    1.34    0.49
 -11  -5  11    0.38    0.35
 -11  -4   1    7.65    0.37
 -11  -4   2    0.81    0.31
 -11  -4   3    0.19    0.31
 -11  -4   4    6.80    0.64
 -11  -4   5    0.00    0.31
 -11  -4   6    5.24    0.41
 -11  -4   7    0.54    0.33
 -11  -4   8    2.56    0.35
 -11  -4   9    0.72    0.33
 -11  -4  10    0.07    0.33
 -11  -4  11    4.93    0.39
 -11  -4  12    0.25    0.59
 -11  -3   1    1.64    0.30
 -11  -3   2    0.69    0.30
 -11  -3   3    3.87    0.33
 -11  -3   4    0.00    0.67
 -11  -3   5    1.57    0.33
 -11  -3   6    0.02    0.31
 -11  -3   7    0.64    0.33
 -11  -3   8    0.49    0.33
 -11  -3   9    0.32    0.34
 -11  -3  10    0.08    0.34
 -11  -3  11    0.31    0.35
 -11  -3  12    0.89    0.35
 -11  -2   1    0.73    0.28
 -11  -2   2    1.47    0.30
 -11  -2   3    0.87    0.59
 -11  -2   4    5.24    0.35
 -11  -2   5    0.03    0.30
 -11  -2   6    0.72    0.32
 -11  -2   7    0.05    0.31
 -11  -2   8    0.86    0.33
 -11  -2   9    0.01    0.33
 -11  -2  10    0.95    0.34
 -11  -2  11    8.25    0.58
 -11  -2  12    0.09    0.45
 -11  -1   1   10.25    0.64
 -11  -1   2    1.01    0.29
 -11  -1   3    3.36    0.32
 -11  -1   4    1.95    0.31
 -11  -1   5    0.95    0.32
 -11  -1   6    0.56    0.31
 -11  -1   7    1.64    0.42
 -11  -1   8    0.36    0.32
 -11  -1   9    1.96    0.34
 -11  -1  10    7.88    0.43
 -11  -1  11    2.56    0.38
 -11  -1  12    0.84    0.50
 -11   0   1    0.73    0.40
 -11   0   2    0.26    0.40
 -11   0   3    0.05    0.40
 -11   0   4    2.84    0.31
 -11   0   5    1.05    0.31
 -11   0   6    0.71    0.31
 -11   0   7    2.62    0.35
 -11   0   8    0.71    0.37
 -11   0   9    1.38    0.34
 -11   0  10    0.03    0.49
 -11   0  11    3.35    0.38
 -11   0  12    2.07    0.37
 -11   1   1    0.95    0.42
 -11   1   2    0.26    0.40
 -11   1   3    0.25    0.40
 -11   1   4    0.35    0.41
 -11   1   5    1.13    0.30
 -11   1   6    0.31    0.31
 -11   1   7    0.22    0.31
 -11   1   8    1.03    0.36
 -11   1   9    3.42    0.37
 -11   1  10   13.38    0.97
 -11   1  11    0.00    0.34
 -11   1  12    3.25    0.50
 -11   2   1    0.16    0.40
 -11   2   2    0.67    0.41
 -11   2   3    2.74    0.44
 -11   2   4    0.34    0.40
 -11   2   5    0.73    0.44
 -11   2   6    0.00    0.43
 -11   2   7    2.46    0.68
 -11   2   8    0.82    0.33
 -11   2   9    0.19    0.33
 -11   2  10    0.42    0.34
 -11   2  11    2.19    0.36
 -11   2  12    0.42    0.35
 -11   3   1    4.36    0.45
 -11   3   2    0.43    0.41
 -11   3   3    0.40    0.41
 -11   3   4    0.93    0.41
 -11   3   5    0.28    0.43
 -11   3   6    1.49    0.44
 -11   3   7    0.37    0.43
 -11   3   8    8.27    0.46
 -11   3   9    0.17    0.34
 -11   3  10    1.76    0.35
 -11   3  11    0.02    0.34
 -11   4   1    0.00    0.40
 -11   4   2    3.18    0.42
 -11   4   3    0.10    0.42
 -11   4   4    0.73    0.43
 -11   4   5    1.79    0.43
 -11   4   6    0.21    0.43
 -11   4   7    0.57    0.44
 -11   4   8    0.38    0.44
 -11   4   9    2.69    0.51
 -11   4  10    0.23    0.34
 -11   4  11    0.88    0.34
 -11   5   1    0.01    0.38
 -11   5   2    0.18    0.41
 -11   5   3    0.27    0.41
 -11   5   4    0.58    0.42
 -11   5   5    1.02    0.44
 -11   5   6    0.55    0.43
 -11   5   7    0.01    0.43
 -11   5   8    2.29    0.48
 -11   5   9    1.24    0.48
 -11   5  10    0.10    0.46
 -11   6   1    0.14    0.40
 -11   6   2    1.39    0.43
 -11   6   3    0.01    0.41
 -11   6   4    1.59    0.45
 -11   6   5    0.16    0.43
 -11   6   6    1.96    0.47
 -11   6   7    2.23    0.47
 -11   6   8    0.09    0.45
 -11   6   9    1.69    0.49
 -11   6  10    1.28    0.49
 -11   7   1    0.57    0.41
 -11   7   2    0.01    0.41
 -11   7   3    0.01    0.42
 -11   7   4    0.85    0.43
 -11   7   5    1.31    0.45
 -11   7   6    0.37    0.43
 -11   7   7    0.19    0.45
 -11   7   8    0.31    0.46
 -11   7   9    0.51    0.46
 -11   8   1    0.13    0.40
 -11   8   2    7.60    0.53
 -11   8   3    0.13    0.42
 -11   8   4    2.98    0.48
 -11   8   5    1.19    0.45
 -11   8   6    0.30    0.46
 -11   8   7    4.23    0.51
 -11   8   8    0.38    0.45
 -11   9   1    0.27    0.43
 -11   9   2    0.19    0.42
 -11   9   3    0.10    0.41
 -11   9   4    1.27    0.45
 -11   9   5    4.63    0.51
 -11   9   6    1.35    0.47
 -11  10   1    0.01    0.41
 -11  10   2    1.79    0.46
 -11  10   3    0.01    0.43
 -11  10   4    0.00    0.43
 -11  10   5    0.00    0.44
 -11  11   1    2.72    0.47
 -11  11   2    1.40    0.45
 -10 -16   1    0.70    0.35
 -10 -16   2    1.13    0.35
 -10 -16   3    1.70    0.36
 -10 -15   1    0.02    0.37
 -10 -15   2    0.02    0.32
 -10 -15   3    4.38    0.38
 -10 -15   4    0.56    0.33
 -10 -15   5    3.15    0.37
 -10 -14   1    1.67    0.34
 -10 -14   2    0.00    0.36
 -10 -14   3    0.00    0.33
 -10 -14   4    2.09    0.53
 -10 -14   5    0.41    0.51
 -10 -14   6    1.80    0.35
 -10 -14   7    0.01    0.33
 -10 -13   1    1.32    0.33
 -10 -13   2    0.33    0.36
 -10 -13   3    1.90    0.35
 -10 -13   4    0.01    0.32
 -10 -13   5    0.75    0.34
 -10 -13   6    3.18    0.37
 -10 -13   7    0.79    0.34
 -10 -13   8    2.44    0.51
 -10 -12   1    0.24    0.31
 -10 -12   2    0.39    0.33
 -10 -12   3    0.85    0.36
 -10 -12   4    6.08    0.40
 -10 -12   5    0.23    0.32
 -10 -12   6    1.06    0.33
 -10 -12   7    0.37    0.51
 -10 -12   8    1.23    0.34
 -10 -12   9    1.67    0.34
 -10 -12  10    0.15    0.33
 -10 -11   1    0.01    0.30
 -10 -11   2    0.00    0.31
 -10 -11   3    0.00    0.31
 -10 -11   4    0.00    0.31
 -10 -11   5    0.73    0.32
 -10 -11   6    1.77    0.35
 -10 -11   7    6.80    0.41
 -10 -11   8    0.01    0.31
 -10 -11   9    0.37    0.33
 -10 -11  10    0.73    0.34
 -10 -11  11    0.35    0.33
 -10 -10   1    0.46    0.30
 -10 -10   2    3.17    0.34
 -10 -10   3    0.06    0.50
 -10 -10   4    3.26    0.35
 -10 -10   5    0.01    0.32
 -10 -10   6    0.08    0.32
 -10 -10   7    5.25    0.58
 -10 -10   8    1.12    0.33
 -10 -10   9    2.88    0.35
 -10 -10  10    0.02    0.32
 -10 -10  11    2.19    0.75
 -10  -9   1    1.17    0.30
 -10  -9   2    0.31    0.31
 -10  -9   3    2.11    0.34
 -10  -9   4    4.46    0.35
 -10  -9   5   13.25    0.79
 -10  -9   6    2.25    0.35
 -10  -9   7    5.80    0.38
 -10  -9   8    3.86    0.37
 -10  -9   9    0.56    0.32
 -10  -9  10    4.58    0.38
 -10  -9  11    0.34    0.49
 -10  -9  12    0.35    0.57
 -10  -8   1    1.32    0.50
 -10  -8   2    5.42    0.89
 -10  -8   3    0.09    0.30
 -10  -8   4    0.70    0.31
 -10  -8   5    6.17    0.63
 -10  -8   6    2.41    0.33
 -10  -8   7    3.72    0.37
 -10  -8   8    0.13    0.33
 -10  -8   9    0.40    0.32
 -10  -8  10    0.00    0.39
 -10  -8  11    0.13    0.33
 -10  -8  12    0.06    0.33
 -10  -8  13    0.00    0.32
 -10  -7   1    1.45    0.31
 -10  -7   2    0.01    0.29
 -10  -7   3    3.02    0.33
 -10  -7   4    0.49    0.30
 -10  -7   5    9.15    0.43
 -10  -7   6    3.19    0.33
 -10  -7   7    0.01    0.30
 -10  -7   8    4.94    0.45
 -10  -7   9    0.15    0.34
 -10  -7  10    0.84    0.33
 -10  -7  11    0.70    0.33
 -10  -7  12    0.25    0.33
 -10  -7  13    1.26    0.34
 -10  -6   1    0.03    0.28
 -10  -6   2    0.32    0.28
 -10  -6   3    0.17    0.29
 -10  -6   4    3.70    0.35
 -10  -6   5    0.12    0.36
 -10  -6   6    1.26    0.32
 -10  -6   7    0.00    0.31
 -10  -6   8    0.20    0.31
 -10  -6   9    0.57    0.41
 -10  -6  10    2.20    0.35
 -10  -6  11    2.69    0.36
 -10  -6  12    1.36    0.60
 -10  -6  13    0.00    0.40
 -10  -6  14    0.00    0.33
 -10  -5   1    1.94    0.29
 -10  -5   2    0.79    0.34
 -10  -5   3   10.80    0.50
 -10  -5   4    1.87    0.31
 -10  -5   5    0.52    0.30
 -10  -5   6    5.55    0.36
 -10  -5   7    0.41    0.31
 -10  -5   8    0.85    0.32
 -10  -5   9    1.34    0.33
 -10  -5  10    0.01    0.32
 -10  -5  11    1.07    0.34
 -10  -5  12    1.18    0.34
 -10  -5  13    0.73    0.34
 -10  -5  14    1.04    0.56
 -10  -4   1    1.11    0.27
 -10  -4   2    3.39    0.49
 -10  -4   3    0.24    0.28
 -10  -4   4    1.13    0.30
 -10  -4   5    1.28    0.31
 -10  -4   6    1.11    0.31
 -10  -4   7    0.30    0.38
 -10  -4   8    0.82    0.31
 -10  -4   9    2.32    0.34
 -10  -4  10    0.65    0.32
 -10  -4  11    2.54    0.44
 -10  -4  12    2.65    0.37
 -10  -4  13    1.14    0.34
 -10  -4  14    2.00    0.37
 -10  -3   1    3.46    0.30
 -10  -3   2    2.43    0.31
 -10  -3   3    3.89    0.33
 -10  -3   4    0.80    0.30
 -10  -3   5    0.85    0.30
 -10  -3   6    1.26    0.31
 -10  -3   7    0.18    0.39
 -10  -3   8    0.19    0.31
 -10  -3   9    3.60    0.36
 -10  -3  10    0.26    0.35
 -10  -3  11    1.27    0.60
 -10  -3  12    7.00    1.52
 -10  -3  13    0.70    0.51
 -10  -3  14    0.04    0.34
 -10  -3  15    0.02    0.35
 -10  -2   1    0.94    0.28
 -10  -2   2   18.31    0.51
 -10  -2   3    3.79    0.32
 -10  -2   4    0.13    0.29
 -10  -2   5    0.99    0.30
 -10  -2   6    0.55    0.31
 -10  -2   7    0.35    0.31
 -10  -2   8    1.22    0.33
 -10  -2   9    0.84    0.71
 -10  -2  10    0.66    0.33
 -10  -2  11    0.03    0.34
 -10  -2  12    5.26    0.53
 -10  -2  13    0.04    0.32
 -10  -2  14    1.83    0.36
 -10  -2  15    0.56    0.35
 -10  -1   1    1.26    0.25
 -10  -1   2    0.40    0.28
 -10  -1   3    0.30    0.28
 -10  -1   4    0.84    0.29
 -10  -1   5    0.04    0.57
 -10  -1   6    0.56    0.30
 -10  -1   7    0.00    0.41
 -10  -1   8    0.14    0.31
 -10  -1   9    4.39    0.36
 -10  -1  10    1.96    0.35
 -10  -1  11    0.15    0.32
 -10  -1  12    1.63    0.35
 -10  -1  13    0.60    0.34
 -10  -1  14    0.03    0.35
 -10  -1  15    4.40    0.66
 -10   0   1    2.79    0.26
 -10   0   2    0.07    0.27
 -10   0   3    0.49    0.36
 -10   0   4    0.05    0.27
 -10   0   5    1.45    0.40
 -10   0   6    0.68    0.31
 -10   0   7    0.15    0.31
 -10   0   8    2.52    0.38
 -10   0   9    1.36    0.32
 -10   0  10    6.46    0.41
 -10   0  11    0.68    0.33
 -10   0  12    2.56    0.66
 -10   0  13    1.11    0.36
 -10   0  14    0.15    0.34
 -10   0  15    2.26    0.37
 -10   1   1    0.36    0.23
 -10   1   2    3.04    0.34
 -10   1   3    0.13    0.27
 -10   1   4    2.16    0.31
 -10   1   5    4.01    0.33
 -10   1   6    0.06    0.29
 -10   1   7    2.74    0.60
 -10   1   8    0.52    0.31
 -10   1   9    0.03    0.31
 -10   1  10    3.29    0.39
 -10   1  11    5.59    0.40
 -10   1  12    0.49    0.40
 -10   1  13    0.87    0.35
 -10   1  14    0.05    0.33
 -10   1  15    3.37    0.56
 -10   2   1    0.68    0.31
 -10   2   2    0.37    0.24
 -10   2   3    0.09    0.26
 -10   2   4    0.24    0.62
 -10   2   5    0.23    0.29
 -10   2   6    0.83    0.30
 -10   2   7    0.14    0.91
 -10   2   8    0.02    0.60
 -10   2   9    0.88    0.32
 -10   2  10    2.55    0.36
 -10   2  11    0.92    0.39
 -10   2  12    3.70    0.42
 -10   2  13    0.06    0.33
 -10   2  14    2.27    0.50
 -10   2  15    0.01    0.35
 -10   3   1    6.45    0.45
 -10   3   2    0.26    0.40
 -10   3   3    2.60    0.42
 -10   3   4    0.07    0.28
 -10   3   5    0.39    0.28
 -10   3   6    4.12    0.98
 -10   3   7    0.04    0.30
 -10   3   8    2.24    0.33
 -10   3   9    0.95    0.32
 -10   3  10    0.67    0.33
 -10   3  11    3.32    0.39
 -10   3  12    0.02    0.39
 -10   3  13    1.26    0.35
 -10   3  14    0.25    0.35
 -10   4   1    0.55    0.35
 -10   4   2    4.62    0.37
 -10   4   3    4.47    0.48
 -10   4   4    2.77    0.44
 -10   4   5    0.07    0.41
 -10   4   6    0.04    0.69
 -10   4   7    0.06    0.30
 -10   4   8    0.22    0.30
 -10   4   9    4.65    0.42
 -10   4  10    0.73    0.33
 -10   4  11    1.98    0.36
 -10   4  12    0.85    0.35
 -10   4  13    0.07    0.68
 -10   4  14    8.62    0.51
 -10   5   1    4.86    0.37
 -10   5   2    8.73    0.71
 -10   5   3    1.56    0.42
 -10   5   4    5.50    0.51
 -10   5   5    1.60    0.43
 -10   5   6    0.01    0.41
 -10   5   7    2.51    0.32
 -10   5   8    1.49    0.33
 -10   5   9    5.43    0.37
 -10   5  10    0.66    0.33
 -10   5  11    4.85    0.40
 -10   5  12    0.16    0.40
 -10   5  13    0.04    0.34
 -10   5  14    0.71    1.03
 -10   6   1    0.00    0.31
 -10   6   2    5.43    0.62
 -10   6   3    1.40    0.41
 -10   6   4    0.07    0.39
 -10   6   5    0.59    0.41
 -10   6   6    0.38    0.42
 -10   6   7    1.68    0.45
 -10   6   8    0.10    0.31
 -10   6   9    0.20    0.31
 -10   6  10    0.02    0.33
 -10   6  11    1.03    1.00
 -10   6  12    2.64    0.36
 -10   6  13    0.02    0.35
 -10   7   1    0.04    0.32
 -10   7   2    1.11    0.33
 -10   7   3    0.09    0.40
 -10   7   4    9.70    0.61
 -10   7   5    0.39    0.42
 -10   7   6    0.01    0.41
 -10   7   7    0.05    0.43
 -10   7   8    1.03    0.44
 -10   7   9    0.26    0.45
 -10   7  10    0.05    0.32
 -10   7  11    4.62    0.38
 -10   7  12    0.17    0.34
 -10   7  13    0.02    0.35
 -10   8   1    1.17    0.32
 -10   8   2    2.93    0.62
 -10   8   3    5.60    0.51
 -10   8   4    0.73    0.42
 -10   8   5    1.45    0.44
 -10   8   6    0.04    0.42
 -10   8   7    3.23    0.49
 -10   8   8    0.01    0.42
 -10   8   9    3.20    0.49
 -10   8  10    1.70    0.48
 -10   8  11    0.03    0.45
 -10   8  12    1.61    0.49
 -10   9   1    3.71    0.41
 -10   9   2    0.68    0.33
 -10   9   3    3.62    0.47
 -10   9   4    0.44    0.43
 -10   9   5    1.52    0.45
 -10   9   6    5.28    0.52
 -10   9   7    4.39    0.52
 -10   9   8    0.79    0.45
 -10   9   9    0.76    0.45
 -10   9  10    0.07    0.46
 -10   9  11    0.01    0.45
 -10  10   1    0.86    0.67
 -10  10   2    0.51    0.42
 -10  10   3    4.97    0.49
 -10  10   4    0.04    0.40
 -10  10   5    0.24    0.42
 -10  10   6    4.13    0.51
 -10  10   7    0.08    0.45
 -10  10   8    0.95    0.47
 -10  10  10    1.89    0.48
 -10  11   1    0.72    0.35
 -10  11   2    0.00    0.41
 -10  11   3    0.00    0.42
 -10  11   4    9.73    0.64
 -10  11   5    0.21    0.44
 -10  11   6    5.32    0.53
 -10  11   7    0.11    0.44
 -10  11   8    0.52    0.46
 -10  12   1    0.42    0.37
 -10  12   2    0.77    0.43
 -10  12   3    0.36    0.44
 -10  12   4    0.96    0.44
 -10  12   6    0.01    0.44
 -10  12   7    0.98    0.45
 -10  13   1    0.47    0.42
 -10  13   2    0.00    0.42
 -10  13   4    1.15    0.47
  -9 -18   1    0.01    0.33
  -9 -18   2    2.43    0.36
  -9 -18   3    0.46    0.34
  -9 -17   1    0.02    0.38
  -9 -17   2    0.07    0.33
  -9 -17   3    2.91    0.36
  -9 -17   4    0.49    0.82
  -9 -17   5    1.53    0.35
  -9 -16   1    0.64    0.33
  -9 -16   2    0.38    0.32
  -9 -16   3    0.00    0.32
  -9 -16   4    0.08    0.32
  -9 -16   5    5.40    0.38
  -9 -16   6    0.45    0.34
  -9 -16   7    0.45    0.33
  -9 -15   1    0.43    0.32
  -9 -15   2    0.24    0.56
  -9 -15   3    2.36    0.35
  -9 -15   4    1.07    0.40
  -9 -15   5    0.74    0.33
  -9 -15   6    4.36    0.63
  -9 -15   7    0.20    0.50
  -9 -15   8    2.73    0.36
  -9 -15   9    1.17    0.51
  -9 -14   1    0.65    0.48
  -9 -14   2    1.99    0.34
  -9 -14   3    0.31    0.32
  -9 -14   4    4.21    0.36
  -9 -14   5    0.14    0.32
  -9 -14   6    0.04    0.32
  -9 -14   7    0.83    0.32
  -9 -14   8    0.92    0.33
  -9 -14   9    2.48    0.36
  -9 -14  10    0.23    0.49
  -9 -13   1    0.00    0.31
  -9 -13   2    0.00    0.30
  -9 -13   3    0.33    0.54
  -9 -13   4    1.68    0.33
  -9 -13   5    0.11    0.35
  -9 -13   6    5.19    0.46
  -9 -13   7    1.22    0.33
  -9 -13   8    0.63    0.33
  -9 -13   9    0.72    0.32
  -9 -13  10    0.02    0.32
  -9 -13  11    3.27    0.55
  -9 -12   1    0.08    0.30
  -9 -12   2    0.55    0.31
  -9 -12   3    1.04    0.32
  -9 -12   4    0.50    0.47
  -9 -12   5    1.55    0.33
  -9 -12   6    0.24    0.31
  -9 -12   7   14.74    0.62
  -9 -12   8    0.16    0.42
  -9 -12   9    3.78    0.37
  -9 -12  10    0.19    0.31
  -9 -12  11    1.44    0.33
  -9 -12  12    1.25    0.51
  -9 -11   1    0.09    0.30
  -9 -11   2    0.10    0.29
  -9 -11   3    0.05    0.30
  -9 -11   4    2.61    0.33
  -9 -11   5    0.11    0.31
  -9 -11   6    1.40    0.71
  -9 -11   7    0.02    0.31
  -9 -11   8    0.59    0.32
  -9 -11   9    1.40    0.32
  -9 -11  10    1.50    0.33
  -9 -11  11    0.96    0.33
  -9 -11  12    0.06    0.32
  -9 -11  13    0.36    0.50
  -9 -10   1    0.01    0.40
  -9 -10   2    0.25    0.62
  -9 -10   3    0.00    0.29
  -9 -10   4    0.79    0.31
  -9 -10   5    6.76    0.42
  -9 -10   6    1.50    0.32
  -9 -10   7   13.97    0.56
  -9 -10   8    5.39    0.57
  -9 -10   9    4.23    0.36
  -9 -10  10    5.27    0.38
  -9 -10  11    0.17    0.31
  -9 -10  12    2.06    0.34
  -9 -10  13    0.00    0.32
  -9 -10  14    2.18    0.53
  -9  -9   1    0.07    0.27
  -9  -9   2    0.14    0.28
  -9  -9   3    1.80    0.31
  -9  -9   4    0.55    0.38
  -9  -9   5    0.02    0.30
  -9  -9   6    8.66    0.46
  -9  -9   7    0.05    0.30
  -9  -9   8    8.96    0.46
  -9  -9   9    0.54    0.31
  -9  -9  10    1.03    0.32
  -9  -9  11    1.91    0.33
  -9  -9  12    0.11    0.32
  -9  -9  13    2.84    0.35
  -9  -9  14    0.73    0.36
  -9  -9  15    0.50    0.50
  -9  -8   1    0.44    0.28
  -9  -8   2    1.05    0.29
  -9  -8   3    2.04    0.53
  -9  -8   4    0.06    0.29
  -9  -8   5    3.91    0.34
  -9  -8   6    0.28    0.30
  -9  -8   7    0.15    0.30
  -9  -8   8    2.03    0.32
  -9  -8   9    0.00    0.30
  -9  -8  10    1.87    0.33
  -9  -8  11    0.11    0.31
  -9  -8  12    0.11    0.32
  -9  -8  13    0.62    0.60
  -9  -8  14    1.55    0.33
  -9  -8  15    1.31    0.34
  -9  -7   1    0.25    0.26
  -9  -7   2    0.10    0.27
  -9  -7   3    2.23    0.28
  -9  -7   4    2.16    0.30
  -9  -7   5    0.12    0.28
  -9  -7   6    0.18    0.29
  -9  -7   7    0.78    0.31
  -9  -7   8    1.43    0.32
  -9  -7   9    0.40    0.31
  -9  -7  10    0.71    0.48
  -9  -7  11    4.91    0.38
  -9  -7  12    0.58    0.32
  -9  -7  13    2.54    0.34
  -9  -7  14    1.17    0.34
  -9  -7  15    0.30    0.33
  -9  -7  16    0.11    0.50
  -9  -6   1    1.13    0.28
  -9  -6   2    3.31    0.33
  -9  -6   3    0.24    0.27
  -9  -6   4    1.04    0.29
  -9  -6   5    0.30    0.29
  -9  -6   6    0.80    0.29
  -9  -6   7    0.28    0.30
  -9  -6   8    1.21    0.31
  -9  -6   9    0.05    0.30
  -9  -6  10    0.07    0.30
  -9  -6  11    5.87    0.38
  -9  -6  12    0.51    0.37
  -9  -6  13    0.34    0.34
  -9  -6  14    3.34    0.36
  -9  -6  15    0.01    0.55
  -9  -6  16    2.74    0.39
  -9  -5   1    4.55    0.34
  -9  -5   2    0.30    0.26
  -9  -5   3    0.26    0.27
  -9  -5   4    0.32    0.28
  -9  -5   5    2.09    0.29
  -9  -5   6    0.29    0.28
  -9  -5   7    0.02    0.29
  -9  -5   8    0.57    0.30
  -9  -5   9    0.04    0.30
  -9  -5  10    1.55    0.32
  -9  -5  11   11.29    0.49
  -9  -5  12    0.07    0.31
  -9  -5  13    4.39    0.36
  -9  -5  14    0.90    0.34
  -9  -5  15    1.33    0.34
  -9  -5  16    6.23    0.40
  -9  -5  17    0.00    0.33
  -9  -4   1    0.00    0.22
  -9  -4   2    3.10    0.29
  -9  -4   3    0.04    0.43
  -9  -4   4    0.49    0.28
  -9  -4   5    5.44    0.75
  -9  -4   6    3.30    0.32
  -9  -4   7    9.96    0.62
  -9  -4   8    1.18    0.31
  -9  -4   9    1.86    0.32
  -9  -4  10    2.36    0.33
  -9  -4  11    1.24    0.32
  -9  -4  12   11.92    0.52
  -9  -4  13    0.66    0.32
  -9  -4  14    4.25    0.37
  -9  -4  15    2.35    0.36
  -9  -4  16    0.44    0.34
  -9  -4  17    6.22    0.41
  -9  -3   1    0.09    0.21
  -9  -3   2    0.39    0.28
  -9  -3   3    0.09    0.25
  -9  -3   4    0.26    0.43
  -9  -3   5    0.41    0.28
  -9  -3   6    2.25    0.30
  -9  -3   7    1.85    0.31
  -9  -3   8    6.37    0.36
  -9  -3   9    5.73    0.36
  -9  -3  10    0.97    0.31
  -9  -3  11    0.00    0.31
  -9  -3  12    0.51    0.32
  -9  -3  13    0.36    0.33
  -9  -3  14    1.04    0.39
  -9  -3  15    0.13    0.33
  -9  -3  16    0.01    0.33
  -9  -3  17    0.00    0.34
  -9  -2   1    1.87    0.23
  -9  -2   2    5.43    0.33
  -9  -2   3    0.05    0.26
  -9  -2   4    0.30    0.26
  -9  -2   5    3.23    0.31
  -9  -2   6    5.74    0.35
  -9  -2   7    4.63    0.48
  -9  -2   8    1.25    0.31
  -9  -2   9    1.05    0.35
  -9  -2  10    0.19    0.38
  -9  -2  11    4.64    0.63
  -9  -2  12    6.02    0.39
  -9  -2  13    0.12    0.33
  -9  -2  14    0.35    0.46
  -9  -2  15    1.87    0.36
  -9  -2  16    0.02    0.33
  -9  -2  17    0.29    0.34
  -9  -1   1    7.41    0.27
  -9  -1   2    0.41    0.43
  -9  -1   3    0.00    0.22
  -9  -1   4    0.30    0.26
  -9  -1   5    0.25    0.45
  -9  -1   6    0.54    0.29
  -9  -1   7    1.29    0.30
  -9  -1   8    5.80    0.38
  -9  -1   9    2.41    0.32
  -9  -1  10    0.08    0.31
  -9  -1  11    5.29    0.43
  -9  -1  12    0.03    0.32
  -9  -1  13    1.55    0.35
  -9  -1  14    0.55    0.35
  -9  -1  15    0.80    0.39
  -9  -1  16    0.15    0.34
  -9  -1  17    0.00    0.33
  -9   0   1    2.12    0.23
  -9   0   2    0.38    0.22
  -9   0   3    3.88    0.25
  -9   0   4    0.21    0.26
  -9   0   5    5.20    0.33
  -9   0   6    0.01    0.30
  -9   0   7    0.05    0.40
  -9   0   8    4.71    0.36
  -9   0   9    1.61    0.49
  -9   0  10    0.00    0.31
  -9   0  11    1.98    0.32
  -9   0  12    0.68    0.32
  -9   0  13    2.26    0.37
  -9   0  14    5.56    0.47
  -9   0  15    2.25    0.37
  -9   0  16    1.71    0.36
  -9   0  17    1.47    0.39
  -9   1   1   12.59    0.37
  -9   1   2    0.02    0.22
  -9   1   3    1.96    0.24
  -9   1   4   13.13    0.60
  -9   1   5    0.03    0.26
  -9   1   6   18.40    0.57
  -9   1   7    0.12    0.29
  -9   1   8    6.78    0.55
  -9   1   9    0.34    0.31
  -9   1  10    0.03    0.31
  -9   1  11   22.85    0.60
  -9   1  12    0.00    0.32
  -9   1  13    2.40    0.35
  -9   1  14    5.93    0.39
  -9   1  15    2.65    0.39
  -9   1  16    3.95    0.39
  -9   1  17    0.19    0.35
  -9   2   1    0.85    0.24
  -9   2   2    1.20    0.23
  -9   2   3    2.12    0.23
  -9   2   4    0.04    0.23
  -9   2   5    1.86    0.28
  -9   2   6    2.42    0.29
  -9   2   7    8.76    0.66
  -9   2   8    2.09    0.54
  -9   2   9    2.01    0.77
  -9   2  10    0.14    0.31
  -9   2  11    5.17    0.40
  -9   2  12    0.54    0.33
  -9   2  13    6.75    0.60
  -9   2  14    8.21    0.43
  -9   2  15    0.95    0.35
  -9   2  16    1.13    0.36
  -9   2  17    0.00    0.35
  -9   3   1    5.90    0.30
  -9   3   2    2.55    0.24
  -9   3   3    0.28    0.23
  -9   3   4   15.46    0.41
  -9   3   5    0.61    0.34
  -9   3   6    3.13    0.44
  -9   3   7    1.74    0.30
  -9   3   8    0.91    0.30
  -9   3   9    8.39    0.47
  -9   3  10    0.04    0.76
  -9   3  11   15.67    0.53
  -9   3  12    0.20    0.32
  -9   3  13    0.07    0.33
  -9   3  14    2.50    0.35
  -9   3  15    0.53    0.34
  -9   3  16    4.84    0.60
  -9   3  17    0.25    0.42
  -9   4   1    2.05    0.33
  -9   4   2    0.61    0.22
  -9   4   3    0.01    0.22
  -9   4   4    1.21    0.25
  -9   4   5    4.65    0.31
  -9   4   6    0.08    0.28
  -9   4   7    4.42    0.34
  -9   4   8    0.25    0.30
  -9   4   9    0.74    0.31
  -9   4  10    5.59    0.40
  -9   4  11    2.08    0.36
  -9   4  12    0.00    0.32
  -9   4  13    1.42    0.33
  -9   4  14    0.03    0.34
  -9   4  15    1.67    0.36
  -9   4  16    0.01    0.52
  -9   4  17    0.90    0.53
  -9   5   1    0.00    0.33
  -9   5   2    3.59    0.34
  -9   5   3    0.00    0.23
  -9   5   4    6.07    0.31
  -9   5   5    0.40    0.68
  -9   5   6    0.45    0.29
  -9   5   7    3.44    0.47
  -9   5   8    0.01    0.30
  -9   5   9    4.37    0.75
  -9   5  10    4.13    0.35
  -9   5  11    3.21    0.47
  -9   5  12    3.51    0.38
  -9   5  13    0.65    0.34
  -9   5  14    0.99    0.34
  -9   5  15    0.02    0.61
  -9   5  16    1.01    0.56
  -9   6   1    0.22    0.29
  -9   6   2    0.18    0.31
  -9   6   3    2.20    0.32
  -9   6   4    5.25    0.31
  -9   6   5    1.78    0.29
  -9   6   6    1.58    0.30
  -9   6   7    1.87    0.31
  -9   6   8    5.07    0.35
  -9   6   9    0.02    0.30
  -9   6  10    3.59    0.35
  -9   6  11    0.12    0.32
  -9   6  12    0.01    0.40
  -9   6  13    0.05    0.34
  -9   6  14    0.03    0.34
  -9   6  15    0.56    0.36
  -9   6  16    0.00    0.38
  -9   7   1    2.61    0.30
  -9   7   2    2.55    0.33
  -9   7   3    2.39    0.33
  -9   7   4    0.19    0.31
  -9   7   5    3.70    0.47
  -9   7   6    1.21    0.29
  -9   7   7    1.34    0.30
  -9   7   8    1.00    0.42
  -9   7   9    0.01    0.30
  -9   7  10    0.00    0.31
  -9   7  11    0.13    0.32
  -9   7  12    0.88    0.35
  -9   7  13    0.00    0.33
  -9   7  14    0.14    0.34
  -9   7  15    0.05    0.40
  -9   8   1    3.96    0.36
  -9   8   2    0.11    0.31
  -9   8   3    2.16    0.34
  -9   8   4    0.11    0.32
  -9   8   5    1.18    0.42
  -9   8   6    0.58    0.42
  -9   8   7    3.40    0.47
  -9   8   8    5.79    0.60
  -9   8   9    0.00    0.30
  -9   8  10    0.48    0.56
  -9   8  11    0.66    0.49
  -9   8  12    0.00    0.33
  -9   8  13    0.78    0.35
  -9   8  14    0.08    0.40
  -9   8  15    4.78    0.41
  -9   9   1    5.64    0.37
  -9   9   2    0.52    0.31
  -9   9   3    4.18    0.39
  -9   9   4    1.37    0.42
  -9   9   5    0.64    0.42
  -9   9   6    0.51    0.43
  -9   9   7    0.52    0.42
  -9   9   8    0.01    0.41
  -9   9   9    0.34    0.44
  -9   9  10    0.31    0.41
  -9   9  11    0.97    0.33
  -9   9  12    0.03    0.34
  -9   9  13    0.15    0.35
  -9   9  14    2.48    0.39
  -9  10   1    0.02    0.31
  -9  10   2    0.21    0.34
  -9  10   3    1.87    0.34
  -9  10   4    1.54    0.43
  -9  10   5    1.58    0.43
  -9  10   6    2.03    0.45
  -9  10   7    0.66    0.43
  -9  10   8    0.89    0.44
  -9  10   9    0.72    0.44
  -9  10  10    0.33    0.45
  -9  10  11    0.70    0.47
  -9  10  12    0.00    0.34
  -9  10  13    0.02    0.36
  -9  11   1    3.10    1.22
  -9  11   2    1.77    0.34
  -9  11   3    2.12    0.38
  -9  11   4    0.21    0.41
  -9  11   5    0.79    0.43
  -9  11   6    0.43    0.42
  -9  11   7    2.56    0.47
  -9  11   8    0.01    0.43
  -9  11   9    0.24    0.45
  -9  11  10    0.69    0.46
  -9  11  11    0.80    0.48
  -9  11  12    0.59    0.47
  -9  12   1    0.30    0.33
  -9  12   2    0.57    0.33
  -9  12   3    0.04    0.40
  -9  12   4    0.00    0.41
  -9  12   5    1.97    0.45
  -9  12   6    2.60    0.48
  -9  12   7    0.22    0.44
  -9  12   8    0.80    0.45
  -9  12   9    0.78    0.46
  -9  12  10    0.00    0.46
  -9  12  11    0.04    0.47
  -9  13   1    0.81    0.41
  -9  13   2    1.42    0.65
  -9  13   3    0.93    0.43
  -9  13   4    0.17    0.42
  -9  13   5    2.31    0.47
  -9  13   6    0.42    0.45
  -9  13   7    2.86    0.49
  -9  13   8    0.00    0.45
  -9  13   9    1.21    0.48
  -9  14   1    0.40    0.34
  -9  14   2    0.03    0.41
  -9  14   3    1.26    0.44
  -9  14   4    0.56    0.44
  -9  14   5    1.91    0.45
  -9  14   6    0.97    0.46
  -9  14   7    0.27    0.46
  -9  14   8    0.37    0.48
  -9  15   1    0.29    0.36
  -9  15   2    0.20    0.43
  -9  15   3    0.55    0.46
  -9  15   4    0.54    0.47
  -9  15   5    0.57    0.46
  -8 -19   1    0.03    0.34
  -8 -19   2    0.02    0.32
  -8 -19   3    0.48    0.32
  -8 -19   4    0.00    0.48
  -8 -18   1    0.70    0.33
  -8 -18   2    0.00    0.32
  -8 -18   3    0.59    0.32
  -8 -18   4    0.94    0.52
  -8 -18   5    0.14    0.31
  -8 -18   6    0.08    0.48
  -8 -17   1    0.68    0.32
  -8 -17   2    0.01    0.31
  -8 -17   3    1.35    0.32
  -8 -17   4    0.26    0.31
  -8 -17   5    0.04    0.41
  -8 -17   6    2.27    0.35
  -8 -17   7    0.48    0.49
  -8 -17   8    2.61    0.52
  -8 -16   1    0.57    0.31
  -8 -16   2    0.06    0.33
  -8 -16   3    0.02    0.30
  -8 -16   4    0.22    0.31
  -8 -16   5    0.01    0.30
  -8 -16   6    0.02    0.31
  -8 -16   7    1.20    0.33
  -8 -16   8    4.05    0.52
  -8 -16   9    1.34    0.50
  -8 -16  10    1.35    0.51
  -8 -15   1    0.91    0.31
  -8 -15   2    0.71    0.31
  -8 -15   3    0.39    0.31
  -8 -15   4    0.17    0.30
  -8 -15   5    0.01    0.30
  -8 -15   6    5.81    0.39
  -8 -15   7    0.55    0.32
  -8 -15   8    0.62    0.31
  -8 -15   9    2.85    0.53
  -8 -15  10    0.23    0.47
  -8 -15  11    2.79    0.52
  -8 -14   1    2.14    0.32
  -8 -14   2    2.38    0.34
  -8 -14   3    0.03    0.29
  -8 -14   4    0.00    0.30
  -8 -14   5    0.01    0.30
  -8 -14   6    2.51    0.33
  -8 -14   7    7.98    1.27
  -8 -14   8    0.35    0.31
  -8 -14   9    2.82    0.34
  -8 -14  10    0.37    0.48
  -8 -14  11    0.56    0.48
  -8 -14  12    0.90    0.48
  -8 -13   1    0.70    0.30
  -8 -13   2    2.64    0.34
  -8 -13   3    0.22    0.57
  -8 -13   4    2.21    0.31
  -8 -13   5    0.20    0.30
  -8 -13   6    0.04    0.30
  -8 -13   7    2.98    0.32
  -8 -13   8    0.46    0.30
  -8 -13   9    4.10    0.46
  -8 -13  10    0.33    0.30
  -8 -13  11    0.65    0.49
  -8 -13  12    0.35    0.48
  -8 -13  13    0.05    0.48
  -8 -12   1    2.80    0.47
  -8 -12   2    0.96    0.30
  -8 -12   3    2.11    0.41
  -8 -12   4    0.12    0.29
  -8 -12   5    6.26    0.36
  -8 -12   6    0.16    0.29
  -8 -12   7    1.44    0.30
  -8 -12   8    0.25    1.00
  -8 -12   9    0.00    0.30
  -8 -12  10    4.60    0.37
  -8 -12  11    1.81    0.32
  -8 -12  12    1.61    0.49
  -8 -12  13    0.01    0.46
  -8 -12  14    0.72    0.48
  -8 -11   1    0.23    0.28
  -8 -11   2    0.00    0.28
  -8 -11   3    0.66    0.29
  -8 -11   4    0.20    0.46
  -8 -11   5    1.47    0.30
  -8 -11   6    0.57    0.30
  -8 -11   7    0.23    0.43
  -8 -11   8    0.75    0.30
  -8 -11   9    0.72    0.31
  -8 -11  10    1.23    0.31
  -8 -11  11    0.03    0.30
  -8 -11  12    0.97    0.31
  -8 -11  13    0.57    0.48
  -8 -11  14    0.38    0.48
  -8 -11  15    0.57    0.48
  -8 -10   1    1.38    0.45
  -8 -10   2    7.64    0.38
  -8 -10   3    1.15    0.29
  -8 -10   4    2.00    0.31
  -8 -10   5   13.29    0.49
  -8 -10   6    2.97    0.43
  -8 -10   7    1.73    0.30
  -8 -10   8    0.95    0.31
  -8 -10   9    7.61    0.45
  -8 -10  10    0.89    0.29
  -8 -10  11    0.28    0.30
  -8 -10  12    1.71    0.33
  -8 -10  13    0.56    0.31
  -8 -10  14    0.58    0.48
  -8 -10  15    0.55    0.48
  -8 -10  16    2.06    0.49
  -8  -9   1   16.75    0.50
  -8  -9   2    0.04    0.26
  -8  -9   3    2.44    0.29
  -8  -9   4    1.08    0.28
  -8  -9   5    0.14    0.55
  -8  -9   6    0.87    0.29
  -8  -9   7    1.33    0.30
  -8  -9   8   23.51    0.60
  -8  -9   9    2.11    0.32
  -8  -9  10    0.02    0.29
  -8  -9  11    9.26    0.81
  -8  -9  12    0.56    0.53
  -8  -9  13   12.24    0.51
  -8  -9  14    0.12    0.30
  -8  -9  15    0.44    0.48
  -8  -9  16    2.31    0.51
  -8  -9  17    0.19    0.48
  -8  -8   1    2.52    0.27
  -8  -8   2    0.11    0.25
  -8  -8   3    2.94    0.29
  -8  -8   4    0.03    0.38
  -8  -8   5    0.80    0.29
  -8  -8   6    3.83    0.32
  -8  -8   7    0.07    0.28
  -8  -8   8    5.18    0.35
  -8  -8   9   10.57    0.48
  -8  -8  10    0.81    0.30
  -8  -8  11    0.00    0.42
  -8  -8  12    0.16    0.30
  -8  -8  13   10.34    0.54
  -8  -8  14    2.45    0.33
  -8  -8  15    5.26    0.56
  -8  -8  16    0.50    0.47
  -8  -8  17    0.44    0.49
  -8  -7   1    1.37    0.25
  -8  -7   2    1.20    0.25
  -8  -7   3    0.11    0.33
  -8  -7   4    0.80    0.26
  -8  -7   5    0.06    0.26
  -8  -7   6    0.05    0.28
  -8  -7   7    1.18    0.29
  -8  -7   8    2.48    0.29
  -8  -7   9    0.00    0.29
  -8  -7  10    0.02    0.29
  -8  -7  11    0.61    0.30
  -8  -7  12    0.03    0.30
  -8  -7  13    0.46    0.31
  -8  -7  14    4.65    0.35
  -8  -7  15    0.45    0.31
  -8  -7  16    3.52    0.55
  -8  -7  17    0.00    0.47
  -8  -7  18    0.13    0.50
  -8  -6   1    0.36    0.21
  -8  -6   2    3.26    0.35
  -8  -6   3    0.80    0.27
  -8  -6   4    2.15    0.27
  -8  -6   5    0.58    0.27
  -8  -6   6    1.35    0.28
  -8  -6   7    0.05    0.27
  -8  -6   8    0.98    0.43
  -8  -6   9    0.00    0.28
  -8  -6  10    2.65    0.31
  -8  -6  11    2.08    0.32
  -8  -6  12    0.00    0.29
  -8  -6  13    0.00    0.30
  -8  -6  14    0.46    0.31
  -8  -6  15    0.78    0.32
  -8  -6  16    0.00    0.32
  -8  -6  17    0.40    0.49
  -8  -6  18    0.03    0.47
  -8  -5   1    0.00    0.20
  -8  -5   2    9.51    0.34
  -8  -5   3    1.94    0.28
  -8  -5   4    2.36    0.26
  -8  -5   5    7.66    0.82
  -8  -5   6    2.05    0.30
  -8  -5   7    1.06    0.27
  -8  -5   8    1.94    0.30
  -8  -5   9    0.98    0.29
  -8  -5  10    5.29    0.34
  -8  -5  11    0.45    0.31
  -8  -5  12    1.04    0.32
  -8  -5  13    0.04    0.30
  -8  -5  14    8.55    0.54
  -8  -5  15    0.26    0.32
  -8  -5  16    2.48    0.71
  -8  -5  17    1.10    0.39
  -8  -5  18    0.02    0.48
  -8  -5  19    0.00    0.49
  -8  -4   1    0.28    0.20
  -8  -4   2    0.77    0.20
  -8  -4   3    0.55    0.21
  -8  -4   4    0.00    0.27
  -8  -4   5    0.99    0.25
  -8  -4   6    0.37    0.25
  -8  -4   7    2.00    0.29
  -8  -4   8    3.22    0.30
  -8  -4   9    0.07    0.27
  -8  -4  10    0.21    0.30
  -8  -4  11    4.13    0.36
  -8  -4  12    0.03    0.38
  -8  -4  13    0.31    0.53
  -8  -4  14    0.29    0.31
  -8  -4  15    7.05    0.39
  -8  -4  16    0.11    0.70
  -8  -4  17    5.06    0.38
  -8  -4  18    0.03    0.50
  -8  -4  19    1.00    0.52
  -8  -3   1    1.59    0.22
  -8  -3   2    0.87    0.21
  -8  -3   3    0.72    0.26
  -8  -3   4    0.29    0.30
  -8  -3   5    0.00    0.24
  -8  -3   6    2.84    0.50
  -8  -3   7    0.04    0.26
  -8  -3   8    3.32    0.33
  -8  -3   9    0.19    0.28
  -8  -3  10    1.67    0.31
  -8  -3  11    1.24    0.32
  -8  -3  12    3.68    0.36
  -8  -3  13    0.29    0.30
  -8  -3  14    5.74    0.36
  -8  -3  15    0.10    0.46
  -8  -3  16    1.62    0.33
  -8  -3  17    3.18    0.54
  -8  -3  18    1.08    0.67
  -8  -3  19    3.21    0.55
  -8  -2   1   19.24    0.39
  -8  -2   2    0.04    0.19
  -8  -2   3    6.17    0.29
  -8  -2   4    0.43    0.28
  -8  -2   5    0.80    0.24
  -8  -2   6    2.94    0.29
  -8  -2   7    0.08    0.26
  -8  -2   8    4.91    0.30
  -8  -2   9    1.75    0.30
  -8  -2  10    4.62    0.37
  -8  -2  11   10.60    0.44
  -8  -2  12    4.79    0.33
  -8  -2  13   21.99    0.72
  -8  -2  14    0.22    0.55
  -8  -2  15   19.15    0.57
  -8  -2  16    0.59    0.33
  -8  -2  17    5.32    0.70
  -8  -2  18    1.46    0.53
  -8  -2  19    0.02    0.50
  -8  -1   1    0.81    0.19
  -8  -1   2    1.07    0.20
  -8  -1   3    2.45    0.22
  -8  -1   4    7.63    0.35
  -8  -1   5    5.03    0.27
  -8  -1   6   17.62    0.47
  -8  -1   7    2.59    0.30
  -8  -1   8    0.48    0.31
  -8  -1   9    4.42    0.57
  -8  -1  10    2.20    0.30
  -8  -1  11    4.96    0.57
  -8  -1  12    1.15    0.33
  -8  -1  13    6.68    0.39
  -8  -1  14    1.05    0.33
  -8  -1  15    0.12    0.51
  -8  -1  16    7.81    0.41
  -8  -1  17    0.02    0.45
  -8  -1  18    1.72    0.49
  -8  -1  19    0.49    0.73
  -8   0   1    7.16    0.45
  -8   0   2    3.71    0.23
  -8   0   3   14.65    0.42
  -8   0   4    4.01    0.23
  -8   0   5    0.67    0.25
  -8   0   6   20.58    0.77
  -8   0   7    1.95    0.27
  -8   0   8    3.80    0.59
  -8   0   9    0.67    0.28
  -8   0  10    0.19    0.29
  -8   0  11    3.06    0.48
  -8   0  12    2.13    0.32
  -8   0  13    2.33    0.36
  -8   0  14    0.99    0.32
  -8   0  15    0.41    0.32
  -8   0  16    0.00    0.32
  -8   0  17    0.00    0.33
  -8   0  18    3.03    0.38
  -8   0  19    0.94    0.35
  -8   1   1    6.82    0.28
  -8   1   2   26.81    0.48
  -8   1   3    1.97    0.23
  -8   1   4    6.59    0.31
  -8   1   5    0.87    0.26
  -8   1   6    1.74    0.26
  -8   1   7    0.97    0.29
  -8   1   8    1.54    0.28
  -8   1   9    8.14    0.34
  -8   1  10    0.11    0.91
  -8   1  11    0.28    0.30
  -8   1  12    1.47    0.31
  -8   1  13    0.95    0.32
  -8   1  14    1.20    0.33
  -8   1  15    0.07    0.32
  -8   1  16    6.00    0.40
  -8   1  17    1.54    0.38
  -8   1  18    0.25    0.87
  -8   1  19    0.89    0.35
  -8   2   1    0.05    0.18
  -8   2   2    0.03    0.19
  -8   2   3    8.72    0.32
  -8   2   4    3.15    0.23
  -8   2   5    0.06    0.21
  -8   2   6   17.41    0.49
  -8   2   7    0.49    0.28
  -8   2   8    0.01    0.28
  -8   2   9    1.90    0.32
  -8   2  10    0.02    0.29
  -8   2  11    0.00    0.37
  -8   2  12    0.25    0.36
  -8   2  13    4.40    0.38
  -8   2  14    1.32    0.33
  -8   2  15    0.04    0.53
  -8   2  16    1.60    0.52
  -8   2  17    0.14    0.33
  -8   2  18    0.00    0.34
  -8   2  19    0.48    0.35
  -8   3   1    0.00    0.18
  -8   3   2   18.74    0.43
  -8   3   3    0.01    0.20
  -8   3   4    8.24    0.34
  -8   3   5   11.18    0.34
  -8   3   6    0.53    0.23
  -8   3   7    3.32    0.75
  -8   3   8    0.30    0.27
  -8   3   9    8.75    0.36
  -8   3  10    1.67    0.30
  -8   3  11    1.11    0.32
  -8   3  12    0.00    0.31
  -8   3  13    2.27    0.33
  -8   3  14    2.26    0.39
  -8   3  15    0.00    0.32
  -8   3  16    4.29    0.38
  -8   3  17    0.43    0.34
  -8   3  18    0.64    0.35
  -8   3  19    1.85    0.58
  -8   4   1    1.47    0.19
  -8   4   2    0.02    0.34
  -8   4   3    0.79    0.21
  -8   4   4    2.69    0.22
  -8   4   5    0.59    0.22
  -8   4   6    1.15    0.43
  -8   4   7    0.34    0.27
  -8   4   8    5.79    0.40
  -8   4   9    0.48    0.29
  -8   4  10   12.37    0.50
  -8   4  11    1.70    0.33
  -8   4  12    0.02    0.38
  -8   4  13   13.15    0.52
  -8   4  14    0.57    0.51
  -8   4  15    3.78    0.38
  -8   4  16    0.28    0.34
  -8   4  17    1.36    0.36
  -8   4  18    1.78    0.60
  -8   4  19    0.16    0.35
  -8   5   1    4.62    0.29
  -8   5   2    1.74    0.21
  -8   5   3    0.10    0.20
  -8   5   4    0.07    0.21
  -8   5   5    2.28    0.23
  -8   5   6    0.72    0.24
  -8   5   7    5.70    0.41
  -8   5   8    0.03    0.28
  -8   5   9    0.34    0.29
  -8   5  10    9.95    0.46
  -8   5  11    2.74    0.34
  -8   5  12    1.03    0.32
  -8   5  13    4.18    0.37
  -8   5  14    0.01    0.31
  -8   5  15    3.96    0.37
  -8   5  16    1.32    0.35
  -8   5  17    0.52    0.43
  -8   5  18    1.34    0.37
  -8   5  19    0.49    0.77
  -8   6   1    1.25    0.20
  -8   6   2    0.10    0.26
  -8   6   3    2.23    0.23
  -8   6   4    0.73    0.22
  -8   6   5    6.01    0.28
  -8   6   6   12.57    0.38
  -8   6   7    0.34    0.27
  -8   6   8    9.77    0.45
  -8   6   9    0.00    0.30
  -8   6  10    1.49    0.48
  -8   6  11    0.16    0.31
  -8   6  12    0.60    0.33
  -8   6  13    0.78    0.39
  -8   6  14    0.05    0.33
  -8   6  15    1.93    0.41
  -8   6  16    1.27    0.55
  -8   6  17    1.16    0.36
  -8   6  18    6.42    0.43
  -8   7   1    0.41    0.28
  -8   7   2    0.01    0.27
  -8   7   3    0.18    0.21
  -8   7   4    0.76    0.23
  -8   7   5    1.78    0.25
  -8   7   6    0.02    0.33
  -8   7   7    0.00    0.27
  -8   7   8    0.00    0.31
  -8   7   9    3.04    0.42
  -8   7  10    3.57    0.35
  -8   7  11    0.21    0.32
  -8   7  12    3.96    0.35
  -8   7  13    0.11    0.33
  -8   7  14    0.00    0.33
  -8   7  15    0.11    0.34
  -8   7  16    5.02    0.40
  -8   7  17    0.12    0.62
  -8   7  18    2.12    0.39
  -8   8   1    3.71    0.51
  -8   8   2    0.03    0.29
  -8   8   3    1.03    0.31
  -8   8   4    0.20    0.23
  -8   8   5    0.40    0.49
  -8   8   6    9.05    0.41
  -8   8   7    0.31    0.28
  -8   8   8   10.36    0.71
  -8   8   9    5.01    0.35
  -8   8  10    1.64    0.36
  -8   8  11    1.39    0.33
  -8   8  12    1.22    0.33
  -8   8  13    1.13    0.34
  -8   8  14    0.50    0.34
  -8   8  15    0.83    0.35
  -8   8  16    0.35    0.35
  -8   8  17    0.51    0.36
  -8   9   1    2.06    0.30
  -8   9   2    1.05    0.30
  -8   9   3    0.78    0.31
  -8   9   4    0.29    0.31
  -8   9   5    0.73    0.36
  -8   9   6    0.78    0.32
  -8   9   7    6.74    0.36
  -8   9   8    1.25    0.30
  -8   9   9    3.73    0.49
  -8   9  10    0.37    0.31
  -8   9  11    1.08    0.32
  -8   9  12    0.01    0.32
  -8   9  13    0.03    0.42
  -8   9  14    9.21    0.51
  -8   9  15    0.00    0.89
  -8   9  16    2.55    0.38
  -8   9  17    0.47    0.36
  -8  10   1    0.03    0.30
  -8  10   2    0.51    0.30
  -8  10   3    0.01    0.31
  -8  10   4    1.96    0.35
  -8  10   5    1.04    0.33
  -8  10   6    0.50    0.41
  -8  10   7    0.89    0.42
  -8  10   8    0.08    0.29
  -8  10   9    2.10    0.35
  -8  10  10    1.33    0.32
  -8  10  11    1.81    0.34
  -8  10  12    0.00    0.32
  -8  10  13    0.27    0.34
  -8  10  14    1.61    0.36
  -8  10  15    0.72    0.38
  -8  10  16    3.94    0.40
  -8  11   1    0.14    0.30
  -8  11   2    5.40    0.37
  -8  11   3    1.47    0.38
  -8  11   4    0.01    0.32
  -8  11   5    0.21    0.41
  -8  11   6    0.39    0.40
  -8  11   7    2.01    0.45
  -8  11   8    0.02    0.42
  -8  11   9    0.89    0.45
  -8  11  10    0.31    0.61
  -8  11  11    0.02    0.32
  -8  11  12    1.97    0.41
  -8  11  13    0.31    0.66
  -8  11  14    5.18    0.42
  -8  11  15    0.71    0.36
  -8  12   1    1.07    0.54
  -8  12   2    1.14    0.61
  -8  12   3    2.60    0.61
  -8  12   4    7.36    0.48
  -8  12   5    1.70    0.43
  -8  12   6    0.38    0.42
  -8  12   7    2.04    0.46
  -8  12   8    3.49    0.49
  -8  12   9    1.11    0.45
  -8  12  10    0.69    0.45
  -8  12  11    0.49    0.47
  -8  12  12    0.04    0.32
  -8  12  13    0.39    0.35
  -8  12  14    1.66    0.37
  -8  13   1    1.67    0.35
  -8  13   2    4.17    0.36
  -8  13   3    2.10    1.22
  -8  13   4    0.01    0.41
  -8  13   5    3.28    0.47
  -8  13   6    0.00    0.42
  -8  13   7    0.00    0.43
  -8  13   8    0.14    0.45
  -8  13   9    1.24    0.47
  -8  13  10    0.00    0.46
  -8  13  11    0.20    0.46
  -8  13  12    2.93    0.52
  -8  13  13    0.00    0.49
  -8  14   1    3.71    0.38
  -8  14   2    0.11    0.34
  -8  14   3    1.74    0.36
  -8  14   4    0.00    0.42
  -8  14   5    1.49    0.44
  -8  14   6    1.97    0.47
  -8  14   7    0.00    0.44
  -8  14   8    0.47    0.46
  -8  14   9    0.00    0.45
  -8  14  10    0.12    0.47
  -8  14  11    1.10    0.50
  -8  15   1    6.26    0.52
  -8  15   2    2.59    0.36
  -8  15   3   11.49    0.67
  -8  15   4    0.50    0.43
  -8  15   5    0.51    0.45
  -8  15   6    0.07    0.45
  -8  15   7    0.00    0.46
  -8  15   8    0.61    0.46
  -8  15   9    0.00    0.46
  -8  15  10    0.13    0.47
  -8  16   1    1.45    0.49
  -8  16   2    0.14    0.43
  -8  16   3    0.10    0.44
  -8  16   4    3.60    0.50
  -8  16   5    0.28    0.46
  -8  16   6    2.51    0.50
  -8  16   7    0.60    0.48
  -8  17   1    1.76    0.43
  -8  17   2    0.60    0.46
  -8  17   3    1.54    0.48
  -8  17   4    0.02    0.45
  -7 -21   1    0.53    0.50
  -7 -20   1    0.28    0.32
  -7 -20   2    0.23    0.49
  -7 -20   3    0.60    0.49
  -7 -20   4    1.85    0.51
  -7 -19   1    1.39    0.33
  -7 -19   2    0.15    0.33
  -7 -19   3    1.49    0.90
  -7 -19   4    1.96    0.52
  -7 -19   5    0.37    0.47
  -7 -19   6    0.01    0.47
  -7 -19   7    0.91    0.49
  -7 -18   1    8.09    0.40
  -7 -18   2    1.17    0.35
  -7 -18   3    0.01    0.31
  -7 -18   4    1.17    0.32
  -7 -18   5    0.04    0.46
  -7 -18   6    0.74    0.47
  -7 -18   7    1.18    0.48
  -7 -18   8    7.31    0.62
  -7 -18   9    0.45    0.48
  -7 -17   1    1.51    0.38
  -7 -17   2    0.10    0.30
  -7 -17   3    0.00    0.29
  -7 -17   4    0.98    0.31
  -7 -17   5    0.00    0.29
  -7 -17   6    6.61    0.58
  -7 -17   7    1.47    0.48
  -7 -17   8    0.04    0.47
  -7 -17   9    0.70    0.48
  -7 -17  10    0.04    0.47
  -7 -17  11    2.76    0.53
  -7 -16   1    3.43    0.33
  -7 -16   2    2.45    0.32
  -7 -16   3    0.03    0.28
  -7 -16   4    0.85    0.30
  -7 -16   5    0.64    0.30
  -7 -16   6    0.35    0.29
  -7 -16   7    0.88    0.30
  -7 -16   8    5.56    0.56
  -7 -16   9    0.72    0.46
  -7 -16  10    0.58    0.48
  -7 -16  11    0.71    0.47
  -7 -16  12    0.95    0.50
  -7 -15   1    3.77    0.38
  -7 -15   2   13.61    0.47
  -7 -15   3    2.81    0.50
  -7 -15   4    0.01    0.29
  -7 -15   5    2.39    0.61
  -7 -15   6    0.61    0.34
  -7 -15   7    1.59    0.58
  -7 -15   8    0.34    0.29
  -7 -15   9    3.10    0.50
  -7 -15  10    0.65    0.45
  -7 -15  11    1.26    0.50
  -7 -15  12    2.72    0.52
  -7 -15  13    1.97    0.50
  -7 -14   1    0.62    0.29
  -7 -14   2    0.01    0.28
  -7 -14   3    1.94    0.31
  -7 -14   4    1.15    0.30
  -7 -14   5    6.66    0.38
  -7 -14   6    0.02    0.30
  -7 -14   7    0.10    0.29
  -7 -14   8    0.50    0.29
  -7 -14   9    0.01    0.57
  -7 -14  10    0.32    0.46
  -7 -14  11    0.67    0.47
  -7 -14  12    0.99    0.47
  -7 -14  13    0.81    0.47
  -7 -14  14    0.00    0.46
  -7 -13   1    0.36    0.27
  -7 -13   2    8.60    0.59
  -7 -13   3    0.33    0.45
  -7 -13   4    0.22    0.57
  -7 -13   5    1.41    0.40
  -7 -13   6    9.08    0.42
  -7 -13   7    1.04    0.29
  -7 -13   8    0.57    0.29
  -7 -13   9    0.69    0.30
  -7 -13  10    4.26    0.34
  -7 -13  11    2.69    0.48
  -7 -13  12    4.87    0.54
  -7 -13  13    0.00    0.46
  -7 -13  14    4.27    0.55
  -7 -13  15    0.39    0.48
  -7 -12   1   12.50    0.47
  -7 -12   2    0.73    0.27
  -7 -12   3    3.79    0.30
  -7 -12   4    0.76    0.28
  -7 -12   5    0.27    0.28
  -7 -12   6    4.53    0.32
  -7 -12   7    0.79    0.45
  -7 -12   8   14.91    0.51
  -7 -12   9    1.06    0.29
  -7 -12  10   14.93    0.52
  -7 -12  11   10.28    0.45
  -7 -12  12    1.02    0.46
  -7 -12  13    6.45    0.57
  -7 -12  14    0.05    0.46
  -7 -12  15    5.85    0.56
  -7 -12  16    0.60    0.48
  -7 -11   1    6.89    0.36
  -7 -11   2    0.26    0.27
  -7 -11   3    0.03    0.49
  -7 -11   4    0.42    0.27
  -7 -11   5    0.03    0.34
  -7 -11   6    0.33    0.28
  -7 -11   7    0.61    0.28
  -7 -11   8    1.26    0.28
  -7 -11   9    0.51    0.29
  -7 -11  10    0.88    0.30
  -7 -11  11    1.00    0.29
  -7 -11  12    1.28    0.30
  -7 -11  13    0.06    0.44
  -7 -11  14    0.01    0.46
  -7 -11  15    0.57    0.46
  -7 -11  16    1.67    0.49
  -7 -11  17    0.96    0.49
  -7 -10   1   18.78    0.54
  -7 -10   2    0.06    0.24
  -7 -10   3    3.19    0.28
  -7 -10   4    0.06    0.26
  -7 -10   5    1.20    0.26
  -7 -10   6    0.48    0.27
  -7 -10   7    5.39    0.40
  -7 -10   8    0.12    0.27
  -7 -10   9    0.13    0.27
  -7 -10  10    1.03    0.30
  -7 -10  11    1.40    0.44
  -7 -10  12    0.16    0.28
  -7 -10  13    0.80    0.29
  -7 -10  14    0.01    0.45
  -7 -10  15    1.94    0.49
  -7 -10  16    4.12    0.51
  -7 -10  17    1.37    0.50
  -7 -10  18    0.34    0.48
  -7  -9   1    0.16    0.23
  -7  -9   2    3.35    0.28
  -7  -9   3    4.40    0.46
  -7  -9   4    3.13    0.29
  -7  -9   5    0.02    0.25
  -7  -9   6    0.50    0.25
  -7  -9   7    0.30    0.27
  -7  -9   8    0.27    0.27
  -7  -9   9    8.17    0.45
  -7  -9  10    0.33    0.39
  -7  -9  11    0.21    0.27
  -7  -9  12    0.01    0.28
  -7  -9  13    2.81    0.45
  -7  -9  14    1.39    0.46
  -7  -9  15    0.11    0.45
  -7  -9  16    5.72    0.55
  -7  -9  17    2.03    0.48
  -7  -9  18    1.85    0.49
  -7  -8   1   12.85    0.40
  -7  -8   2    4.23    0.27
  -7  -8   3    0.77    0.24
  -7  -8   4    2.98    0.28
  -7  -8   5    0.00    0.47
  -7  -8   6    0.03    0.25
  -7  -8   7    4.06    0.28
  -7  -8   8    0.06    0.26
  -7  -8   9    0.54    0.27
  -7  -8  10    3.18    0.29
  -7  -8  11    0.70    0.28
  -7  -8  12    0.17    0.34
  -7  -8  13    0.15    0.28
  -7  -8  14    0.04    0.29
  -7  -8  15    0.36    0.45
  -7  -8  16    1.87    0.49
  -7  -8  17    0.68    0.48
  -7  -8  18    0.61    0.48
  -7  -8  19    0.26    0.48
  -7  -7   1    0.55    0.24
  -7  -7   2    7.53    0.32
  -7  -7   3    1.11    0.21
  -7  -7   4    1.74    0.39
  -7  -7   5    0.44    0.25
  -7  -7   6    0.03    0.25
  -7  -7   7    1.90    0.29
  -7  -7   8    0.66    0.26
  -7  -7   9    2.80    0.31
  -7  -7  10    3.12    0.67
  -7  -7  11    9.97    0.36
  -7  -7  12    3.55    0.31
  -7  -7  13    0.06    0.28
  -7  -7  14   15.67    0.55
  -7  -7  15    1.79    0.47
  -7  -7  16    0.03    0.45
  -7  -7  17    2.60    0.49
  -7  -7  18    0.27    0.46
  -7  -7  19    7.70    0.59
  -7  -6   1    2.27    0.21
  -7  -6   2    0.00    0.19
  -7  -6   3    0.03    0.22
  -7  -6   4    0.70    0.21
  -7  -6   5    0.37    0.23
  -7  -6   6    0.32    0.28
  -7  -6   7    1.84    0.58
  -7  -6   8    1.68    0.27
  -7  -6   9    0.88    0.26
  -7  -6  10    0.05    0.36
  -7  -6  11    1.44    0.28
  -7  -6  12    0.19    0.27
  -7  -6  13    3.31    0.31
  -7  -6  14    0.89    0.35
  -7  -6  15    9.42    0.56
  -7  -6  16    0.00    0.31
  -7  -6  17    5.89    0.54
  -7  -6  18    0.49    0.48
  -7  -6  19    0.00    0.46
  -7  -6  20    1.71    0.52
  -7  -5   1    2.53    0.21
  -7  -5   2    6.65    0.34
  -7  -5   3    4.08    0.23
  -7  -5   4    0.28    0.29
  -7  -5   5    1.31    0.21
  -7  -5   6    3.74    0.29
  -7  -5   7   12.49    0.43
  -7  -5   8    9.28    0.83
  -7  -5   9   11.20    0.38
  -7  -5  10   17.75    0.54
  -7  -5  11    1.76    0.30
  -7  -5  12    9.14    0.38
  -7  -5  13    0.14    0.29
  -7  -5  14    1.32    0.46
  -7  -5  15    0.41    0.31
  -7  -5  16    0.23    0.48
  -7  -5  17    3.93    0.66
  -7  -5  18    1.16    0.48
  -7  -5  19    0.00    0.47
  -7  -5  20    0.00    0.47
  -7  -4   1   15.36    0.41
  -7  -4   2    0.72    0.19
  -7  -4   3    2.91    0.26
  -7  -4   4    2.32    0.26
  -7  -4   5    0.70    0.21
  -7  -4   6   10.59    0.49
  -7  -4   7    2.81    0.30
  -7  -4   8   35.96    1.06
  -7  -4   9    0.02    0.28
  -7  -4  10    5.06    0.30
  -7  -4  11    5.31    0.37
  -7  -4  12    3.19    0.33
  -7  -4  13    3.96    0.31
  -7  -4  14    0.06    0.28
  -7  -4  15    9.08    0.54
  -7  -4  16    0.00    0.30
  -7  -4  17    0.02    0.36
  -7  -4  18    1.13    0.48
  -7  -4  19    0.03    0.47
  -7  -4  20    5.36    0.59
  -7  -3   1    0.70    0.21
  -7  -3   2    0.52    0.19
  -7  -3   3    2.02    0.21
  -7  -3   4    3.03    0.25
  -7  -3   5   10.10    0.40
  -7  -3   6    0.43    0.21
  -7  -3   7    0.26    0.24
  -7  -3   8    2.27    0.27
  -7  -3   9    0.06    0.26
  -7  -3  10   12.27    0.46
  -7  -3  11    0.01    0.26
  -7  -3  12   17.33    0.48
  -7  -3  13    0.24    0.35
  -7  -3  14    0.18    0.29
  -7  -3  15    0.00    0.29
  -7  -3  16    0.80    0.32
  -7  -3  17    2.02    0.57
  -7  -3  18    0.00    0.30
  -7  -3  19    0.66    0.49
  -7  -3  20    0.20    0.49
  -7  -3  21    0.77    0.51
  -7  -2   1   17.12    0.41
  -7  -2   2    0.38    0.19
  -7  -2   3   22.49    0.40
  -7  -2   4    0.25    0.24
  -7  -2   5    0.62    0.24
  -7  -2   6   21.28    0.41
  -7  -2   7    0.02    0.24
  -7  -2   8   24.65    0.65
  -7  -2   9    0.00    0.29
  -7  -2  10    0.87    0.26
  -7  -2  11   11.00    0.48
  -7  -2  12    0.88    0.29
  -7  -2  13    0.02    0.29
  -7  -2  14    0.72    0.30
  -7  -2  15    2.83    0.34
  -7  -2  16    5.35    0.36
  -7  -2  17    1.68    0.32
  -7  -2  18    6.22    0.40
  -7  -2  19    0.09    0.48
  -7  -2  20    1.97    0.52
  -7  -2  21    0.36    0.50
  -7  -1   1    6.38    0.43
  -7  -1   2   16.83    0.46
  -7  -1   3    1.88    0.22
  -7  -1   4   10.73    0.30
  -7  -1   5    2.33    0.21
  -7  -1   6    0.05    0.20
  -7  -1   7    1.18    0.21
  -7  -1   8    2.74    0.53
  -7  -1   9    8.18    0.43
  -7  -1  10    0.09    0.26
  -7  -1  11    4.56    0.32
  -7  -1  12    0.01    0.28
  -7  -1  13    1.23    0.31
  -7  -1  14    0.10    0.30
  -7  -1  15    3.76    0.38
  -7  -1  16    0.03    0.30
  -7  -1  17    0.63    0.48
  -7  -1  18    0.11    0.32
  -7  -1  19    1.44    0.34
  -7  -1  20    0.16    0.49
  -7  -1  21    0.47    0.50
  -7   0   1    4.28    0.33
  -7   0   2   24.12    0.41
  -7   0   3    6.36    0.25
  -7   0   4    6.28    0.30
  -7   0   5    1.13    0.19
  -7   0   6    6.43    0.24
  -7   0   7    0.01    0.20
  -7   0   8    0.27    0.49
  -7   0   9    3.49    0.28
  -7   0  10    2.39    0.30
  -7   0  11    8.96    0.43
  -7   0  12    0.06    0.28
  -7   0  13    4.84    0.33
  -7   0  14    0.18    0.50
  -7   0  15    0.40    0.31
  -7   0  16    0.01    0.31
  -7   0  17    0.90    0.32
  -7   0  18    1.25    0.33
  -7   0  19    0.76    0.32
  -7   0  20    0.21    0.33
  -7   0  21    0.40    0.51
  -7   1   1    0.80    0.20
  -7   1   2   42.11    0.72
  -7   1   3    1.43    0.20
  -7   1   4    0.53    0.20
  -7   1   5    0.96    0.21
  -7   1   6    2.86    0.30
  -7   1   7    0.00    0.21
  -7   1   8    0.02    0.24
  -7   1   9    1.64    0.29
  -7   1  10    5.26    0.31
  -7   1  11    2.04    0.29
  -7   1  12   23.66    0.65
  -7   1  13    1.95    0.31
  -7   1  14    0.43    0.30
  -7   1  15    0.29    0.32
  -7   1  16    0.32    0.31
  -7   1  17    0.29    0.32
  -7   1  18    0.86    0.45
  -7   1  19    3.84    0.37
  -7   1  20    0.05    0.34
  -7   1  21    0.07    0.50
  -7   2   1    8.32    0.35
  -7   2   2    4.44    0.21
  -7   2   3    0.95    0.19
  -7   2   4    0.81    0.29
  -7   2   5    1.42    0.20
  -7   2   6    0.11    0.20
  -7   2   7    1.55    0.22
  -7   2   8    5.12    0.41
  -7   2   9   10.79    0.70
  -7   2  10    0.93    0.28
  -7   2  11    3.86    0.31
  -7   2  12    2.20    0.31
  -7   2  13    0.58    0.46
  -7   2  14    0.01    0.30
  -7   2  15    1.14    0.31
  -7   2  16    0.19    0.31
  -7   2  17    0.59    0.32
  -7   2  18    0.00    0.32
  -7   2  19    1.24    0.34
  -7   2  20    0.00    0.33
  -7   2  21    1.41    0.56
  -7   3   1   17.49    0.43
  -7   3   2   18.65    0.42
  -7   3   3   16.55    0.38
  -7   3   4    1.29    0.20
  -7   3   5    0.07    0.26
  -7   3   6    0.92    0.21
  -7   3   7    0.99    0.21
  -7   3   8    1.17    0.41
  -7   3   9    0.09    0.26
  -7   3  10    5.01    0.32
  -7   3  11    0.72    0.28
  -7   3  12   12.71    0.50
  -7   3  13    1.87    0.32
  -7   3  14    0.04    0.31
  -7   3  15    1.26    0.42
  -7   3  16    0.34    0.32
  -7   3  17    1.62    0.35
  -7   3  18    0.02    0.33
  -7   3  19    0.95    0.35
  -7   3  20    1.68    0.35
  -7   3  21    0.46    0.37
  -7   4   1   20.29    0.40
  -7   4   2    2.83    0.18
  -7   4   3    6.46    0.43
  -7   4   4    0.16    0.33
  -7   4   5    0.89    0.20
  -7   4   6    0.06    0.21
  -7   4   7    1.68    0.24
  -7   4   8    8.65    0.39
  -7   4   9    1.39    0.28
  -7   4  10    3.67    0.31
  -7   4  11   11.83    0.86
  -7   4  12    0.10    0.30
  -7   4  13    2.43    0.33
  -7   4  14    0.43    0.31
  -7   4  15    1.45    0.33
  -7   4  16    0.29    0.33
  -7   4  17    0.00    0.32
  -7   4  18    4.52    0.38
  -7   4  19    0.85    0.35
  -7   4  20    3.44    0.68
  -7   4  21    0.07    0.35
  -7   5   1   16.95    0.44
  -7   5   2    0.01    0.21
  -7   5   3   12.12    0.31
  -7   5   4    1.15    0.20
  -7   5   5    8.10    0.35
  -7   5   6    2.70    0.22
  -7   5   7    1.80    0.25
  -7   5   8    9.67    0.42
  -7   5   9    0.40    0.76
  -7   5  10    5.56    0.33
  -7   5  11    0.00    0.34
  -7   5  12    0.00    0.30
  -7   5  13   11.41    0.49
  -7   5  14    1.96    0.33
  -7   5  15    0.29    0.32
  -7   5  16    0.50    0.36
  -7   5  17    5.06    0.39
  -7   5  18    0.78    0.36
  -7   5  19    0.04    0.35
  -7   5  20    2.10    0.45
  -7   6   1   16.11    0.43
  -7   6   2    1.35    0.23
  -7   6   3    6.09    0.25
  -7   6   4   14.26    0.41
  -7   6   5    7.01    0.30
  -7   6   6   10.83    0.37
  -7   6   7    0.76    0.27
  -7   6   8    1.17    0.27
  -7   6   9    0.81    0.29
  -7   6  10    0.98    0.30
  -7   6  11   18.31    0.58
  -7   6  12    0.23    0.30
  -7   6  13    1.14    0.79
  -7   6  14    2.32    0.35
  -7   6  15    0.22    0.33
  -7   6  16   11.71    0.51
  -7   6  17    0.05    0.34
  -7   6  18   11.05    0.65
  -7   6  19    1.79    0.37
  -7   6  20    3.43    0.54
  -7   7   1    5.12    0.28
  -7   7   2    4.07    0.24
  -7   7   3    0.85    0.20
  -7   7   4    0.22    0.20
  -7   7   5    0.14    0.21
  -7   7   6    1.52    0.23
  -7   7   7    0.22    0.22
  -7   7   8   12.23    0.45
  -7   7   9    0.22    0.30
  -7   7  10    0.29    0.29
  -7   7  11    2.11    0.60
  -7   7  12    2.74    0.33
  -7   7  13    1.97    0.33
  -7   7  14    2.01    0.34
  -7   7  15    0.01    0.33
  -7   7  16    1.60    0.36
  -7   7  17    2.51    0.37
  -7   7  18    0.30    0.42
  -7   7  19    1.88    0.51
  -7   7  20    0.13    0.36
  -7   8   1    0.54    0.18
  -7   8   2    6.73    0.29
  -7   8   3    0.01    0.29
  -7   8   4    8.34    0.30
  -7   8   5    0.02    0.35
  -7   8   6    8.11    0.46
  -7   8   7    3.04    0.26
  -7   8   8    0.90    0.29
  -7   8   9    8.04    0.36
  -7   8  10    0.19    0.29
  -7   8  11    0.55    0.31
  -7   8  12    3.37    0.64
  -7   8  13    0.81    0.32
  -7   8  14    1.00    0.33
  -7   8  15    0.07    0.33
  -7   8  16    4.96    0.63
  -7   8  17    0.34    0.35
  -7   8  18    1.73    0.37
  -7   8  19    1.75    0.42
  -7   9   1    0.02    0.26
  -7   9   2    7.99    0.43
  -7   9   3    1.45    0.22
  -7   9   4    0.07    0.21
  -7   9   5    7.43    0.59
  -7   9   6    0.04    0.34
  -7   9   7    1.95    0.39
  -7   9   8    0.30    0.28
  -7   9   9    0.01    0.29
  -7   9  10    1.13    0.30
  -7   9  11    4.94    0.36
  -7   9  12    0.02    0.31
  -7   9  13    0.08    0.32
  -7   9  14    0.69    0.33
  -7   9  15    2.05    0.46
  -7   9  16    0.57    0.35
  -7   9  17    2.85    0.38
  -7   9  18    0.14    0.52
  -7   9  19    3.23    0.41
  -7  10   1    1.71    0.29
  -7  10   2    9.17    0.47
  -7  10   3    0.86    0.30
  -7  10   4    2.34    0.24
  -7  10   5    0.87    0.23
  -7  10   6    1.83    0.32
  -7  10   7    0.60    0.28
  -7  10   8    1.94    0.30
  -7  10   9    6.69    0.36
  -7  10  10    4.29    0.51
  -7  10  11    2.72    0.34
  -7  10  12    4.38    0.37
  -7  10  13    0.62    0.43
  -7  10  14    2.30    0.36
  -7  10  15    0.03    0.34
  -7  10  16    2.69    0.37
  -7  10  17    0.00    0.36
  -7  10  18    0.01    0.49
  -7  11   1    0.17    0.28
  -7  11   2    0.06    0.51
  -7  11   3    3.11    0.43
  -7  11   4    3.15    0.59
  -7  11   5    2.47    0.34
  -7  11   6    0.00    0.24
  -7  11   7    0.98    0.29
  -7  11   8    8.20    0.45
  -7  11   9    0.27    0.44
  -7  11  10    1.79    0.32
  -7  11  11    0.03    1.11
  -7  11  12    1.05    0.33
  -7  11  13    0.54    0.33
  -7  11  14    0.44    0.34
  -7  11  15    2.80    0.39
  -7  11  16    1.59    0.36
  -7  11  17    0.29    0.36
  -7  12   1    0.08    0.51
  -7  12   2    3.27    0.35
  -7  12   3    1.96    0.60
  -7  12   4    0.20    0.31
  -7  12   5    3.64    0.37
  -7  12   6    1.22    0.42
  -7  12   7    0.04    0.42
  -7  12   8    2.37    0.52
  -7  12   9    0.86    0.31
  -7  12  10    0.12    0.31
  -7  12  11    0.01    0.32
  -7  12  12    1.43    0.79
  -7  12  13    0.02    0.41
  -7  12  14    0.01    0.34
  -7  12  15    1.10    0.36
  -7  12  16    0.00    0.35
  -7  12  17    2.69    0.40
  -7  13   1    5.15    0.51
  -7  13   2    0.04    0.46
  -7  13   3    9.87    0.50
  -7  13   4    2.88    0.75
  -7  13   5    1.40    0.35
  -7  13   6    0.34    0.42
  -7  13   7    0.17    0.43
  -7  13   8    2.04    0.47
  -7  13   9    1.01    0.46
  -7  13  10    4.48    0.43
  -7  13  11    0.26    0.32
  -7  13  12    3.07    0.36
  -7  13  13    2.61    0.36
  -7  13  14    0.12    0.42
  -7  13  15    2.50    0.38
  -7  13  16    1.40    0.38
  -7  14   1    1.23    0.33
  -7  14   2    1.45    0.33
  -7  14   3    0.11    0.33
  -7  14   4    2.31    0.37
  -7  14   5    1.25    0.44
  -7  14   6    5.72    0.53
  -7  14   7    0.10    0.43
  -7  14   8    1.29    0.46
  -7  14   9    0.46    0.46
  -7  14  10    1.51    0.48
  -7  14  11    3.10    0.51
  -7  14  12    0.00    0.47
  -7  14  13    0.25    0.34
  -7  14  14    0.09    0.34
  -7  15   1    2.49    0.36
  -7  15   2    0.99    0.34
  -7  15   3    0.12    0.33
  -7  15   4    0.41    0.42
  -7  15   5    0.67    0.43
  -7  15   6    1.22    0.46
  -7  15   7    0.00    0.44
  -7  15   8    0.55    0.46
  -7  15   9    1.11    0.47
  -7  15  10    0.43    0.47
  -7  15  11    0.01    0.47
  -7  15  12    0.07    0.48
  -7  15  13    0.06    0.49
  -7  16   1    0.11    0.84
  -7  16   2    1.78    0.42
  -7  16   3    3.19    0.57
  -7  16   4    0.00    0.43
  -7  16   5    0.00    0.43
  -7  16   6    0.49    0.44
  -7  16   7    1.41    0.46
  -7  16   8    1.20    0.47
  -7  16   9    4.28    0.55
  -7  16  10    1.38    0.50
  -7  16  11    0.06    0.48
  -7  17   1    0.01    0.36
  -7  17   2    0.04    0.53
  -7  17   3    0.11    0.43
  -7  17   4    0.96    0.45
  -7  17   5    1.95    0.46
  -7  17   6    0.22    0.45
  -7  17   7    0.04    0.45
  -7  17   8    0.59    0.48
  -7  17   9    0.52    0.48
  -7  18   1    1.00    0.36
  -7  18   2    1.08    0.45
  -7  18   3    0.07    0.46
  -7  18   4    1.65    0.47
  -7  18   5    1.20    0.47
  -7  18   6    0.75    0.48
  -6 -21   1    0.40    0.48
  -6 -21   2    1.94    0.50
  -6 -21   3    1.33    0.51
  -6 -21   4    0.02    0.47
  -6 -20   1    2.98    0.49
  -6 -20   2    6.50    0.58
  -6 -20   3    1.59    0.48
  -6 -20   4    0.98    0.48
  -6 -20   5    0.00    0.46
  -6 -20   6    0.02    0.46
  -6 -20   7    0.07    0.46
  -6 -19   1    0.01    0.30
  -6 -19   2    1.60    0.64
  -6 -19   3    0.01    0.45
  -6 -19   4    0.05    0.45
  -6 -19   5    0.08    0.45
  -6 -19   6    0.01    0.46
  -6 -19   7    0.10    0.46
  -6 -19   8    0.67    0.47
  -6 -19   9    2.41    0.51
  -6 -18   1    5.70    0.43
  -6 -18   2    0.48    0.30
  -6 -18   3    0.43    0.57
  -6 -18   4    1.29    0.42
  -6 -18   5    0.00    0.44
  -6 -18   6    0.23    0.46
  -6 -18   7    0.00    0.44
  -6 -18   8    0.10    0.46
  -6 -18   9    1.32    0.47
  -6 -18  10    0.40    0.46
  -6 -18  11    5.44    0.58
  -6 -17   1    4.63    0.35
  -6 -17   2   16.25    0.55
  -6 -17   3    0.68    0.29
  -6 -17   4    0.32    0.29
  -6 -17   5    5.87    0.35
  -6 -17   6    0.89    0.45
  -6 -17   7    1.16    0.45
  -6 -17   8    0.00    0.45
  -6 -17   9    2.63    0.48
  -6 -17  10    1.57    0.48
  -6 -17  11    0.02    0.45
  -6 -17  12    1.69    0.50
  -6 -16   1    0.17    0.28
  -6 -16   2    7.60    0.39
  -6 -16   3    3.09    0.51
  -6 -16   4    1.40    0.40
  -6 -16   5    0.00    0.27
  -6 -16   6    0.54    0.29
  -6 -16   7    1.47    0.46
  -6 -16   8    0.76    0.45
  -6 -16   9    3.05    0.49
  -6 -16  10    0.00    0.44
  -6 -16  11    0.08    0.45
  -6 -16  12    1.61    0.48
  -6 -16  13    0.73    0.48
  -6 -16  14    2.41    0.51
  -6 -15   1   10.05    0.46
  -6 -15   2    9.63    0.43
  -6 -15   3   10.77    0.50
  -6 -15   4    4.21    0.32
  -6 -15   5    6.64    0.54
  -6 -15   6    0.57    0.29
  -6 -15   7    5.13    0.34
  -6 -15   8    8.35    0.64
  -6 -15   9    0.38    0.44
  -6 -15  10    1.14    0.45
  -6 -15  11    6.29    0.57
  -6 -15  12    1.73    0.48
  -6 -15  13    4.06    0.51
  -6 -15  14    0.75    0.49
  -6 -15  15    1.11    0.50
  -6 -14   1    0.67    0.36
  -6 -14   2    0.59    0.27
  -6 -14   3    0.03    0.26
  -6 -14   4    0.10    0.27
  -6 -14   5    0.66    0.27
  -6 -14   6    3.05    0.31
  -6 -14   7    2.97    0.30
  -6 -14   8    0.00    0.27
  -6 -14   9    0.16    0.28
  -6 -14  10    0.05    0.43
  -6 -14  11    0.59    0.45
  -6 -14  12    0.82    0.45
  -6 -14  13    1.43    0.49
  -6 -14  14    0.00    0.46
  -6 -14  15    0.65    0.47
  -6 -14  16    1.46    0.49
  -6 -13   1    0.51    0.26
  -6 -13   2    7.48    0.39
  -6 -13   3    4.34    0.29
  -6 -13   4    0.03    0.40
  -6 -13   5    0.47    0.42
  -6 -13   6    0.71    0.39
  -6 -13   7    7.29    0.37
  -6 -13   8    0.13    0.38
  -6 -13   9   16.37    0.47
  -6 -13  10    0.00    0.46
  -6 -13  11    2.21    0.47
  -6 -13  12    0.22    0.46
  -6 -13  13    0.03    0.43
  -6 -13  14    3.49    0.51
  -6 -13  15    3.37    0.53
  -6 -13  16    0.46    0.48
  -6 -13  17    3.91    0.54
  -6 -12   1   23.21    0.73
  -6 -12   2    0.59    0.25
  -6 -12   3    4.73    0.29
  -6 -12   4    0.00    0.25
  -6 -12   5    0.73    0.25
  -6 -12   6    0.29    0.26
  -6 -12   7    2.44    0.31
  -6 -12   8    1.07    0.41
  -6 -12   9    0.40    0.27
  -6 -12  10    3.91    0.30
  -6 -12  11    0.35    0.27
  -6 -12  12    1.25    0.46
  -6 -12  13    1.02    0.45
  -6 -12  14    0.03    0.44
  -6 -12  15    1.50    0.48
  -6 -12  16    0.08    0.47
  -6 -12  17    1.17    0.48
  -6 -12  18    2.00    0.51
  -6 -11   1    3.49    0.29
  -6 -11   2    7.66    0.36
  -6 -11   3    1.13    0.36
  -6 -11   4    5.87    0.29
  -6 -11   5    0.12    0.27
  -6 -11   6    3.17    0.53
  -6 -11   7    6.22    0.32
  -6 -11   8    0.14    0.25
  -6 -11   9    0.56    0.27
  -6 -11  10    0.06    0.26
  -6 -11  11    0.14    0.25
  -6 -11  12    0.16    0.43
  -6 -11  13    1.78    0.46
  -6 -11  14    1.88    0.48
  -6 -11  15    1.19    0.48
  -6 -11  16    0.54    0.47
  -6 -11  17    0.20    0.47
  -6 -11  18    2.88    0.52
  -6 -10   1   11.57    0.39
  -6 -10   2    6.38    0.36
  -6 -10   3    0.38    0.28
  -6 -10   4   13.22    0.41
  -6 -10   5    2.02    0.27
  -6 -10   6    0.94    0.27
  -6 -10   7    0.27    0.24
  -6 -10   8    3.03    0.39
  -6 -10   9    2.73    0.29
  -6 -10  10    4.92    0.64
  -6 -10  11    0.60    0.39
  -6 -10  12    0.28    0.28
  -6 -10  13    3.04    0.47
  -6 -10  14    0.07    0.44
  -6 -10  15    0.59    0.46
  -6 -10  16   12.15    0.69
  -6 -10  17    0.57    0.47
  -6 -10  18    1.57    0.50
  -6 -10  19    1.25    0.49
  -6  -9   1   20.47    0.55
  -6  -9   2   11.17    0.37
  -6  -9   3    1.22    0.24
  -6  -9   4    4.56    0.30
  -6  -9   5    5.60    0.27
  -6  -9   6    1.85    0.43
  -6  -9   7    0.15    0.33
  -6  -9   8    0.57    0.25
  -6  -9   9   10.65    0.58
  -6  -9  10    7.57    0.55
  -6  -9  11    0.12    0.26
  -6  -9  12    6.71    0.62
  -6  -9  13    0.16    0.26
  -6  -9  14    0.04    0.43
  -6  -9  15    0.09    0.43
  -6  -9  16    0.00    0.45
  -6  -9  17    4.22    0.52
  -6  -9  18    0.92    0.47
  -6  -9  19    3.02    0.53
  -6  -9  20    0.19    0.47
  -6  -8   1    0.69    0.19
  -6  -8   2   20.79    0.46
  -6  -8   3    1.89    0.20
  -6  -8   4    7.04    0.25
  -6  -8   5    0.06    0.29
  -6  -8   6    2.42    0.24
  -6  -8   7    6.51    0.30
  -6  -8   8    6.63    0.67
  -6  -8   9   10.84    0.42
  -6  -8  10    3.66    0.32
  -6  -8  11    0.00    0.53
  -6  -8  12    4.89    0.29
  -6  -8  13    2.40    0.30
  -6  -8  14    0.03    0.27
  -6  -8  15    1.79    0.45
  -6  -8  16    4.73    0.53
  -6  -8  17    1.75    0.45
  -6  -8  18    3.29    0.52
  -6  -8  19    2.74    0.49
  -6  -8  20    0.01    0.47
  -6  -7   1    0.00    0.19
  -6  -7   2   12.04    0.42
  -6  -7   3    8.18    0.33
  -6  -7   4    0.00    0.20
  -6  -7   5   16.06    0.72
  -6  -7   6    0.02    0.34
  -6  -7   7    2.94    0.25
  -6  -7   8    0.47    0.24
  -6  -7   9    5.46    0.37
  -6  -7  10   10.16    0.65
  -6  -7  11    1.43    0.28
  -6  -7  12   19.83    0.56
  -6  -7  13    0.73    0.29
  -6  -7  14    4.86    0.32
  -6  -7  15    0.47    0.33
  -6  -7  16    0.43    0.46
  -6  -7  17   10.93    0.66
  -6  -7  18    1.38    0.48
  -6  -7  19    6.19    0.57
  -6  -7  20    3.38    0.51
  -6  -7  21    0.27    0.48
  -6  -6   1    7.66    0.25
  -6  -6   2   31.14    0.82
  -6  -6   3    0.93    0.21
  -6  -6   4    1.84    0.22
  -6  -6   5    0.93    0.20
  -6  -6   6    0.39    0.22
  -6  -6   7   19.42    0.49
  -6  -6   8   14.38    0.37
  -6  -6   9   17.72    0.47
  -6  -6  10    0.14    0.24
  -6  -6  11    3.50    0.27
  -6  -6  12    0.54    0.26
  -6  -6  13    4.21    0.40
  -6  -6  14    1.02    0.34
  -6  -6  15    0.17    0.27
  -6  -6  16    0.05    0.28
  -6  -6  17    0.01    0.44
  -6  -6  18    0.97    0.46
  -6  -6  19    2.90    0.51
  -6  -6  20    1.75    0.51
  -6  -6  21    0.36    0.49
  -6  -5   1    6.12    0.30
  -6  -5   2    3.73    0.28
  -6  -5   3   42.42    0.66
  -6  -5   4    0.07    0.19
  -6  -5   5   17.03    0.41
  -6  -5   6    1.40    0.22
  -6  -5   7    0.02    0.20
  -6  -5   8   22.39    0.57
  -6  -5   9    0.25    0.23
  -6  -5  10    3.43    0.27
  -6  -5  11    1.55    0.26
  -6  -5  12    0.03    0.25
  -6  -5  13    5.41    0.55
  -6  -5  14    0.01    0.32
  -6  -5  15    8.31    0.46
  -6  -5  16    1.02    0.29
  -6  -5  17   12.08    0.69
  -6  -5  18    3.06    0.50
  -6  -5  19    0.23    0.47
  -6  -5  20    5.35    0.54
  -6  -5  21    0.32    0.48
  -6  -5  22    0.07    0.47
  -6  -4   1    3.22    0.21
  -6  -4   2    1.77    0.20
  -6  -4   3    0.66    0.20
  -6  -4   4   16.48    0.42
  -6  -4   5    6.26    0.33
  -6  -4   6    3.93    0.31
  -6  -4   7    0.04    0.19
  -6  -4   8   10.05    0.36
  -6  -4   9   13.19    0.41
  -6  -4  10    0.00    0.23
  -6  -4  11   14.12    0.43
  -6  -4  12    1.34    0.27
  -6  -4  13    3.04    0.66
  -6  -4  14    3.59    0.31
  -6  -4  15    0.04    0.58
  -6  -4  16    7.40    0.59
  -6  -4  17    3.22    0.33
  -6  -4  18    2.16    0.47
  -6  -4  19    4.43    0.56
  -6  -4  20    3.53    0.53
  -6  -4  21    2.48    0.50
  -6  -4  22    0.62    0.50
  -6  -3   1    7.98    0.30
  -6  -3   2    0.82    0.20
  -6  -3   3    0.12    0.19
  -6  -3   4    2.63    0.20
  -6  -3   5    8.69    0.36
  -6  -3   6    5.90    0.24
  -6  -3   7    0.06    0.19
  -6  -3   8   15.87    0.60
  -6  -3   9    1.85    0.27
  -6  -3  10    0.10    0.23
  -6  -3  11    5.25    0.55
  -6  -3  12    0.98    0.25
  -6  -3  13    2.69    0.29
  -6  -3  14    0.86    0.48
  -6  -3  15    0.96    0.29
  -6  -3  16    0.24    0.29
  -6  -3  17    1.06    0.46
  -6  -3  18    0.65    0.30
  -6  -3  19    2.39    0.49
  -6  -3  20    0.08    0.46
  -6  -3  21    0.06    0.49
  -6  -3  22    0.66    0.51
  -6  -2   1    3.85    0.31
  -6  -2   2    5.60    0.45
  -6  -2   3    0.20    0.23
  -6  -2   4   33.47    0.53
  -6  -2   5   14.23    0.36
  -6  -2   6    1.19    0.20
  -6  -2   7    1.21    0.20
  -6  -2   8    0.12    0.19
  -6  -2   9    2.97    0.28
  -6  -2  10    0.01    0.39
  -6  -2  11   25.62    0.57
  -6  -2  12    1.22    0.27
  -6  -2  13    0.07    0.27
  -6  -2  14    0.07    0.27
  -6  -2  15    0.04    0.28
  -6  -2  16    0.09    0.28
  -6  -2  17    0.95    0.30
  -6  -2  18    2.34    0.49
  -6  -2  19    1.08    0.49
  -6  -2  20    0.16    0.48
  -6  -2  21    5.48    0.54
  -6  -2  22    1.16    0.51
  -6  -1   1    0.91    0.27
  -6  -1   2   14.24    0.34
  -6  -1   3    7.22    0.33
  -6  -1   4    0.30    0.20
  -6  -1   5    3.75    0.21
  -6  -1   6    0.00    0.19
  -6  -1   7    1.36    0.19
  -6  -1   8    2.95    0.24
  -6  -1   9    0.77    0.23
  -6  -1  10    0.29    0.23
  -6  -1  11    9.62    0.40
  -6  -1  12    4.68    0.30
  -6  -1  13    0.88    0.27
  -6  -1  14    0.06    0.41
  -6  -1  15    0.30    0.33
  -6  -1  16    1.25    0.47
  -6  -1  17    0.01    0.29
  -6  -1  18    0.81    0.32
  -6  -1  19    0.02    0.37
  -6  -1  20    0.30    0.49
  -6  -1  21    0.27    0.47
  -6  -1  22    1.01    0.49
  -6   0   1    1.57    0.20
  -6   0   2   72.39    1.24
  -6   0   3   32.40    0.53
  -6   0   4    4.85    0.21
  -6   0   5    0.46    0.22
  -6   0   6    4.84    0.29
  -6   0   7    7.00    0.28
  -6   0   8    0.28    0.20
  -6   0   9    8.02    0.33
  -6   0  10    1.92    0.25
  -6   0  11    3.09    0.27
  -6   0  12   19.59    0.58
  -6   0  13    3.44    0.30
  -6   0  14    0.94    0.29
  -6   0  15    0.06    0.28
  -6   0  16    1.93    0.34
  -6   0  17    0.49    0.30
  -6   0  18    0.23    0.31
  -6   0  19    3.69    0.44
  -6   0  20    0.67    0.49
  -6   0  21    1.16    0.49
  -6   0  22    0.04    0.49
  -6   0  23    0.09    0.49
  -6   1   1    3.02    0.19
  -6   1   2    0.20    0.21
  -6   1   3   44.22    0.90
  -6   1   4    0.02    0.19
  -6   1   5   25.54    0.46
  -6   1   6    1.90    0.20
  -6   1   7    1.97    0.21
  -6   1   8    2.81    0.21
  -6   1   9    2.36    0.59
  -6   1  10   23.82    0.58
  -6   1  11    1.98    0.27
  -6   1  12   19.41    0.54
  -6   1  13    1.07    0.28
  -6   1  14    0.00    0.27
  -6   1  15    3.58    0.40
  -6   1  16    0.31    0.30
  -6   1  17    0.04    0.30
  -6   1  18    0.16    0.31
  -6   1  19    1.42    0.33
  -6   1  20    8.61    0.49
  -6   1  21    0.04    0.50
  -6   1  22    2.53    0.52
  -6   1  23    0.31    0.51
  -6   2   1    3.77    0.26
  -6   2   2   35.46    0.79
  -6   2   3    1.03    0.19
  -6   2   4    0.86    0.20
  -6   2   5    3.97    0.32
  -6   2   6    1.59    0.27
  -6   2   7    0.08    0.19
  -6   2   8    0.44    0.20
  -6   2   9    4.29    0.57
  -6   2  10    1.83    0.26
  -6   2  11    9.16    0.40
  -6   2  12    5.38    0.33
  -6   2  13    1.06    0.28
  -6   2  14    0.19    0.51
  -6   2  15    6.54    0.86
  -6   2  16    0.00    0.30
  -6   2  17    2.65    0.34
  -6   2  18    4.68    1.15
  -6   2  19    7.05    0.48
  -6   2  20    0.76    0.34
  -6   2  21    0.01    0.49
  -6   2  22    0.06    0.49
  -6   2  23    0.69    0.52
  -6   3   1   31.26    0.41
  -6   3   2    0.18    0.17
  -6   3   3   23.85    0.52
  -6   3   4    0.01    0.18
  -6   3   5    1.63    0.28
  -6   3   6   16.01    0.42
  -6   3   7    6.61    0.26
  -6   3   8    4.73    0.24
  -6   3   9    0.06    0.23
  -6   3  10   16.07    0.49
  -6   3  11    3.69    0.29
  -6   3  12    0.22    0.26
  -6   3  13    8.44    0.43
  -6   3  14    2.33    0.31
  -6   3  15    0.47    0.47
  -6   3  16    0.45    0.52
  -6   3  17    1.70    0.52
  -6   3  18    3.02    0.34
  -6   3  19    0.02    0.41
  -6   3  20    8.58    0.50
  -6   3  21    0.25    0.51
  -6   3  22    0.63    0.52
  -6   4   1    5.58    0.24
  -6   4   2    9.97    0.27
  -6   4   3    3.54    0.22
  -6   4   4    0.02    0.18
  -6   4   5    0.32    0.19
  -6   4   6    3.68    0.25
  -6   4   7    0.34    0.20
  -6   4   8    5.71    1.03
  -6   4   9    8.00    0.31
  -6   4  10    4.27    0.28
  -6   4  11    1.39    0.27
  -6   4  12    0.09    0.27
  -6   4  13    3.73    0.33
  -6   4  14    9.71    0.45
  -6   4  15    1.85    0.32
  -6   4  16    2.37    0.33
  -6   4  17    1.81    0.34
  -6   4  18    5.63    0.37
  -6   4  19    4.16    0.37
  -6   4  20    2.26    0.47
  -6   4  21    0.97    0.36
  -6   4  22    0.00    0.51
  -6   5   1   18.65    0.32
  -6   5   2    0.03    0.17
  -6   5   3    9.48    0.34
  -6   5   4    2.20    0.19
  -6   5   5    0.05    0.23
  -6   5   6   14.23    0.37
  -6   5   7    2.03    0.22
  -6   5   8    4.20    0.24
  -6   5   9    2.83    0.25
  -6   5  10    2.25    0.36
  -6   5  11    0.00    0.31
  -6   5  12    0.28    0.28
  -6   5  13    0.79    0.29
  -6   5  14    0.00    0.29
  -6   5  15    0.52    0.31
  -6   5  16    2.48    0.52
  -6   5  17    0.06    0.32
  -6   5  18    4.27    0.42
  -6   5  19    0.46    0.34
  -6   5  20    1.80    0.37
  -6   5  21    0.01    0.48
  -6   5  22    0.39    0.36
  -6   6   1    0.02    0.16
  -6   6   2   11.84    0.29
  -6   6   3    1.19    0.18
  -6   6   4   17.73    0.41
  -6   6   5    5.66    0.40
  -6   6   6    3.83    0.27
  -6   6   7    2.60    0.34
  -6   6   8    0.19    0.24
  -6   6   9    9.00    0.53
  -6   6  10    0.01    0.26
  -6   6  11    3.45    0.30
  -6   6  12   19.26    0.56
  -6   6  13    0.15    0.41
  -6   6  14    0.00    0.30
  -6   6  15    3.46    0.35
  -6   6  16   25.81    0.95
  -6   6  17    0.01    0.33
  -6   6  18    0.50    0.34
  -6   6  19    5.34    0.38
  -6   6  20    0.19    0.34
  -6   6  21    1.10    0.38
  -6   6  22    0.05    0.35
  -6   7   1    2.39    0.17
  -6   7   2    4.47    0.32
  -6   7   3    1.52    0.33
  -6   7   4   10.19    0.58
  -6   7   5    6.00    0.27
  -6   7   6    5.52    0.25
  -6   7   7    1.76    0.23
  -6   7   8    0.46    0.22
  -6   7   9    0.04    0.46
  -6   7  10    1.06    0.32
  -6   7  11    2.26    0.30
  -6   7  12    0.03    0.29
  -6   7  13    2.99    0.33
  -6   7  14    0.15    0.31
  -6   7  15    1.94    0.35
  -6   7  16    4.37    0.48
  -6   7  17    1.03    0.45
  -6   7  18    0.81    0.34
  -6   7  19    0.84    0.35
  -6   7  20    0.53    0.36
  -6   7  21    0.92    0.36
  -6   8   1    0.35    0.25
  -6   8   2   11.44    0.28
  -6   8   3    0.63    0.39
  -6   8   4   11.97    0.35
  -6   8   5   21.40    0.46
  -6   8   6    0.06    0.20
  -6   8   7    8.70    0.33
  -6   8   8    0.73    0.23
  -6   8   9    0.10    0.26
  -6   8  10    0.62    0.42
  -6   8  11    3.01    0.30
  -6   8  12    0.01    0.29
  -6   8  13    3.54    0.33
  -6   8  14    1.94    0.33
  -6   8  15    0.00    0.32
  -6   8  16    0.03    0.33
  -6   8  17    1.27    0.35
  -6   8  18    1.21    0.35
  -6   8  19    4.10    0.40
  -6   8  20    0.28    0.35
  -6   8  21    0.98    0.37
  -6   9   1    1.59    0.17
  -6   9   2    3.45    0.21
  -6   9   3    2.10    0.20
  -6   9   4    6.08    0.28
  -6   9   5   10.88    0.35
  -6   9   6    2.23    0.38
  -6   9   7    0.29    0.22
  -6   9   8    0.58    0.29
  -6   9   9    0.01    0.27
  -6   9  10    4.30    0.35
  -6   9  11    6.68    0.39
  -6   9  12    2.27    0.32
  -6   9  13    0.00    0.31
  -6   9  14    2.42    0.35
  -6   9  15    2.61    0.35
  -6   9  16    0.01    0.33
  -6   9  17    1.49    0.36
  -6   9  18    0.36    0.35
  -6   9  19    0.06    0.35
  -6   9  20    2.98    0.40
  -6   9  21    0.01    0.36
  -6  10   1    0.14    0.25
  -6  10   2   12.40    0.32
  -6  10   3    0.96    0.20
  -6  10   4    0.28    0.25
  -6  10   5   14.10    0.39
  -6  10   6    0.70    0.29
  -6  10   7   12.65    0.38
  -6  10   8    0.01    0.27
  -6  10   9    3.07    0.81
  -6  10  10    9.39    0.46
  -6  10  11    0.61    0.31
  -6  10  12    0.43    0.54
  -6  10  13    0.32    0.78
  -6  10  14    0.99    0.33
  -6  10  15    4.07    0.36
  -6  10  16    0.88    0.34
  -6  10  17    0.56    0.35
  -6  10  18    0.06    0.36
  -6  10  19    0.00    0.36
  -6  10  20    0.02    0.36
  -6  11   1   10.52    0.46
  -6  11   2    0.33    0.27
  -6  11   3   13.54    0.35
  -6  11   4    0.57    0.21
  -6  11   5    0.01    0.22
  -6  11   6    2.01    0.25
  -6  11   7    0.00    0.23
  -6  11   8    6.65    0.34
  -6  11   9    0.32    0.29
  -6  11  10    1.25    0.32
  -6  11  11    0.00    0.43
  -6  11  12    0.80    0.32
  -6  11  13    5.04    0.37
  -6  11  14    0.06    0.60
  -6  11  15    0.96    0.34
  -6  11  16    0.10    0.34
  -6  11  17    0.67    0.36
  -6  11  18    4.80    0.41
  -6  11  19    0.00    0.36
  -6  12   1    5.14    0.34
  -6  12   2    1.75    0.33
  -6  12   3    3.46    0.35
  -6  12   4    0.00    0.50
  -6  12   5    6.92    0.34
  -6  12   6    0.30    0.26
  -6  12   7    0.12    0.27
  -6  12   8    2.06    0.30
  -6  12   9    1.14    0.29
  -6  12  10    1.77    0.32
  -6  12  11    2.67    0.35
  -6  12  12    5.66    0.41
  -6  12  13    2.06    0.34
  -6  12  14    0.34    0.57
  -6  12  15    0.01    0.65
  -6  12  16    0.81    0.62
  -6  12  17    0.57    0.36
  -6  12  18    0.76    0.37
  -6  12  19    0.35    0.37
  -6  13   1    0.03    0.28
  -6  13   2    3.04    0.33
  -6  13   3    0.00    0.54
  -6  13   4    0.54    0.32
  -6  13   5    0.07    0.36
  -6  13   6    8.64    0.50
  -6  13   7    1.97    0.30
  -6  13   8    8.93    0.40
  -6  13   9    6.60    0.39
  -6  13  10    1.90    0.33
  -6  13  11    0.30    0.37
  -6  13  12    1.11    0.36
  -6  13  13    0.30    0.42
  -6  13  14    2.08    0.62
  -6  13  15    3.53    0.38
  -6  13  16    0.00    0.35
  -6  13  17    0.00    0.36
  -6  13  18    1.92    0.57
  -6  14   1    1.50    0.32
  -6  14   2    2.00    0.33
  -6  14   3    2.87    0.34
  -6  14   4    0.12    0.33
  -6  14   5    2.28    0.36
  -6  14   6    1.13    0.43
  -6  14   7    7.02    0.62
  -6  14   8    3.54    0.48
  -6  14   9   22.43    0.66
  -6  14  10    2.91    0.70
  -6  14  11    2.34    0.35
  -6  14  12    1.31    0.33
  -6  14  13    1.31    0.43
  -6  14  14    1.07    0.36
  -6  14  15    1.02    0.36
  -6  14  16    0.02    0.34
  -6  14  17    0.09    0.39
  -6  15   1    2.46    0.35
  -6  15   2    2.31    0.36
  -6  15   3    1.06    0.34
  -6  15   4    4.49    0.39
  -6  15   5    0.36    0.42
  -6  15   6    1.09    0.44
  -6  15   7    0.55    0.44
  -6  15   8    3.31    0.51
  -6  15   9    0.00    0.43
  -6  15  10    1.76    0.48
  -6  15  11    0.67    0.33
  -6  15  12    0.50    0.34
  -6  15  13    0.36    0.34
  -6  15  14    0.03    0.33
  -6  15  15    0.04    0.52
  -6  16   1    0.02    0.38
  -6  16   2    0.01    0.33
  -6  16   3    0.14    0.34
  -6  16   4    0.49    0.51
  -6  16   5    2.55    0.47
  -6  16   6    2.32    0.47
  -6  16   7    3.32    0.52
  -6  16   8    0.16    0.46
  -6  16   9    1.72    0.48
  -6  16  10    2.92    0.52
  -6  16  11    0.95    0.48
  -6  16  12    3.86    0.55
  -6  16  13    0.37    0.34
  -6  16  14    0.51    0.36
  -6  17   1    0.58    0.34
  -6  17   2    0.58    0.35
  -6  17   3    0.00    0.34
  -6  17   4    1.99    0.46
  -6  17   5    0.58    0.44
  -6  17   6    1.66    0.47
  -6  17   7    0.00    0.45
  -6  17   8    6.86    0.59
  -6  17   9    0.05    0.47
  -6  17  10    0.61    0.49
  -6  17  11    0.26    0.48
  -6  17  12    0.66    0.50
  -6  18   1    0.41    0.35
  -6  18   2    1.06    0.37
  -6  18   3    0.16    0.43
  -6  18   4    0.39    0.45
  -6  18   5    1.49    0.46
  -6  18   6    1.39    0.48
  -6  18   7    0.79    0.48
  -6  18   8    0.66    0.48
  -6  18   9    0.05    0.48
  -6  18  10    1.48    0.51
  -6  19   1    1.90    0.38
  -6  19   2    1.59    0.46
  -6  19   3    0.48    0.45
  -6  19   4    0.00    0.45
  -6  19   5    0.02    0.45
  -6  19   6    1.63    0.48
  -6  19   7    0.67    0.47
  -5 -22   1    1.91    0.49
  -5 -22   2    2.75    0.50
  -5 -22   3    1.50    0.50
  -5 -21   1    0.18    0.46
  -5 -21   2    0.55    0.46
  -5 -21   3    4.05    0.51
  -5 -21   4    1.68    0.48
  -5 -21   5    0.56    0.46
  -5 -21   6    0.00    0.46
  -5 -20   1    6.78    0.56
  -5 -20   2    0.41    0.46
  -5 -20   3    0.01    0.43
  -5 -20   4    3.99    0.51
  -5 -20   5    0.26    0.45
  -5 -20   6    1.28    0.48
  -5 -20   7    1.42    0.48
  -5 -20   8    0.01    0.48
  -5 -20   9    2.38    0.51
  -5 -19   1    1.82    0.53
  -5 -19   2    4.46    0.33
  -5 -19   3    0.20    0.44
  -5 -19   4    0.31    0.44
  -5 -19   5    1.77    0.46
  -5 -19   6    0.00    0.44
  -5 -19   7    2.84    0.51
  -5 -19   8    0.78    0.46
  -5 -19   9    1.99    0.48
  -5 -19  10    0.05    0.46
  -5 -19  11    0.00    0.46
  -5 -18   1    1.78    0.30
  -5 -18   2    6.75    0.54
  -5 -18   3    1.89    0.30
  -5 -18   4   10.29    0.65
  -5 -18   5    3.25    0.49
  -5 -18   6    0.06    0.43
  -5 -18   7    0.64    0.44
  -5 -18   8    0.02    0.44
  -5 -18   9    0.38    0.46
  -5 -18  10    1.08    0.46
  -5 -18  11    0.86    0.47
  -5 -18  12    0.00    0.45
  -5 -17   1    7.87    0.43
  -5 -17   2    3.14    0.31
  -5 -17   3    2.12    0.29
  -5 -17   4    0.00    0.27
  -5 -17   5    0.77    0.28
  -5 -17   6    0.25    0.43
  -5 -17   7    0.07    0.43
  -5 -17   8    0.01    0.43
  -5 -17   9    1.42    0.46
  -5 -17  10    0.03    0.42
  -5 -17  11    0.97    0.46
  -5 -17  12    0.70    0.45
  -5 -17  13    0.23    0.47
  -5 -17  14    0.45    0.47
  -5 -16   1    0.90    0.28
  -5 -16   2   31.07    1.02
  -5 -16   3    0.76    0.27
  -5 -16   4   17.72    0.48
  -5 -16   5    1.30    0.29
  -5 -16   6    0.85    0.27
  -5 -16   7    0.11    0.42
  -5 -16   8    3.32    0.48
  -5 -16   9    0.06    0.42
  -5 -16  10    0.80    0.46
  -5 -16  11    1.86    0.45
  -5 -16  12    0.64    0.47
  -5 -16  13    2.34    0.49
  -5 -16  14    0.01    0.44
  -5 -16  15    0.27    0.46
  -5 -15   1   16.95    0.48
  -5 -15   2    0.00    0.25
  -5 -15   3    9.91    0.63
  -5 -15   4    0.08    0.40
  -5 -15   5    1.16    0.33
  -5 -15   6    1.31    0.26
  -5 -15   7    2.91    0.29
  -5 -15   8    0.26    0.40
  -5 -15   9    0.15    0.42
  -5 -15  10    2.06    0.46
  -5 -15  11    0.51    0.43
  -5 -15  12    5.09    0.52
  -5 -15  13    2.04    0.49
  -5 -15  14    4.28    0.52
  -5 -15  15    1.98    0.47
  -5 -15  16    1.76    0.50
  -5 -14   1   19.41    0.52
  -5 -14   2    0.25    0.25
  -5 -14   3    1.27    0.27
  -5 -14   4    7.26    0.36
  -5 -14   5    3.95    0.30
  -5 -14   6    4.22    0.29
  -5 -14   7    1.28    0.29
  -5 -14   8    2.32    0.30
  -5 -14   9    0.00    0.40
  -5 -14  10    0.34    0.42
  -5 -14  11    0.41    0.43
  -5 -14  12    2.34    0.47
  -5 -14  13    1.18    0.45
  -5 -14  14    1.04    0.46
  -5 -14  15    2.03    0.49
  -5 -14  16    1.50    0.48
  -5 -14  17    1.11    0.47
  -5 -13   1   33.27    0.56
  -5 -13   2    1.56    0.23
  -5 -13   3   22.59    0.52
  -5 -13   4   12.18    0.39
  -5 -13   5    5.33    0.33
  -5 -13   6    0.00    0.27
  -5 -13   7    0.73    0.25
  -5 -13   8    3.17    0.28
  -5 -13   9    0.00    0.25
  -5 -13  10    0.00    0.41
  -5 -13  11    2.04    0.43
  -5 -13  12    3.08    0.45
  -5 -13  13    0.72    0.43
  -5 -13  14    0.49    0.44
  -5 -13  15    0.88    0.47
  -5 -13  16    1.89    0.48
  -5 -13  17    0.08    0.46
  -5 -13  18    4.30    0.53
  -5 -12   1   14.86    0.37
  -5 -12   2   20.92    0.49
  -5 -12   3    0.05    0.23
  -5 -12   4   11.15    0.42
  -5 -12   5    0.64    0.39
  -5 -12   6   10.28    0.41
  -5 -12   7   12.25    0.43
  -5 -12   8    0.01    0.26
  -5 -12   9    8.86    0.37
  -5 -12  10    2.39    0.26
  -5 -12  11    0.15    0.40
  -5 -12  12    0.41    0.41
  -5 -12  13    0.21    0.42
  -5 -12  14    1.87    0.48
  -5 -12  15    3.96    0.51
  -5 -12  16    4.29    0.52
  -5 -12  17    0.52    0.48
  -5 -12  18    5.91    0.54
  -5 -12  19    7.86    0.68
  -5 -11   1    0.43    0.19
  -5 -11   2    3.25    0.25
  -5 -11   3    0.45    0.20
  -5 -11   4    2.07    0.22
  -5 -11   5    0.76    0.22
  -5 -11   6    3.87    0.50
  -5 -11   7    2.15    0.26
  -5 -11   8    1.93    0.27
  -5 -11   9    0.74    0.24
  -5 -11  10    0.63    0.28
  -5 -11  11    8.53    0.37
  -5 -11  12    5.64    0.50
  -5 -11  13    0.07    0.41
  -5 -11  14    0.08    0.42
  -5 -11  15    0.00    0.41
  -5 -11  16    0.03    0.43
  -5 -11  17    1.36    0.47
  -5 -11  18    1.85    0.49
  -5 -11  19    0.19    0.47
  -5 -11  20    0.40    0.46
  -5 -10   1   14.40    0.63
  -5 -10   2   30.85    0.74
  -5 -10   3    2.26    0.49
  -5 -10   4   16.59    0.39
  -5 -10   5    0.29    0.34
  -5 -10   6    0.09    0.45
  -5 -10   7    4.62    0.50
  -5 -10   8    0.07    0.23
  -5 -10   9   15.20    0.45
  -5 -10  10    1.34    0.24
  -5 -10  11    3.13    0.29
  -5 -10  12    0.05    0.33
  -5 -10  13    7.39    0.50
  -5 -10  14    4.10    0.48
  -5 -10  15    0.59    0.44
  -5 -10  16    1.60    0.46
  -5 -10  17    5.72    0.53
  -5 -10  18    0.13    0.45
  -5 -10  19    1.00    0.46
  -5 -10  20    1.37    0.48
  -5  -9   1    1.33    0.20
  -5  -9   2    4.59    0.30
  -5  -9   3   16.81    0.37
  -5  -9   4    0.18    0.23
  -5  -9   5    1.65    0.19
  -5  -9   6    3.75    0.26
  -5  -9   7    0.05    0.19
  -5  -9   8    2.48    0.25
  -5  -9   9    0.63    0.30
  -5  -9  10   10.19    0.38
  -5  -9  11    0.76    0.27
  -5  -9  12    0.07    0.24
  -5  -9  13    1.32    0.40
  -5  -9  14    0.00    0.42
  -5  -9  15    3.09    0.48
  -5  -9  16    1.36    0.45
  -5  -9  17    7.06    0.62
  -5  -9  18    1.18    0.45
  -5  -9  19    0.30    0.45
  -5  -9  20    0.97    0.47
  -5  -9  21    0.17    0.46
  -5  -8   1    0.02    0.20
  -5  -8   2    0.97    0.19
  -5  -8   3    1.16    0.17
  -5  -8   4    1.33    0.19
  -5  -8   5    9.91    0.30
  -5  -8   6    2.05    0.23
  -5  -8   7    1.40    0.23
  -5  -8   8    0.06    0.40
  -5  -8   9    0.62    0.22
  -5  -8  10    4.38    0.54
  -5  -8  11    0.04    0.23
  -5  -8  12   11.05    0.43
  -5  -8  13    0.00    0.24
  -5  -8  14    3.12    0.30
  -5  -8  15    0.15    0.41
  -5  -8  16    0.09    0.43
  -5  -8  17    5.77    0.51
  -5  -8  18    0.03    0.43
  -5  -8  19    0.24    0.45
  -5  -8  20    0.75    0.46
  -5  -8  21    0.49    0.47
  -5  -8  22    0.05    0.46
  -5  -7   1    2.89    0.22
  -5  -7   2    1.27    0.19
  -5  -7   3   29.11    0.66
  -5  -7   4    0.76    0.18
  -5  -7   5    5.64    0.25
  -5  -7   6    9.10    0.28
  -5  -7   7    0.97    0.21
  -5  -7   8    7.91    0.33
  -5  -7   9    0.29    0.21
  -5  -7  10   20.32    0.51
  -5  -7  11   15.25    0.45
  -5  -7  12    0.34    0.39
  -5  -7  13   13.96    0.41
  -5  -7  14    0.81    0.27
  -5  -7  15    2.48    0.39
  -5  -7  16    1.97    0.45
  -5  -7  17    2.73    0.47
  -5  -7  18    0.21    0.44
  -5  -7  19    0.04    0.44
  -5  -7  20    2.60    0.50
  -5  -7  21    0.04    0.46
  -5  -7  22    0.28    0.46
  -5  -6   1    2.55    0.20
  -5  -6   2    0.21    0.21
  -5  -6   3    0.22    0.43
  -5  -6   4    8.94    0.32
  -5  -6   5    1.98    0.17
  -5  -6   6    4.82    0.20
  -5  -6   7    0.01    0.19
  -5  -6   8    0.19    0.39
  -5  -6   9    0.48    0.19
  -5  -6  10    0.02    0.19
  -5  -6  11    2.56    0.25
  -5  -6  12   13.27    0.40
  -5  -6  13    0.32    0.24
  -5  -6  14    1.55    0.26
  -5  -6  15    1.55    0.27
  -5  -6  16    1.14    0.43
  -5  -6  17    5.73    0.50
  -5  -6  18    0.15    0.42
  -5  -6  19    0.05    0.43
  -5  -6  20    0.03    0.46
  -5  -6  21    0.19    0.46
  -5  -6  22    0.00    0.47
  -5  -5   1   14.53    0.96
  -5  -5   2    0.11    0.48
  -5  -5   3    8.58    0.33
  -5  -5   4    0.47    0.21
  -5  -5   5    8.11    0.21
  -5  -5   6    7.04    0.29
  -5  -5   7    0.72    0.19
  -5  -5   8    2.06    0.20
  -5  -5   9    4.89    0.22
  -5  -5  10    2.75    0.40
  -5  -5  11    1.11    0.26
  -5  -5  12    0.08    0.22
  -5  -5  13   14.56    0.62
  -5  -5  14    0.00    0.24
  -5  -5  15    2.40    0.29
  -5  -5  16    2.93    0.50
  -5  -5  17    0.32    0.44
  -5  -5  18    0.00    0.44
  -5  -5  19    3.14    0.48
  -5  -5  20    7.89    0.66
  -5  -5  21    0.47    0.47
  -5  -5  22    0.07    0.46
  -5  -5  23    0.02    0.47
  -5  -4   1    4.23    0.53
  -5  -4   2    8.13    0.24
  -5  -4   3   12.77    0.75
  -5  -4   4   15.95    0.53
  -5  -4   5    4.65    0.34
  -5  -4   6    3.09    0.21
  -5  -4   7    3.34    0.19
  -5  -4   8    1.43    0.21
  -5  -4   9    1.47    0.19
  -5  -4  10    0.00    0.19
  -5  -4  11    3.04    0.24
  -5  -4  12    6.99    0.41
  -5  -4  13   13.93    0.44
  -5  -4  14   19.12    0.50
  -5  -4  15    1.24    0.28
  -5  -4  16    0.08    0.41
  -5  -4  17    1.88    0.30
  -5  -4  18    0.91    0.44
  -5  -4  19    1.18    0.45
  -5  -4  20    0.03    0.45
  -5  -4  21    2.08    0.52
  -5  -4  22    0.00    0.46
  -5  -4  23    1.20    0.50
  -5  -3   1    5.13    0.33
  -5  -3   2    0.06    0.20
  -5  -3   3    2.71    0.30
  -5  -3   4   87.23    1.26
  -5  -3   5    0.14    0.23
  -5  -3   6   16.78    0.39
  -5  -3   7    2.10    0.19
  -5  -3   8   13.07    0.31
  -5  -3   9    1.94    0.21
  -5  -3  10    0.00    0.19
  -5  -3  11   11.03    0.42
  -5  -3  12    8.96    0.36
  -5  -3  13    4.64    0.28
  -5  -3  14    0.00    0.25
  -5  -3  15    0.19    0.25
  -5  -3  16    0.59    0.27
  -5  -3  17    0.40    0.28
  -5  -3  18    1.25    0.45
  -5  -3  19    0.03    0.45
  -5  -3  20    0.26    0.44
  -5  -3  21    2.75    0.50
  -5  -3  22    0.43    0.49
  -5  -3  23    1.49    0.51
  -5  -2   1    7.41    0.30
  -5  -2   2   98.82    1.75
  -5  -2   3    0.48    0.35
  -5  -2   4   50.04    0.91
  -5  -2   5   28.05    0.53
  -5  -2   6    0.80    0.21
  -5  -2   7    7.28    0.34
  -5  -2   8    0.10    0.23
  -5  -2   9    0.45    0.19
  -5  -2  10    3.47    0.22
  -5  -2  11    0.00    0.26
  -5  -2  12   19.34    0.52
  -5  -2  13    0.52    0.46
  -5  -2  14   20.69    1.31
  -5  -2  15    4.54    0.46
  -5  -2  16    0.60    0.27
  -5  -2  17    1.37    0.29
  -5  -2  18    0.19    0.28
  -5  -2  19    1.82    0.46
  -5  -2  20    1.93    0.49
  -5  -2  22    0.73    0.49
  -5  -2  23    0.27    0.51
  -5  -2  24    1.04    0.51
  -5  -1   1    5.93    0.31
  -5  -1   2    0.25    0.18
  -5  -1   3   13.40    0.35
  -5  -1   4    6.14    0.27
  -5  -1   5    2.98    0.24
  -5  -1   6    2.94    0.35
  -5  -1   7    4.13    0.31
  -5  -1   8    0.04    0.19
  -5  -1   9    0.09    0.24
  -5  -1  10    0.04    0.19
  -5  -1  11    1.23    0.21
  -5  -1  12    1.47    0.34
  -5  -1  13    6.44    0.30
  -5  -1  14    1.58    0.27
  -5  -1  15    4.81    0.33
  -5  -1  16    0.00    0.27
  -5  -1  17    0.10    0.28
  -5  -1  18    1.73    0.29
  -5  -1  19    0.00    0.47
  -5  -1  20    5.56    0.52
  -5  -1  21    1.79    0.49
  -5  -1  22    0.51    0.50
  -5  -1  23    0.70    0.49
  -5  -1  24    0.73    0.52
  -5   0   1    0.54    0.18
  -5   0   2   17.01    0.46
  -5   0   3   19.80    0.44
  -5   0   4   13.51    0.47
  -5   0   5   38.82    0.58
  -5   0   6    6.46    0.30
  -5   0   7    7.80    0.32
  -5   0   8    0.07    0.19
  -5   0   9    0.01    0.19
  -5   0  10    3.04    0.23
  -5   0  11    0.05    0.20
  -5   0  12   36.45    0.72
  -5   0  13    0.21    0.25
  -5   0  14    0.10    0.25
  -5   0  15    0.06    0.26
  -5   0  16    0.10    0.27
  -5   0  17    0.30    0.28
  -5   0  18    0.98    0.73
  -5   0  19    0.49    0.30
  -5   0  20    0.35    0.47
  -5   0  21    0.28    0.48
  -5   0  22    0.90    0.49
  -5   0  23    0.03    0.47
  -5   0  24    3.92    0.58
  -5   1   1    1.87    0.23
  -5   1   2   15.94    0.38
  -5   1   3   18.55    0.35
  -5   1   4    0.03    0.19
  -5   1   5    0.07    0.20
  -5   1   6   19.85    0.38
  -5   1   7    0.95    0.20
  -5   1   8    6.15    0.29
  -5   1   9    2.50    0.23
  -5   1  10    3.36    0.23
  -5   1  11    5.15    0.34
  -5   1  12    0.00    0.28
  -5   1  13    2.25    0.27
  -5   1  14    0.10    0.26
  -5   1  15    0.75    0.27
  -5   1  16    0.05    0.27
  -5   1  17    0.42    0.29
  -5   1  18    3.46    0.35
  -5   1  19    0.58    0.31
  -5   1  20   25.60    0.86
  -5   1  21    2.13    0.51
  -5   1  22    4.59    0.56
  -5   1  23    2.72    0.52
  -5   1  24    0.81    0.49
  -5   2   1    1.14    0.48
  -5   2   2   10.02    0.40
  -5   2   3   15.91    0.37
  -5   2   4    9.27    0.27
  -5   2   5   20.66    0.39
  -5   2   6    0.20    0.19
  -5   2   7    0.71    0.20
  -5   2   8    2.10    0.20
  -5   2   9    0.01    0.20
  -5   2  10    7.49    0.33
  -5   2  11    0.41    0.24
  -5   2  12    8.27    0.38
  -5   2  13    2.65    0.45
  -5   2  14    0.24    0.30
  -5   2  15    0.18    0.27
  -5   2  16    0.36    0.28
  -5   2  17    0.53    0.30
  -5   2  18    0.48    0.30
  -5   2  19    1.36    0.31
  -5   2  20    3.25    0.49
  -5   2  21    0.04    0.46
  -5   2  22    0.95    0.49
  -5   2  23    0.45    0.50
  -5   2  24    0.45    0.52
  -5   3   1    9.17    0.32
  -5   3   2   41.60    0.78
  -5   3   3   20.13    0.35
  -5   3   4    3.54    0.23
  -5   3   5    1.60    0.20
  -5   3   6   50.97    0.84
  -5   3   7    2.44    0.26
  -5   3   8   42.31    0.78
  -5   3   9    2.92    0.20
  -5   3  10    0.38    0.20
  -5   3  11    5.09    0.30
  -5   3  12    1.50    0.37
  -5   3  13    0.57    0.26
  -5   3  14    0.39    0.26
  -5   3  15    0.00    0.27
  -5   3  16    0.24    0.29
  -5   3  17    0.50    0.30
  -5   3  18   11.52    0.48
  -5   3  19    0.61    0.32
  -5   3  20    4.26    0.35
  -5   3  21    1.28    0.49
  -5   3  22    0.01    0.49
  -5   3  23    4.91    0.56
  -5   3  24    1.51    0.51
  -5   4   1    5.82    0.29
  -5   4   2   32.69    0.71
  -5   4   3    6.78    0.29
  -5   4   4   29.41    0.58
  -5   4   5   21.01    0.42
  -5   4   6   33.44    0.56
  -5   4   7   34.69    0.64
  -5   4   8    0.20    0.30
  -5   4   9    7.55    0.23
  -5   4  10    2.32    0.22
  -5   4  11    0.26    0.36
  -5   4  12    0.00    0.25
  -5   4  13    3.20    0.31
  -5   4  14    0.10    0.27
  -5   4  15    7.33    0.74
  -5   4  16    0.16    0.51
  -5   4  17    0.69    0.40
  -5   4  18    0.23    0.31
  -5   4  19    7.36    1.02
  -5   4  20    0.33    0.32
  -5   4  21    0.95    0.43
  -5   4  22    0.02    0.46
  -5   4  23    0.52    0.50
  -5   4  24    0.92    0.51
  -5   5   1   13.68    0.63
  -5   5   2    8.62    0.29
  -5   5   3    1.73    0.19
  -5   5   4   12.35    0.33
  -5   5   5    8.05    0.31
  -5   5   6    6.17    0.29
  -5   5   7    0.54    0.19
  -5   5   8    0.00    0.20
  -5   5   9    4.37    0.23
  -5   5  10    0.37    0.32
  -5   5  11    1.89    0.38
  -5   5  12    1.11    0.25
  -5   5  13    1.64    0.29
  -5   5  14    1.39    0.29
  -5   5  15    1.66    0.31
  -5   5  16    0.28    0.30
  -5   5  17    2.52    0.33
  -5   5  18    4.41    0.37
  -5   5  19    0.11    0.32
  -5   5  20    0.01    0.32
  -5   5  21    3.83    0.38
  -5   5  22    1.13    0.50
  -5   5  23    1.30    0.50
  -5   6   1    0.10    0.16
  -5   6   2   34.23    0.63
  -5   6   3    8.70    0.28
  -5   6   4    5.97    0.27
  -5   6   5   10.37    0.32
  -5   6   6    6.32    0.32
  -5   6   7   22.21    0.54
  -5   6   8    1.35    0.21
  -5   6   9    6.31    0.26
  -5   6  10    2.33    0.22
  -5   6  11    1.10    0.30
  -5   6  12   25.43    0.62
  -5   6  13    0.89    0.28
  -5   6  14    2.13    0.50
  -5   6  15    7.19    0.38
  -5   6  16    0.01    0.49
  -5   6  17    2.75    0.34
  -5   6  18    0.81    0.33
  -5   6  19    2.43    0.57
  -5   6  20    0.00    0.70
  -5   6  21    2.21    0.36
  -5   6  22    1.60    0.37
  -5   6  23    0.00    0.50
  -5   7   1    1.03    0.16
  -5   7   2   14.22    0.36
  -5   7   3   11.57    0.37
  -5   7   4    9.92    0.30
  -5   7   5    0.17    0.18
  -5   7   6    0.64    0.30
  -5   7   7   10.54    0.35
  -5   7   8   20.72    0.53
  -5   7   9    7.25    0.27
  -5   7  10    3.21    0.25
  -5   7  11    0.62    0.26
  -5   7  12    6.42    0.31
  -5   7  13    0.02    0.28
  -5   7  14    2.60    0.32
  -5   7  15    0.86    0.31
  -5   7  16    5.19    0.42
  -5   7  17    0.04    0.31
  -5   7  18    0.02    0.32
  -5   7  19    0.16    0.34
  -5   7  20    2.77    0.45
  -5   7  21    0.84    0.35
  -5   7  22    1.57    0.40
  -5   7  23    0.06    0.51
  -5   8   1    6.11    0.22
  -5   8   2    0.42    0.17
  -5   8   3   12.61    0.39
  -5   8   4    0.09    0.28
  -5   8   5   20.99    0.42
  -5   8   6    7.73    0.33
  -5   8   7    0.71    0.21
  -5   8   8    0.20    0.21
  -5   8   9    0.61    0.23
  -5   8  10    8.91    0.40
  -5   8  11    0.00    0.27
  -5   8  12   30.48    1.13
  -5   8  13    6.97    0.42
  -5   8  14    0.72    0.52
  -5   8  15   10.39    0.68
  -5   8  16    0.10    0.31
  -5   8  17    2.06    0.37
  -5   8  18    0.14    0.33
  -5   8  19    0.16    0.36
  -5   8  20    0.31    0.34
  -5   8  21    0.01    0.34
  -5   8  22    5.51    0.55
  -5   9   1    0.01    0.19
  -5   9   2    2.05    0.32
  -5   9   3    0.63    0.18
  -5   9   4    0.01    0.65
  -5   9   5    2.56    0.20
  -5   9   6    1.41    0.20
  -5   9   7    8.00    0.35
  -5   9   8    0.60    0.23
  -5   9   9    0.01    0.24
  -5   9  10   17.10    0.46
  -5   9  11   30.53    0.74
  -5   9  12    2.23    0.31
  -5   9  13    0.00    0.59
  -5   9  14    0.10    0.31
  -5   9  15    1.77    0.34
  -5   9  16    0.02    0.32
  -5   9  17    0.10    0.96
  -5   9  18    0.00    0.53
  -5   9  19    0.37    0.34
  -5   9  20    1.69    0.95
  -5   9  21    0.30    0.35
  -5   9  22    0.50    0.36
  -5  10   1    0.09    0.18
  -5  10   2    3.52    0.24
  -5  10   3    9.42    0.33
  -5  10   4    0.12    0.20
  -5  10   5    8.41    0.30
  -5  10   6    5.26    0.24
  -5  10   7    2.79    0.26
  -5  10   8    0.00    0.28
  -5  10   9    0.02    0.27
  -5  10  10    4.92    0.33
  -5  10  11    1.12    0.30
  -5  10  12    4.08    0.35
  -5  10  13    0.05    0.30
  -5  10  14    0.40    0.32
  -5  10  15    1.47    0.34
  -5  10  16    1.00    0.34
  -5  10  17    0.82    0.34
  -5  10  18    0.39    0.35
  -5  10  19    1.03    0.36
  -5  10  20    2.28    0.38
  -5  10  21    0.00    0.40
  -5  11   1   10.01    0.27
  -5  11   2    0.03    0.17
  -5  11   3    0.20    0.18
  -5  11   4    2.34    0.23
  -5  11   5    0.10    0.21
  -5  11   6    9.43    0.31
  -5  11   7    0.04    0.31
  -5  11   8    3.96    0.29
  -5  11   9    1.35    0.28
  -5  11  10    0.04    0.29
  -5  11  11   10.45    0.47
  -5  11  12    3.68    0.35
  -5  11  13    1.65    0.32
  -5  11  14    6.88    0.40
  -5  11  15    1.54    0.68
  -5  11  16    1.04    0.54
  -5  11  17    0.00    0.33
  -5  11  18    1.21    0.37
  -5  11  19    1.20    0.36
  -5  11  20    0.01    0.35
  -5  11  21    1.58    0.82
  -5  12   1    4.74    0.43
  -5  12   2    0.16    0.18
  -5  12   3    2.25    0.22
  -5  12   4    0.00    0.20
  -5  12   5    0.54    0.22
  -5  12   6    0.17    0.22
  -5  12   7    0.00    0.23
  -5  12   8    3.32    0.30
  -5  12   9    0.40    0.51
  -5  12  10    0.00    0.33
  -5  12  11    0.71    0.31
  -5  12  12    1.01    0.32
  -5  12  13    4.77    0.38
  -5  12  14    3.23    0.36
  -5  12  15    1.21    0.35
  -5  12  16    0.00    0.33
  -5  12  17    0.22    0.35
  -5  12  18    0.01    0.49
  -5  12  19    0.07    0.36
  -5  12  20    0.86    0.50
  -5  13   1    0.91    0.31
  -5  13   2    7.32    0.35
  -5  13   3    0.72    0.30
  -5  13   4    5.70    0.56
  -5  13   5    2.19    0.23
  -5  13   6    0.09    0.23
  -5  13   7    0.24    0.24
  -5  13   8    1.28    0.28
  -5  13   9    7.40    0.50
  -5  13  10    0.23    0.46
  -5  13  11    0.46    0.31
  -5  13  12    0.21    0.31
  -5  13  13    0.01    0.33
  -5  13  14    5.96    0.57
  -5  13  15    0.65    0.34
  -5  13  16    1.17    0.36
  -5  13  17    0.26    0.36
  -5  13  18    0.41    0.37
  -5  13  19    2.34    0.47
  -5  14   1    1.07    0.31
  -5  14   2    0.82    0.30
  -5  14   3    0.71    0.31
  -5  14   4    0.03    0.34
  -5  14   5    0.00    0.22
  -5  14   6    1.16    0.24
  -5  14   7    0.04    0.36
  -5  14   8    0.06    0.34
  -5  14   9    2.92    0.31
  -5  14  10    1.75    0.31
  -5  14  11    1.46    0.49
  -5  14  12    9.96    0.48
  -5  14  13    3.99    0.54
  -5  14  14    6.35    0.95
  -5  14  15   10.75    0.50
  -5  14  16    0.03    0.35
  -5  14  17    2.40    0.51
  -5  14  18    0.39    0.79
  -5  15   1    2.48    0.33
  -5  15   2    0.52    0.32
  -5  15   3    0.51    0.36
  -5  15   4    0.20    0.34
  -5  15   5    0.24    0.66
  -5  15   6    3.31    0.46
  -5  15   7    0.21    0.28
  -5  15   8    0.01    0.29
  -5  15   9    5.88    0.37
  -5  15  10    2.50    0.32
  -5  15  11    0.84    0.32
  -5  15  12    2.39    0.35
  -5  15  13    5.36    0.40
  -5  15  14    0.01    0.43
  -5  15  15    5.69    0.45
  -5  15  16    0.63    0.36
  -5  15  17    0.27    0.36
  -5  16   1    1.11    0.34
  -5  16   2    0.32    0.33
  -5  16   3    2.71    0.36
  -5  16   4    3.38    0.39
  -5  16   5    1.28    0.45
  -5  16   6    0.90    0.45
  -5  16   7    3.24    0.48
  -5  16   8    5.14    0.54
  -5  16   9    0.08    0.44
  -5  16  10   10.10    0.47
  -5  16  11    0.00    0.31
  -5  16  12    6.61    0.41
  -5  16  13    0.00    0.34
  -5  16  14    0.21    0.37
  -5  16  15    0.34    0.35
  -5  16  16    1.14    0.37
  -5  17   1    0.98    0.35
  -5  17   2    0.16    0.33
  -5  17   3    5.92    0.41
  -5  17   4    0.20    0.35
  -5  17   5    0.00    0.43
  -5  17   6    2.72    0.50
  -5  17   7    0.04    0.44
  -5  17   8    0.03    0.45
  -5  17   9    0.01    0.45
  -5  17  10    0.97    0.48
  -5  17  11    1.29    0.49
  -5  17  12    4.17    0.44
  -5  17  13    2.26    0.36
  -5  17  14    1.38    0.36
  -5  17  15    0.20    0.35
  -5  18   1    0.87    0.35
  -5  18   2    0.00    0.34
  -5  18   3    0.98    0.36
  -5  18   4    3.10    0.47
  -5  18   5    3.75    0.52
  -5  18   6    0.17    0.45
  -5  18   7    1.38    0.47
  -5  18   8    5.01    0.56
  -5  18   9    2.47    0.51
  -5  18  10   12.32    0.72
  -5  18  11    2.37    0.51
  -5  18  12    2.50    0.54
  -5  18  13    8.47    0.71
  -5  19   1    3.73    0.64
  -5  19   2    0.15    0.35
  -5  19   3    0.05    0.42
  -5  19   4    0.98    0.45
  -5  19   5    0.90    0.46
  -5  19   6    4.95    0.55
  -5  19   7    0.02    0.45
  -5  19   8    0.48    0.48
  -5  19   9    0.05    0.47
  -5  19  10    0.43    0.47
  -5  19  11    0.59    0.49
  -5  20   1    1.79    0.47
  -5  20   2    1.59    0.45
  -5  20   3    0.04    0.44
  -5  20   4    0.22    0.44
  -5  20   5    0.08    0.44
  -5  20   6    1.40    0.47
  -5  20   7    0.01    0.46
  -5  20   8    1.98    0.50
  -4 -22   1    0.28    0.46
  -4 -22   2    1.77    0.49
  -4 -22   3    0.02    0.47
  -4 -22   4    7.51    0.60
  -4 -22   5    0.37    0.47
  -4 -21   1    3.40    0.51
  -4 -21   2    3.52    0.50
  -4 -21   3    0.06    0.45
  -4 -21   4    0.35    0.46
  -4 -21   5    0.64    0.46
  -4 -21   6    1.62    0.49
  -4 -21   7    0.00    0.45
  -4 -21   8    1.51    0.48
  -4 -20   1    1.03    0.46
  -4 -20   2    1.98    0.47
  -4 -20   3    3.04    0.49
  -4 -20   4    6.27    0.56
  -4 -20   5    0.43    0.44
  -4 -20   6    1.24    0.46
  -4 -20   7    3.40    0.51
  -4 -20   8    0.01    0.43
  -4 -20   9    0.12    0.46
  -4 -20  10    0.71    0.45
  -4 -19   1    0.07    0.28
  -4 -19   2    0.63    0.44
  -4 -19   3    0.87    0.45
  -4 -19   4    6.07    0.53
  -4 -19   5    1.12    0.45
  -4 -19   6    0.03    0.42
  -4 -19   7    2.05    0.46
  -4 -19   8    1.20    0.45
  -4 -19   9    0.00    0.43
  -4 -19  10    0.01    0.44
  -4 -19  11    1.01    0.46
  -4 -19  12    0.68    0.46
  -4 -18   1    3.87    0.32
  -4 -18   2    2.71    0.29
  -4 -18   3    1.06    0.27
  -4 -18   4    8.78    0.65
  -4 -18   5    8.06    0.52
  -4 -18   6    0.00    0.42
  -4 -18   7    2.17    0.45
  -4 -18   8    0.00    0.41
  -4 -18   9    0.38    0.44
  -4 -18  10    0.00    0.43
  -4 -18  11    1.78    0.46
  -4 -18  12    0.84    0.45
  -4 -18  13    1.18    0.47
  -4 -17   1    8.53    0.55
  -4 -17   2    0.49    0.27
  -4 -17   3    7.62    0.56
  -4 -17   4    6.07    0.39
  -4 -17   5    0.03    0.41
  -4 -17   6    0.02    0.41
  -4 -17   7    0.43    0.42
  -4 -17   8    0.39    0.43
  -4 -17   9    0.04    0.41
  -4 -17  10    1.05    0.43
  -4 -17  11    0.24    0.43
  -4 -17  12    0.01    0.43
  -4 -17  13    1.78    0.46
  -4 -17  14    0.57    0.47
  -4 -17  15    1.29    0.48
  -4 -16   1    0.31    0.25
  -4 -16   2    0.02    0.26
  -4 -16   3    7.71    0.37
  -4 -16   4    0.61    0.40
  -4 -16   5    9.12    0.34
  -4 -16   6    0.01    0.53
  -4 -16   7    1.95    0.33
  -4 -16   8    0.13    0.41
  -4 -16   9    0.09    0.41
  -4 -16  10    2.33    0.45
  -4 -16  11    0.14    0.42
  -4 -16  12    1.66    0.44
  -4 -16  13    0.00    0.43
  -4 -16  14    0.31    0.44
  -4 -16  15    0.73    0.46
  -4 -16  16    1.01    0.48
  -4 -15   1    6.35    0.35
  -4 -15   2    2.01    0.25
  -4 -15   3   13.60    0.38
  -4 -15   4    9.42    0.36
  -4 -15   5    3.54    0.26
  -4 -15   6   23.50    0.45
  -4 -15   7    1.38    0.40
  -4 -15   8    0.88    0.41
  -4 -15   9    5.11    0.49
  -4 -15  10    0.52    0.41
  -4 -15  11    9.67    0.66
  -4 -15  12    0.16    0.41
  -4 -15  13   11.06    0.62
  -4 -15  14    0.62    0.44
  -4 -15  15    0.00    0.42
  -4 -15  16    1.76    0.48
  -4 -15  17    0.82    0.46
  -4 -14   1    4.81    0.23
  -4 -14   2    0.02    0.20
  -4 -14   3   17.43    0.45
  -4 -14   4    2.03    0.22
  -4 -14   5    2.03    0.21
  -4 -14   6    0.07    0.23
  -4 -14   7    0.01    0.29
  -4 -14   8    0.00    0.23
  -4 -14   9    3.77    0.46
  -4 -14  10    0.01    0.40
  -4 -14  11    4.77    0.48
  -4 -14  12    4.07    0.48
  -4 -14  13    0.01    0.40
  -4 -14  14    3.74    0.49
  -4 -14  15    0.97    0.44
  -4 -14  16    1.04    0.46
  -4 -14  17    0.25    0.44
  -4 -14  18    0.06    0.46
  -4 -13   1   39.45    0.74
  -4 -13   2   18.44    0.38
  -4 -13   3    6.79    0.27
  -4 -13   4    9.90    0.37
  -4 -13   5    2.93    0.24
  -4 -13   6    9.77    0.36
  -4 -13   7    1.07    0.23
  -4 -13   8    6.96    0.43
  -4 -13   9    2.09    0.45
  -4 -13  10    9.34    0.59
  -4 -13  11    1.00    0.40
  -4 -13  12    3.40    0.45
  -4 -13  13    1.29    0.43
  -4 -13  14    3.21    0.46
  -4 -13  15    1.09    0.45
  -4 -13  16    0.02    0.42
  -4 -13  17    0.39    0.45
  -4 -13  18    1.17    0.46
  -4 -13  19    5.37    0.54
  -4 -12   1    0.94    0.19
  -4 -12   2    2.57    0.19
  -4 -12   3    3.12    0.32
  -4 -12   4    0.48    0.21
  -4 -12   5    0.55    0.19
  -4 -12   6    0.35    0.22
  -4 -12   7    5.04    0.26
  -4 -12   8    0.55    0.23
  -4 -12   9    0.14    0.38
  -4 -12  10    2.89    0.32
  -4 -12  11    0.00    0.38
  -4 -12  12    5.62    0.56
  -4 -12  13    0.20    0.41
  -4 -12  14    6.75    0.52
  -4 -12  15    0.18    0.41
  -4 -12  16    0.04    0.42
  -4 -12  17    0.00    0.43
  -4 -12  18    2.86    0.49
  -4 -12  19    6.48    0.58
  -4 -12  20    0.03    0.47
  -4 -11   1    2.99    0.19
  -4 -11   2    0.56    0.18
  -4 -11   3    1.48    0.20
  -4 -11   4    8.30    0.32
  -4 -11   5    0.38    0.21
  -4 -11   6    6.59    0.24
  -4 -11   7    1.05    0.20
  -4 -11   8    0.23    0.19
  -4 -11   9    2.97    0.21
  -4 -11  10    0.76    0.36
  -4 -11  11    0.73    0.24
  -4 -11  12    3.49    0.45
  -4 -11  13    0.00    0.38
  -4 -11  14    0.38    0.41
  -4 -11  15    2.84    0.46
  -4 -11  16    0.01    0.42
  -4 -11  17    4.20    0.48
  -4 -11  18    0.04    0.45
  -4 -11  19    4.10    0.50
  -4 -11  20    1.42    0.47
  -4 -11  21    2.43    0.50
  -4 -10   1    4.87    0.29
  -4 -10   2   18.15    0.41
  -4 -10   3   11.41    0.43
  -4 -10   4    2.47    0.22
  -4 -10   5    3.84    0.22
  -4 -10   6    1.23    0.28
  -4 -10   7   14.53    0.37
  -4 -10   8    0.98    0.19
  -4 -10   9    0.21    0.19
  -4 -10  10    1.87    0.20
  -4 -10  11    0.04    0.21
  -4 -10  12    5.15    0.38
  -4 -10  13    0.60    0.38
  -4 -10  14    3.97    0.46
  -4 -10  15    0.82    0.41
  -4 -10  16    0.79    0.43
  -4 -10  17    1.18    0.45
  -4 -10  18    3.02    0.49
  -4 -10  19    0.01    0.44
  -4 -10  20    1.68    0.47
  -4 -10  21    3.77    0.52
  -4  -9   1    0.07    0.17
  -4  -9   2    0.57    0.22
  -4  -9   3    2.42    0.19
  -4  -9   4    0.22    0.19
  -4  -9   5    0.23    0.18
  -4  -9   6    2.80    0.20
  -4  -9   7    2.38    0.20
  -4  -9   8   10.48    0.32
  -4  -9   9    0.02    0.27
  -4  -9  10    1.84    0.21
  -4  -9  11    1.15    0.20
  -4  -9  12    0.90    0.31
  -4  -9  13    0.98    0.24
  -4  -9  14    0.32    0.39
  -4  -9  15    6.71    0.60
  -4  -9  16    0.01    0.41
  -4  -9  17    0.23    0.41
  -4  -9  18    5.39    0.53
  -4  -9  19    0.25    0.43
  -4  -9  20    3.70    0.49
  -4  -9  21    2.19    0.48
  -4  -9  22    2.18    0.52
  -4  -8   1    1.79    0.18
  -4  -8   2   10.76    0.35
  -4  -8   3    0.64    0.29
  -4  -8   4    0.01    0.18
  -4  -8   5   22.70    0.50
  -4  -8   6    0.81    0.18
  -4  -8   7    5.86    0.27
  -4  -8   8    2.43    0.20
  -4  -8   9    0.04    0.19
  -4  -8  10    8.85    0.33
  -4  -8  11    2.52    0.21
  -4  -8  12    9.30    0.33
  -4  -8  13    4.90    0.26
  -4  -8  14    0.05    0.38
  -4  -8  15    1.00    0.40
  -4  -8  16    3.75    0.46
  -4  -8  17    3.85    0.47
  -4  -8  18    4.87    0.52
  -4  -8  19    0.78    0.44
  -4  -8  20    0.07    0.44
  -4  -8  21    4.39    0.56
  -4  -8  22    6.72    0.57
  -4  -8  23    0.18    0.46
  -4  -7   1   39.38    0.57
  -4  -7   2   11.87    0.27
  -4  -7   3    0.11    0.19
  -4  -7   4    0.42    0.18
  -4  -7   5    0.37    0.18
  -4  -7   6   62.83    0.87
  -4  -7   7    0.01    0.20
  -4  -7   8   12.06    0.33
  -4  -7   9   10.14    0.31
  -4  -7  10   25.45    0.59
  -4  -7  11    8.19    0.93
  -4  -7  12    1.78    0.21
  -4  -7  13   16.67    0.49
  -4  -7  14    1.23    0.24
  -4  -7  15    2.01    0.40
  -4  -7  16    1.28    0.43
  -4  -7  17    1.19    0.43
  -4  -7  18    1.39    0.44
  -4  -7  19    0.78    0.43
  -4  -7  20    7.06    0.53
  -4  -7  21    3.15    0.49
  -4  -7  22    2.43    0.51
  -4  -7  23    2.47    0.52
  -4  -6   1   25.62    0.68
  -4  -6   3    5.04    0.18
  -4  -6   4   17.81    0.30
  -4  -6   5    0.00    0.23
  -4  -6   6    0.14    0.18
  -4  -6   7    8.36    0.29
  -4  -6   8    4.03    0.26
  -4  -6   9    4.65    0.38
  -4  -6  10    0.13    0.18
  -4  -6  11    0.00    0.18
  -4  -6  12    1.05    0.48
  -4  -6  13    7.60    0.53
  -4  -6  14    5.09    0.30
  -4  -6  15    8.58    0.49
  -4  -6  16    1.80    0.42
  -4  -6  17    0.78    0.41
  -4  -6  18    1.35    0.44
  -4  -6  19    0.32    0.42
  -4  -6  20    2.10    0.46
  -4  -6  21    0.82    0.46
  -4  -6  22    0.26    0.46
  -4  -6  23    1.44    0.51
  -4  -5   1    0.13    0.19
  -4  -5   2    1.80    0.26
  -4  -5   3    8.38    0.38
  -4  -5   4  106.24    1.85
  -4  -5   5    0.17    0.20
  -4  -5   6   77.70    1.55
  -4  -5   7   16.19    0.49
  -4  -5   8    2.25    0.60
  -4  -5   9    0.10    0.27
  -4  -5  10    0.11    0.18
  -4  -5  11    0.02    0.19
  -4  -5  12    0.03    0.19
  -4  -5  13    5.76    0.28
  -4  -5  14    5.77    0.27
  -4  -5  15    1.14    0.36
  -4  -5  16    5.22    0.32
  -4  -5  17    0.02    0.39
  -4  -5  18    1.28    0.42
  -4  -5  19    0.44    0.43
  -4  -5  20    0.27    0.44
  -4  -5  21    5.63    0.54
  -4  -5  22    0.83    0.46
  -4  -5  23    4.59    0.54
  -4  -5  24    0.00    0.46
  -4  -4   1    0.91    0.24
  -4  -4   2    0.80    0.24
  -4  -4   3    2.67    0.20
  -4  -4   4    7.71    0.60
  -4  -4   5   33.68    0.82
  -4  -4   6    3.24    0.24
  -4  -4   7   24.28    0.50
  -4  -4   8    2.08    0.22
  -4  -4   9    4.80    0.26
  -4  -4  10    3.14    0.20
  -4  -4  11    0.02    0.18
  -4  -4  12   25.29    0.49
  -4  -4  13    0.44    0.33
  -4  -4  14   10.95    0.31
  -4  -4  15    1.31    0.40
  -4  -4  16    1.46    0.25
  -4  -4  17    1.13    0.41
  -4  -4  18    1.45    0.43
  -4  -4  19    0.18    0.43
  -4  -4  20    0.17    0.43
  -4  -4  21    0.07    0.45
  -4  -4  22    0.77    0.47
  -4  -4  23    0.17    0.47
  -4  -4  24    5.06    0.56
  -4  -3   1    0.07    0.15
  -4  -3   2   54.02    0.87
  -4  -3   3    1.45    0.16
  -4  -3   4   35.91    0.61
  -4  -3   5    7.75    0.70
  -4  -3   6    0.32    0.17
  -4  -3   7   15.49    0.45
  -4  -3   8    3.76    0.22
  -4  -3   9   23.70    0.43
  -4  -3  10    3.32    0.22
  -4  -3  11    1.78    0.20
  -4  -3  12    0.08    0.20
  -4  -3  13    0.85    0.19
  -4  -3  14   27.90    0.60
  -4  -3  15    0.92    0.24
  -4  -3  16    1.32    0.25
  -4  -3  17    0.05    0.25
  -4  -3  18    0.00    0.42
  -4  -3  19    0.00    0.42
  -4  -3  20    8.98    0.65
  -4  -3  21    3.68    0.49
  -4  -3  22    4.17    0.51
  -4  -3  23    0.00    0.48
  -4  -3  24    0.04    0.47
  -4  -2   1    0.56    0.13
  -4  -2   2    4.59    0.24
  -4  -2   3    8.08    0.28
  -4  -2   4    1.10    0.24
  -4  -2   5   56.06    1.16
  -4  -2   6    0.36    0.18
  -4  -2   7   11.34    0.30
  -4  -2   8    3.03    0.25
  -4  -2   9    5.98    0.25
  -4  -2  10    0.51    0.19
  -4  -2  11    4.59    0.23
  -4  -2  12   52.57    0.95
  -4  -2  13   12.37    0.38
  -4  -2  14   32.46    0.62
  -4  -2  15    7.21    0.35
  -4  -2  16    1.21    0.26
  -4  -2  17    0.37    0.31
  -4  -2  18    2.16    0.28
  -4  -2  19    0.03    0.42
  -4  -2  20    3.52    0.51
  -4  -2  21    0.88    0.46
  -4  -2  22   10.88    0.69
  -4  -2  23    0.73    0.48
  -4  -2  24    1.72    0.51
  -4  -2  25    0.46    0.49
  -4  -1   1   19.35    0.27
  -4  -1   2   43.87    0.79
  -4  -1   3    1.27    0.14
  -4  -1   4    0.73    0.49
  -4  -1   5   15.07    0.31
  -4  -1   6    0.09    0.27
  -4  -1   7    1.78    0.18
  -4  -1   8   25.46    0.49
  -4  -1   9    4.78    0.21
  -4  -1  10    1.99    0.36
  -4  -1  11    0.08    0.19
  -4  -1  12    1.30    0.19
  -4  -1  13    0.45    0.20
  -4  -1  14    2.87    0.22
  -4  -1  15    0.06    0.23
  -4  -1  16    0.15    0.25
  -4  -1  17    0.48    0.27
  -4  -1  18    0.32    0.27
  -4  -1  19    2.34    0.47
  -4  -1  20    4.32    0.54
  -4  -1  21    1.44    0.48
  -4  -1  22    0.43    0.46
  -4  -1  23    0.01    0.47
  -4  -1  24    0.17    0.48
  -4  -1  25    3.51    0.53
  -4   0   1   25.53    0.45
  -4   0   2    7.36    0.38
  -4   0   3   30.67    0.43
  -4   0   4    2.24    0.20
  -4   0   5   41.63    0.79
  -4   0   6    0.16    0.35
  -4   0   7    0.00    0.29
  -4   0   8   51.75    0.92
  -4   0   9    1.39    0.18
  -4   0  10    1.94    0.19
  -4   0  11    0.00    0.19
  -4   0  12    2.87    0.22
  -4   0  13    2.27    0.21
  -4   0  14    0.03    0.23
  -4   0  15    2.83    0.30
  -4   0  16    2.56    0.34
  -4   0  17    0.61    0.27
  -4   0  18    0.37    0.28
  -4   0  19    0.77    0.28
  -4   0  20    5.31    0.50
  -4   0  21    0.34    0.45
  -4   0  22    6.67    0.58
  -4   0  23    0.94    0.49
  -4   0  24    0.02    0.46
  -4   0  25    0.59    0.50
  -4   1   1   21.58    0.30
  -4   1   2    1.11    0.16
  -4   1   3   24.52    0.55
  -4   1   4   16.77    0.68
  -4   1   5    0.00    0.23
  -4   1   6   32.87    1.90
  -4   1   7    6.83    0.51
  -4   1   8    3.12    0.23
  -4   1   9   26.07    0.54
  -4   1  10    0.63    0.19
  -4   1  11    6.93    0.29
  -4   1  12    0.06    0.25
  -4   1  13    6.63    0.31
  -4   1  14    2.90    0.24
  -4   1  15    0.02    0.24
  -4   1  16    3.25    0.67
  -4   1  17    0.06    0.36
  -4   1  18    0.10    0.27
  -4   1  19    0.35    0.33
  -4   1  20    3.79    0.50
  -4   1  21   19.87    0.83
  -4   1  22    2.39    0.49
  -4   1  23    3.19    0.53
  -4   1  24    0.00    0.47
  -4   1  25    0.25    0.48
  -4   2   1    0.82    0.15
  -4   2   2    7.19    0.21
  -4   2   3    0.18    0.15
  -4   2   4    1.79    0.21
  -4   2   5    2.89    0.44
  -4   2   6   17.28    0.32
  -4   2   7    0.01    0.20
  -4   2   8   39.38    0.86
  -4   2   9    1.88    0.23
  -4   2  10   24.92    0.47
  -4   2  11    4.32    0.25
  -4   2  12    4.37    0.36
  -4   2  13    2.60    0.21
  -4   2  14    1.36    0.24
  -4   2  15    0.23    0.25
  -4   2  16    1.67    0.57
  -4   2  17    0.30    0.28
  -4   2  18    4.82    0.35
  -4   2  19    1.56    0.30
  -4   2  20    7.15    0.60
  -4   2  21    1.28    0.48
  -4   2  22    0.92    0.48
  -4   2  23    0.23    0.49
  -4   2  24    0.00    0.48
  -4   2  25    0.83    0.52
  -4   3   1   20.70    0.34
  -4   3   2    7.61    0.25
  -4   3   3    7.49    0.90
  -4   3   4   18.55    0.41
  -4   3   5    0.12    0.40
  -4   3   6    9.36    0.31
  -4   3   7   36.99    0.49
  -4   3   8    0.01    0.20
  -4   3   9   34.32    0.69
  -4   3  10    3.07    0.26
  -4   3  11    7.49    0.27
  -4   3  12    5.82    0.32
  -4   3  13    3.55    0.26
  -4   3  14    0.01    0.24
  -4   3  15    0.27    0.25
  -4   3  16   14.48    0.70
  -4   3  17    0.82    0.28
  -4   3  18    9.60    0.44
  -4   3  19    2.09    0.33
  -4   3  20    4.35    0.62
  -4   3  21    5.32    0.54
  -4   3  22    0.00    0.46
  -4   3  23    6.41    0.60
  -4   3  24    0.18    0.49
  -4   3  25    0.00    0.48
  -4   4   1    0.12    0.35
  -4   4   2    8.96    0.28
  -4   4   3   27.58    0.44
  -4   4   4   13.75    0.38
  -4   4   5    2.87    0.22
  -4   4   6   38.80    0.52
  -4   4   7   16.02    0.35
  -4   4   8    2.70    0.29
  -4   4   9    0.17    0.20
  -4   4  10    4.05    0.24
  -4   4  11    0.07    0.21
  -4   4  12   16.98    1.56
  -4   4  13    0.80    0.25
  -4   4  14    2.26    0.27
  -4   4  15    1.49    0.27
  -4   4  16    0.35    0.29
  -4   4  17    4.46    0.33
  -4   4  18    0.02    0.30
  -4   4  19    4.83    0.36
  -4   4  20    0.41    0.31
  -4   4  21    0.52    0.31
  -4   4  22    2.05    0.49
  -4   4  23    0.83    0.48
  -4   4  24    5.08    0.57
  -4   4  25    0.60    0.50
  -4   5   1    2.36    0.30
  -4   5   2   62.55    0.84
  -4   5   3    0.44    0.18
  -4   5   4   13.98    0.38
  -4   5   5    0.41    0.21
  -4   5   6    1.73    0.23
  -4   5   7   95.89    1.32
  -4   5   8    3.11    0.20
  -4   5   9   15.07    0.43
  -4   5  10    0.21    0.21
  -4   5  11    0.00    0.20
  -4   5  12    2.07    0.28
  -4   5  13    0.82    0.52
  -4   5  14   13.24    0.43
  -4   5  15    0.05    0.27
  -4   5  16    0.00    0.28
  -4   5  17    1.14    0.30
  -4   5  18    0.35    0.31
  -4   5  19    0.81    0.32
  -4   5  20    1.89    0.33
  -4   5  21    3.32    0.35
  -4   5  22    0.56    0.48
  -4   5  23    0.38    0.48
  -4   5  24    3.84    0.55
  -4   5  25    0.11    0.49
  -4   6   1    0.00    0.17
  -4   6   2   11.96    0.32
  -4   6   3   12.75    0.32
  -4   6   4    0.57    0.29
  -4   6   5    3.39    0.30
  -4   6   6    0.00    0.19
  -4   6   7   19.08    0.36
  -4   6   8    3.29    0.26
  -4   6   9    1.70    0.25
  -4   6  10   17.69    0.57
  -4   6  11    2.80    0.30
  -4   6  12    0.26    0.30
  -4   6  13    5.04    0.35
  -4   6  14    0.01    0.27
  -4   6  15    2.88    0.31
  -4   6  16    0.19    0.29
  -4   6  17    0.62    0.30
  -4   6  18    0.04    0.31
  -4   6  19    0.41    0.62
  -4   6  20    6.45    0.40
  -4   6  21    0.02    0.32
  -4   6  22    4.09    0.69
  -4   6  23    0.78    0.50
  -4   6  24    2.49    0.54
  -4   7   1    4.70    0.22
  -4   7   2    0.12    0.18
  -4   7   3    7.50    0.32
  -4   7   4    9.82    0.35
  -4   7   5    0.29    0.26
  -4   7   6    0.01    0.29
  -4   7   7    0.42    0.19
  -4   7   8    0.35    0.21
  -4   7   9    2.92    0.24
  -4   7  10    4.83    0.22
  -4   7  11    1.63    0.63
  -4   7  12    5.04    0.45
  -4   7  13    2.45    0.38
  -4   7  14    3.76    0.30
  -4   7  15    4.63    0.35
  -4   7  16    1.49    0.31
  -4   7  17    5.40    0.36
  -4   7  18    0.79    0.32
  -4   7  19    0.43    0.32
  -4   7  20    0.02    0.32
  -4   7  21    0.00    0.58
  -4   7  22    0.33    0.39
  -4   7  23    2.29    0.53
  -4   7  24    0.59    0.51
  -4   8   1   34.94    0.63
  -4   8   2    0.43    0.17
  -4   8   3    3.65    0.25
  -4   8   4    4.01    0.27
  -4   8   5    3.74    0.23
  -4   8   6    0.17    0.27
  -4   8   7    2.37    0.21
  -4   8   8    1.19    0.20
  -4   8   9   10.09    0.47
  -4   8  10   11.80    0.35
  -4   8  11    2.98    0.27
  -4   8  12    2.91    0.44
  -4   8  13   19.41    0.60
  -4   8  14    0.13    0.28
  -4   8  15    0.22    0.29
  -4   8  16    1.68    0.44
  -4   8  17    0.36    0.32
  -4   8  18    1.56    0.33
  -4   8  19    1.37    0.37
  -4   8  20    0.21    0.33
  -4   8  21    0.00    0.33
  -4   8  22    2.51    0.37
  -4   8  23    2.21    0.53
  -4   8  24    0.00    0.49
  -4   9   1    0.31    0.16
  -4   9   2    6.01    0.28
  -4   9   3    0.17    0.18
  -4   9   4    4.16    0.21
  -4   9   5    5.74    0.30
  -4   9   6    3.18    0.23
  -4   9   7    0.40    0.20
  -4   9   8    0.68    0.22
  -4   9   9    0.49    0.21
  -4   9  10    1.74    0.23
  -4   9  11    4.23    0.31
  -4   9  12    3.14    0.30
  -4   9  13    1.20    0.63
  -4   9  14    5.77    0.71
  -4   9  15    4.99    0.36
  -4   9  16    7.25    0.39
  -4   9  17    0.06    0.35
  -4   9  18    1.41    0.40
  -4   9  19    0.10    0.33
  -4   9  20    0.00    0.42
  -4   9  21    0.59    0.34
  -4   9  22    0.00    0.65
  -4   9  23    1.65    0.36
  -4  10   1    6.81    0.29
  -4  10   2    0.09    0.17
  -4  10   3    0.88    0.19
  -4  10   4    0.60    0.19
  -4  10   5    0.37    0.18
  -4  10   6    0.14    0.19
  -4  10   7    0.00    0.20
  -4  10   8    0.74    0.21
  -4  10   9    1.59    0.24
  -4  10  10    0.01    0.25
  -4  10  11   26.42    0.82
  -4  10  12    1.26    0.43
  -4  10  13    0.03    0.29
  -4  10  14    2.03    0.31
  -4  10  15    0.01    0.43
  -4  10  16    3.28    0.36
  -4  10  17    1.07    0.33
  -4  10  18    0.44    0.34
  -4  10  19    0.49    0.34
  -4  10  20    0.33    0.59
  -4  10  21    0.64    0.50
  -4  10  22    0.01    0.35
  -4  10  23    0.01    0.43
  -4  11   1    0.45    0.18
  -4  11   2    0.75    0.18
  -4  11   3    2.08    0.18
  -4  11   4    4.83    0.21
  -4  11   5    0.77    0.19
  -4  11   6    1.93    0.20
  -4  11   7    4.72    0.26
  -4  11   8    2.62    0.25
  -4  11   9    7.58    0.35
  -4  11  10    1.44    0.47
  -4  11  11   53.65    1.38
  -4  11  12   51.39    1.06
  -4  11  13    0.23    0.31
  -4  11  14   30.97    1.07
  -4  11  15    3.45    0.35
  -4  11  16   15.54    0.57
  -4  11  17    0.06    0.33
  -4  11  18    2.11    0.36
  -4  11  19    0.09    0.59
  -4  11  20    0.14    0.34
  -4  11  21    0.46    0.40
  -4  11  22    0.28    0.35
  -4  12   1    4.27    0.24
  -4  12   2    9.52    0.35
  -4  12   3    4.32    0.21
  -4  12   4    0.74    0.19
  -4  12   5    1.39    0.23
  -4  12   6    6.11    0.37
  -4  12   7    0.00    0.22
  -4  12   8    0.38    0.23
  -4  12   9    1.57    0.28
  -4  12  10   18.65    0.74
  -4  12  11    0.42    0.29
  -4  12  12   22.77    0.63
  -4  12  13    1.46    0.50
  -4  12  14    3.26    0.36
  -4  12  15   13.95    0.52
  -4  12  16    4.21    0.38
  -4  12  17    7.82    0.44
  -4  12  18    2.51    0.61
  -4  12  19    0.89    0.54
  -4  12  20    0.11    0.35
  -4  12  21    0.95    0.37
  -4  12  22    0.04    0.35
  -4  13   1    2.84    0.19
  -4  13   2   12.21    0.37
  -4  13   3    0.01    0.19
  -4  13   4    4.26    0.22
  -4  13   5    2.10    0.23
  -4  13   6    1.95    0.28
  -4  13   7    5.00    0.27
  -4  13   8    1.76    0.41
  -4  13   9   16.31    0.54
  -4  13  10    0.07    0.29
  -4  13  11    0.81    0.31
  -4  13  12    0.18    0.31
  -4  13  13    1.49    0.63
  -4  13  14   13.35    0.59
  -4  13  15    0.45    0.34
  -4  13  16    0.71    0.48
  -4  13  17    0.60    0.34
  -4  13  18    1.38    0.45
  -4  13  19    1.89    0.37
  -4  13  20    0.06    0.58
  -4  13  21    0.51    0.36
  -4  14   1    0.07    0.36
  -4  14   2    0.01    0.28
  -4  14   3   10.66    0.38
  -4  14   4    0.63    0.22
  -4  14   5    1.24    0.22
  -4  14   6    5.87    0.64
  -4  14   7    4.08    0.29
  -4  14   8    1.05    0.28
  -4  14   9    0.09    0.28
  -4  14  10   24.78    0.64
  -4  14  11    4.17    0.64
  -4  14  12   14.62    1.06
  -4  14  13    0.78    0.33
  -4  14  14    0.16    0.33
  -4  14  15    3.99    0.49
  -4  14  16    0.79    0.43
  -4  14  17    3.75    0.38
  -4  14  18    0.00    0.35
  -4  14  19    2.10    0.61
  -4  14  20    0.07    0.35
  -4  15   1    2.68    0.32
  -4  15   2    6.56    0.46
  -4  15   3    0.41    0.30
  -4  15   4    0.09    0.80
  -4  15   5    1.53    0.24
  -4  15   6    0.33    0.23
  -4  15   7    5.58    0.32
  -4  15   8    1.16    0.29
  -4  15   9    5.31    0.36
  -4  15  10   14.31    0.50
  -4  15  11    0.00    0.30
  -4  15  12   12.80    0.50
  -4  15  13    0.40    0.33
  -4  15  14    3.27    0.53
  -4  15  15    6.06    0.42
  -4  15  16    0.02    0.34
  -4  15  17    4.55    0.40
  -4  15  18    0.61    0.39
  -4  15  19    0.83    0.54
  -4  16   1    5.21    0.35
  -4  16   2    0.10    0.31
  -4  16   3   10.03    0.52
  -4  16   4    1.85    0.35
  -4  16   5    2.44    0.35
  -4  16   6    1.42    0.45
  -4  16   7    0.17    0.28
  -4  16   8    2.63    0.32
  -4  16   9    0.86    0.31
  -4  16  10    0.06    0.30
  -4  16  11    0.00    0.31
  -4  16  12    2.04    0.34
  -4  16  13    9.70    0.48
  -4  16  14    3.97    0.38
  -4  16  15    8.77    0.51
  -4  16  16    0.01    0.34
  -4  16  17    0.25    0.66
  -4  16  18    2.13    0.37
  -4  17   1    0.00    0.41
  -4  17   2    6.33    0.38
  -4  17   3    0.01    0.40
  -4  17   4    0.02    0.35
  -4  17   5    0.52    0.44
  -4  17   6    0.03    0.43
  -4  17   7    0.00    0.44
  -4  17   8    2.44    0.47
  -4  17   9    1.55    0.31
  -4  17  10    6.06    0.39
  -4  17  11    0.00    0.31
  -4  17  12    2.81    0.35
  -4  17  13    0.45    0.33
  -4  17  14    0.59    0.62
  -4  17  15    3.58    0.37
  -4  17  16    0.58    0.38
  -4  17  17    0.10    0.35
  -4  18   1    0.13    0.33
  -4  18   2    1.39    0.36
  -4  18   3    1.45    0.35
  -4  18   4    1.54    0.45
  -4  18   5    0.32    0.43
  -4  18   6    4.91    0.53
  -4  18   7    1.06    0.47
  -4  18   8    0.01    0.45
  -4  18   9    0.02    0.44
  -4  18  10    0.32    0.46
  -4  18  11    0.80    0.65
  -4  18  12    1.37    0.34
  -4  18  13    0.81    0.33
  -4  18  14    0.42    0.34
  -4  18  15    0.00    0.47
  -4  19   1    0.15    0.56
  -4  19   2    0.71    0.34
  -4  19   3    2.00    0.46
  -4  19   4    0.80    0.45
  -4  19   5    1.00    0.44
  -4  19   6    0.92    0.45
  -4  19   7    1.41    0.47
  -4  19   8    0.01    0.44
  -4  19   9    0.61    0.46
  -4  19  10    0.06    0.45
  -4  19  11    0.00    0.44
  -4  19  12    0.01    0.47
  -4  19  13    1.07    0.50
  -4  20   1    1.15    0.35
  -4  20   2    2.34    0.47
  -4  20   3    0.01    0.43
  -4  20   4    0.09    0.43
  -4  20   5    1.07    0.46
  -4  20   6    0.02    0.44
  -4  20   7    0.54    0.46
  -4  20   8    0.00    0.45
  -4  20   9    1.83    0.49
  -4  20  10    0.52    0.47
  -4  20  11    0.10    0.48
  -4  21   1    0.01    0.42
  -4  21   2    0.19    0.42
  -4  21   3    0.05    0.43
  -4  21   4    0.00    0.43
  -4  21   5    3.20    0.49
  -4  21   6    0.09    0.45
  -4  21   7    2.93    0.52
  -4  21   8    0.00    0.46
  -3 -23   1    1.89    0.50
  -3 -23   2    0.15    0.47
  -3 -22   1    2.27    0.47
  -3 -22   2    2.89    0.52
  -3 -22   3    1.10    0.46
  -3 -22   4    3.30    0.50
  -3 -22   5    0.31    0.45
  -3 -22   6    0.45    0.46
  -3 -21   1    0.24    0.44
  -3 -21   2    0.10    0.44
  -3 -21   3    0.42    0.45
  -3 -21   4    1.84    0.49
  -3 -21   5    0.00    0.45
  -3 -21   6    2.40    0.48
  -3 -21   7    1.20    0.46
  -3 -21   8    0.05    0.44
  -3 -21   9    0.00    0.44
  -3 -20   1    0.00    0.42
  -3 -20   2    3.06    0.48
  -3 -20   3    0.87    0.45
  -3 -20   4    0.60    0.44
  -3 -20   5    6.56    0.58
  -3 -20   6    0.83    0.44
  -3 -20   7    1.58    0.45
  -3 -20   8    0.40    0.43
  -3 -20   9    0.22    0.44
  -3 -20  10    0.46    0.46
  -3 -20  11    0.01    0.44
  -3 -19   1    3.87    0.47
  -3 -19   2    0.00    0.41
  -3 -19   3    0.45    0.43
  -3 -19   4    2.45    0.46
  -3 -19   5    1.34    0.45
  -3 -19   6    0.19    0.42
  -3 -19   7    3.62    0.49
  -3 -19   8    0.68    0.43
  -3 -19   9    0.29    0.42
  -3 -19  10    0.45    0.44
  -3 -19  11    1.03    0.44
  -3 -19  12    0.02    0.44
  -3 -19  13    0.41    0.46
  -3 -18   1    6.20    0.36
  -3 -18   2    0.82    0.27
  -3 -18   3   35.43    1.05
  -3 -18   4    1.06    0.34
  -3 -18   5   16.23    0.61
  -3 -18   6    2.03    0.35
  -3 -18   7    2.41    0.35
  -3 -18   8    2.53    0.36
  -3 -18   9    1.15    0.34
  -3 -18  10    3.49    0.38
  -3 -18  11    0.03    0.49
  -3 -18  12    0.46    0.37
  -3 -18  13    0.82    0.44
  -3 -18  14    1.43    0.47
  -3 -17   1    4.33    0.25
  -3 -17   2    1.55    0.23
  -3 -17   3   12.51    0.55
  -3 -17   4   12.55    0.52
  -3 -17   5    1.81    0.34
  -3 -17   6   13.54    0.58
  -3 -17   7    0.07    0.32
  -3 -17   8    4.13    0.51
  -3 -17   9    0.00    0.32
  -3 -17  10    0.37    0.36
  -3 -17  11    1.10    0.43
  -3 -17  12    0.56    0.43
  -3 -17  13    3.49    0.48
  -3 -17  14    0.08    0.43
  -3 -17  15    0.01    0.43
  -3 -17  16    0.01    0.45
  -3 -16   1    0.26    0.22
  -3 -16   2    0.20    0.21
  -3 -16   3    9.47    0.33
  -3 -16   4    0.01    0.21
  -3 -16   5    8.02    0.47
  -3 -16   6    0.10    0.31
  -3 -16   7    3.71    0.35
  -3 -16   8    0.00    0.31
  -3 -16   9    4.90    0.47
  -3 -16  10    0.30    0.40
  -3 -16  11    1.02    0.42
  -3 -16  12    0.37    0.41
  -3 -16  13    0.74    0.42
  -3 -16  14    1.07    0.43
  -3 -16  15    2.25    0.46
  -3 -16  16    0.51    0.45
  -3 -16  17    0.68    0.45
  -3 -15   1    3.36    0.23
  -3 -15   2    2.11    0.23
  -3 -15   3    6.45    0.31
  -3 -15   4    5.59    0.26
  -3 -15   5    2.69    0.24
  -3 -15   6    6.74    0.38
  -3 -15   7    0.61    0.47
  -3 -15   8    2.48    0.40
  -3 -15   9    7.82    0.56
  -3 -15  10    0.51    0.38
  -3 -15  11    7.46    0.51
  -3 -15  12    0.49    0.40
  -3 -15  13    0.48    0.41
  -3 -15  14    0.21    0.40
  -3 -15  15    0.83    0.43
  -3 -15  16    1.76    0.46
  -3 -15  17    1.44    0.47
  -3 -15  18    1.07    0.47
  -3 -14   1    2.30    0.21
  -3 -14   2    0.37    0.18
  -3 -14   3    0.67    0.19
  -3 -14   4    4.71    0.20
  -3 -14   5    0.49    0.18
  -3 -14   6    3.45    0.23
  -3 -14   7    0.54    0.22
  -3 -14   8    5.51    0.51
  -3 -14   9    1.43    0.39
  -3 -14  10    3.24    0.43
  -3 -14  11    0.29    0.38
  -3 -14  12    2.57    0.43
  -3 -14  13    0.61    0.39
  -3 -14  14    6.24    0.49
  -3 -14  15    2.26    0.43
  -3 -14  16    1.48    0.44
  -3 -14  17    4.02    0.49
  -3 -14  18    0.19    0.43
  -3 -14  19    0.04    0.45
  -3 -13   1    5.48    0.21
  -3 -13   2    2.96    0.44
  -3 -13   3    4.35    0.31
  -3 -13   4   10.33    0.29
  -3 -13   5   25.47    0.46
  -3 -13   6    2.31    0.22
  -3 -13   7    2.19    0.19
  -3 -13   8    0.06    0.20
  -3 -13   9    3.53    0.38
  -3 -13  10    0.16    0.29
  -3 -13  11    1.14    0.38
  -3 -13  12    3.85    0.44
  -3 -13  13    0.48    0.39
  -3 -13  14    0.62    0.40
  -3 -13  15    1.77    0.43
  -3 -13  16    0.38    0.42
  -3 -13  17    2.03    0.46
  -3 -13  18    0.59    0.44
  -3 -13  19    2.88    0.50
  -3 -13  20    0.43    0.45
  -3 -12   1    0.78    0.17
  -3 -12   2    2.75    0.18
  -3 -12   3    0.05    0.16
  -3 -12   4    0.03    0.17
  -3 -12   5   11.13    0.49
  -3 -12   6    0.05    0.17
  -3 -12   7   10.76    0.30
  -3 -12   8    0.36    0.18
  -3 -12   9    2.05    0.20
  -3 -12  10    3.96    0.37
  -3 -12  11    1.07    0.29
  -3 -12  12    4.15    0.42
  -3 -12  13    0.00    0.38
  -3 -12  14    3.55    0.44
  -3 -12  15    2.96    0.44
  -3 -12  16    0.95    0.42
  -3 -12  17   18.14    0.76
  -3 -12  18    3.94    0.47
  -3 -12  19    2.45    0.47
  -3 -12  20    1.87    0.48
  -3 -12  21    0.21    0.46
  -3 -11   1    0.28    0.17
  -3 -11   2    0.50    0.19
  -3 -11   3    0.39    0.17
  -3 -11   4    0.14    0.17
  -3 -11   5    4.42    0.25
  -3 -11   6    7.77    0.44
  -3 -11   7   15.51    0.36
  -3 -11   8    7.49    0.27
  -3 -11   9    0.40    0.26
  -3 -11  10    0.06    0.18
  -3 -11  11    0.25    0.27
  -3 -11  12    1.76    0.41
  -3 -11  13    0.00    0.29
  -3 -11  14    4.32    0.44
  -3 -11  15    0.01    0.38
  -3 -11  16    3.60    0.44
  -3 -11  17    1.55    0.44
  -3 -11  18    2.08    0.45
  -3 -11  19    3.17    0.49
  -3 -11  20    2.28    0.47
  -3 -11  21    0.45    0.44
  -3 -11  22    0.73    0.46
  -3 -10   1    4.80    0.18
  -3 -10   2    0.30    0.17
  -3 -10   3    4.34    0.25
  -3 -10   4    0.67    0.17
  -3 -10   5    3.23    0.20
  -3 -10   6    4.21    0.20
  -3 -10   7    8.26    0.26
  -3 -10   8   24.75    0.46
  -3 -10   9    4.13    0.49
  -3 -10  10    1.32    0.17
  -3 -10  11    0.38    0.22
  -3 -10  12    2.55    0.30
  -3 -10  13   10.04    0.45
  -3 -10  14    9.06    0.76
  -3 -10  15   16.66    0.72
  -3 -10  16    2.98    0.44
  -3 -10  17    6.59    0.50
  -3 -10  18    5.43    0.50
  -3 -10  19    5.25    0.51
  -3 -10  20    1.08    0.44
  -3 -10  21    1.31    0.45
  -3 -10  22    3.00    0.49
  -3  -9   1   12.76    0.30
  -3  -9   2    5.78    0.20
  -3  -9   3    0.00    0.22
  -3  -9   4   11.70    0.59
  -3  -9   5    2.98    0.21
  -3  -9   6   27.50    0.57
  -3  -9   7    9.32    0.29
  -3  -9   8    1.08    0.17
  -3  -9   9    0.05    0.18
  -3  -9  10    1.25    0.48
  -3  -9  11    0.00    0.17
  -3  -9  12    0.00    0.17
  -3  -9  13    2.10    0.30
  -3  -9  14    0.01    0.28
  -3  -9  15    3.39    0.58
  -3  -9  16    4.24    0.46
  -3  -9  17    0.00    0.39
  -3  -9  18    0.76    0.41
  -3  -9  19    6.43    0.50
  -3  -9  20    0.46    0.43
  -3  -9  21    0.03    0.44
  -3  -9  22    0.02    0.45
  -3  -9  23    1.42    0.46
  -3  -8   1   16.69    0.31
  -3  -8   2    0.00    0.19
  -3  -8   3    5.61    0.44
  -3  -8   4    1.69    0.24
  -3  -8   5    0.29    0.17
  -3  -8   6    1.52    0.18
  -3  -8   7    0.92    0.19
  -3  -8   8    5.59    0.26
  -3  -8   9    0.08    0.16
  -3  -8  10    1.03    0.17
  -3  -8  11    4.66    0.56
  -3  -8  12    0.51    0.23
  -3  -8  13    1.42    0.20
  -3  -8  14    0.00    0.34
  -3  -8  15   10.88    0.47
  -3  -8  16    0.06    0.39
  -3  -8  17    3.49    0.44
  -3  -8  18    5.76    0.49
  -3  -8  19    1.02    0.42
  -3  -8  20    0.15    0.41
  -3  -8  21    0.11    0.43
  -3  -8  22    1.77    0.46
  -3  -8  23    2.22    0.49
  -3  -7   1    6.92    0.80
  -3  -7   2    7.07    0.20
  -3  -7   3    0.33    0.30
  -3  -7   4   37.56    0.54
  -3  -7   5    2.59    0.20
  -3  -7   6   25.55    0.53
  -3  -7   7    0.89    0.18
  -3  -7   8    2.60    0.29
  -3  -7   9   10.43    0.34
  -3  -7  10    0.08    0.16
  -3  -7  11    0.53    0.16
  -3  -7  12    0.04    0.23
  -3  -7  13    0.80    0.18
  -3  -7  14    7.56    0.39
  -3  -7  15    0.23    0.29
  -3  -7  16   17.33    0.60
  -3  -7  17    1.18    0.38
  -3  -7  18    5.67    0.48
  -3  -7  19    5.64    0.50
  -3  -7  20    1.87    0.43
  -3  -7  21    5.83    0.52
  -3  -7  22    0.07    0.44
  -3  -7  23    3.19    0.49
  -3  -7  24    0.71    0.47
  -3  -6   1    0.13    0.17
  -3  -6   2    9.85    0.16
  -3  -6   3   13.91    0.43
  -3  -6   4    2.63    0.20
  -3  -6   5    2.86    0.23
  -3  -6   6   75.88    1.17
  -3  -6   7    1.44    0.18
  -3  -6   8    7.90    0.31
  -3  -6   9    1.68    0.17
  -3  -6  10    0.35    0.17
  -3  -6  11    5.74    0.25
  -3  -6  12    0.92    0.17
  -3  -6  13    7.77    0.28
  -3  -6  14    1.69    0.20
  -3  -6  15    0.16    0.27
  -3  -6  16    1.08    0.44
  -3  -6  17    1.80    0.40
  -3  -6  18    3.19    0.43
  -3  -6  19    0.00    0.38
  -3  -6  20    0.46    0.42
  -3  -6  21    0.40    0.43
  -3  -6  22    2.96    0.48
  -3  -6  23    6.57    0.55
  -3  -6  24    1.16    0.48
  -3  -5   1   33.29    0.34
  -3  -5   2    1.84    0.14
  -3  -5   3    0.34    0.13
  -3  -5   4   22.72    0.42
  -3  -5   5   20.67    0.38
  -3  -5   6    6.07    1.12
  -3  -5   7   70.75    0.91
  -3  -5   8    8.50    0.27
  -3  -5   9   20.12    0.51
  -3  -5  10    0.07    0.17
  -3  -5  11    3.52    0.26
  -3  -5  12    0.01    0.17
  -3  -5  13    4.22    0.55
  -3  -5  14    6.80    0.23
  -3  -5  15    0.01    0.19
  -3  -5  16    4.50    0.34
  -3  -5  17   11.52    0.60
  -3  -5  18    0.62    0.39
  -3  -5  19    1.40    0.41
  -3  -5  20    8.55    0.57
  -3  -5  21    3.52    0.48
  -3  -5  22    0.13    0.44
  -3  -5  23    1.09    0.46
  -3  -5  24    1.82    0.49
  -3  -5  25    0.18    0.46
  -3  -4   1   16.36    0.84
  -3  -4   2    3.81    0.14
  -3  -4   3   10.88    0.33
  -3  -4   4    6.98    0.76
  -3  -4   5   40.35    0.52
  -3  -4   6    2.21    0.28
  -3  -4   7    6.22    0.26
  -3  -4   8    0.00    0.19
  -3  -4   9   12.08    0.33
  -3  -4  10   24.34    0.53
  -3  -4  11    2.52    0.19
  -3  -4  12    0.64    0.19
  -3  -4  13    0.00    0.25
  -3  -4  14    0.08    0.18
  -3  -4  15    0.04    0.19
  -3  -4  16    0.03    0.20
  -3  -4  17   12.63    0.64
  -3  -4  18    1.75    0.40
  -3  -4  19    0.01    0.41
  -3  -4  20    0.89    0.42
  -3  -4  21    1.08    0.44
  -3  -4  22    6.05    0.53
  -3  -4  23    0.33    0.44
  -3  -4  24    3.12    0.51
  -3  -4  25    1.43    0.50
  -3  -3   1    0.07    0.12
  -3  -3   2    3.09    0.12
  -3  -3   3    0.06    0.15
  -3  -3   4    0.01    0.14
  -3  -3   5    2.84    0.26
  -3  -3   6    4.11    0.19
  -3  -3   7   46.39    0.61
  -3  -3   8    0.02    0.18
  -3  -3   9    0.02    0.23
  -3  -3  10    1.45    0.19
  -3  -3  11    2.92    0.26
  -3  -3  12    3.87    0.28
  -3  -3  13    0.19    0.21
  -3  -3  14    3.14    0.21
  -3  -3  15    3.17    0.29
  -3  -3  16    0.02    0.20
  -3  -3  17    0.38    0.27
  -3  -3  18    0.52    0.40
  -3  -3  19    0.02    0.40
  -3  -3  20    0.00    0.40
  -3  -3  21    0.20    0.42
  -3  -3  22    0.01    0.43
  -3  -3  23    0.31    0.46
  -3  -3  24    2.17    0.51
  -3  -3  25    0.50    0.49
  -3  -2   1    0.06    0.14
  -3  -2   2    5.44    0.25
  -3  -2   3   29.80    0.91
  -3  -2   4    1.36    0.12
  -3  -2   5    5.08    0.18
  -3  -2   6   58.63    1.13
  -3  -2   7    8.32    0.29
  -3  -2   8   65.98    0.79
  -3  -2   9    4.86    0.23
  -3  -2  10   72.03    1.48
  -3  -2  11    0.91    0.18
  -3  -2  12    0.16    0.24
  -3  -2  13   34.83    0.64
  -3  -2  14    3.30    0.22
  -3  -2  15    3.28    0.27
  -3  -2  16    0.01    0.20
  -3  -2  17    0.37    0.23
  -3  -2  18    0.70    0.41
  -3  -2  19    0.49    0.40
  -3  -2  20    3.32    0.48
  -3  -2  21    1.11    0.45
  -3  -2  22    3.22    0.49
  -3  -2  23    3.64    0.50
  -3  -2  24    3.43    0.52
  -3  -2  25    7.58    0.60
  -3  -1   1    6.89    0.13
  -3  -1   2   10.88    0.33
  -3  -1   3    5.32    0.15
  -3  -1   4   10.40    0.27
  -3  -1   5    4.70    0.23
  -3  -1   6    7.96    0.20
  -3  -1   7    4.26    0.18
  -3  -1   8    0.04    0.52
  -3  -1   9   12.56    0.35
  -3  -1  10    5.19    0.33
  -3  -1  11   12.49    0.35
  -3  -1  12    0.28    0.18
  -3  -1  13   11.48    0.29
  -3  -1  14    0.70    0.18
  -3  -1  15    3.71    0.25
  -3  -1  16    0.24    0.21
  -3  -1  17    0.07    0.24
  -3  -1  18    3.84    0.30
  -3  -1  19    0.12    0.41
  -3  -1  20    0.27    0.43
  -3  -1  21    1.55    0.46
  -3  -1  22    0.11    0.45
  -3  -1  23    1.72    0.47
  -3  -1  24    0.00    0.45
  -3  -1  25    0.01    0.47
  -3  -1  26    0.14    0.48
  -3   0   1   12.39    0.32
  -3   0   2    0.16    0.14
  -3   0   3   30.71    0.44
  -3   0   4   15.63    0.34
  -3   0   5    8.46    0.19
  -3   0   6    7.83    0.33
  -3   0   7    5.23    0.52
  -3   0   8  115.98    1.45
  -3   0   9   17.05    0.47
  -3   0  10   12.53    0.49
  -3   0  11    3.17    0.30
  -3   0  12    0.24    0.19
  -3   0  13   27.80    0.68
  -3   0  14    0.11    0.23
  -3   0  15    3.88    0.22
  -3   0  16    0.07    0.25
  -3   0  17    2.82    0.26
  -3   0  18    0.97    0.32
  -3   0  19    0.34    0.41
  -3   0  20    1.87    0.45
  -3   0  21    1.29    0.45
  -3   0  22    4.31    0.51
  -3   0  23    1.74    0.47
  -3   0  24    1.63    0.49
  -3   0  25    2.93    0.53
  -3   0  26    0.00    0.47
  -3   1   1   20.17    0.57
  -3   1   2   63.13    1.22
  -3   1   3   56.37    1.31
  -3   1   4   12.25    1.03
  -3   1   5    6.14    0.34
  -3   1   6    0.72    0.15
  -3   1   7   52.44    0.97
  -3   1   8    3.48    0.38
  -3   1   9  127.51    1.81
  -3   1  10   10.37    0.46
  -3   1  11   33.32    0.70
  -3   1  12   26.29    0.41
  -3   1  13    0.28    0.21
  -3   1  14   16.02    0.41
  -3   1  15    0.01    0.20
  -3   1  16    3.12    0.25
  -3   1  17    0.00    0.25
  -3   1  18    0.37    0.26
  -3   1  19    0.80    0.27
  -3   1  20    0.08    0.43
  -3   1  21   10.98    0.70
  -3   1  22    1.52    0.46
  -3   1  23    0.18    0.46
  -3   1  24    1.41    0.49
  -3   1  25    0.00    0.48
  -3   1  26    5.16    0.58
  -3   2   1   29.63    0.75
  -3   2   2    0.01    0.12
  -3   2   3    0.33    0.14
  -3   2   4   33.80    0.33
  -3   2   5   11.39    0.24
  -3   2   6   23.12    0.62
  -3   2   7    3.47    0.78
  -3   2   8    7.54    0.39
  -3   2   9    0.94    0.19
  -3   2  10    2.91    0.20
  -3   2  11   18.37    0.35
  -3   2  12    1.01    0.20
  -3   2  13   11.03    0.35
  -3   2  14    1.34    0.21
  -3   2  15    5.07    0.23
  -3   2  16   10.42    0.86
  -3   2  17    2.22    0.27
  -3   2  18    0.79    0.37
  -3   2  19    0.81    0.28
  -3   2  20    1.05    0.29
  -3   2  21    2.63    0.48
  -3   2  22    0.09    0.44
  -3   2  23    1.90    0.49
  -3   2  24    1.12    0.49
  -3   2  25    0.23    0.49
  -3   2  26    0.04    0.50
  -3   3   1    0.00    0.21
  -3   3   2    7.92    0.28
  -3   3   3    6.84    0.13
  -3   3   4   33.47    0.39
  -3   3   5    3.06    0.15
  -3   3   6   11.84    0.41
  -3   3   7   20.00    0.51
  -3   3   8   10.95    0.38
  -3   3   9    2.39    0.23
  -3   3  10    0.11    0.18
  -3   3  11    1.72    0.21
  -3   3  12   18.30    0.43
  -3   3  13    0.11    0.20
  -3   3  14    4.10    0.44
  -3   3  15    1.62    0.36
  -3   3  16    4.47    0.30
  -3   3  17    8.30    0.41
  -3   3  18    5.44    0.44
  -3   3  19    0.30    0.28
  -3   3  20    1.99    0.32
  -3   3  21    5.49    0.51
  -3   3  22    0.00    0.45
  -3   3  23    0.21    0.48
  -3   3  24    2.83    0.53
  -3   3  25    0.11    0.47
  -3   3  26    0.39    0.49
  -3   4   1    7.11    0.38
  -3   4   2   23.19    0.62
  -3   4   3    4.80    0.20
  -3   4   4    0.02    0.22
  -3   4   5    0.47    0.19
  -3   4   6    3.92    0.29
  -3   4   7    0.71    0.21
  -3   4   8    1.50    0.25
  -3   4   9    0.15    0.20
  -3   4  10    0.32    0.20
  -3   4  11    6.15    0.23
  -3   4  12    0.03    0.20
  -3   4  13    1.63    0.20
  -3   4  14    0.45    0.22
  -3   4  15    6.91    0.44
  -3   4  16    0.06    0.26
  -3   4  17    0.00    0.25
  -3   4  18    0.07    0.50
  -3   4  19    0.08    0.28
  -3   4  20    0.10    0.29
  -3   4  21    0.02    0.44
  -3   4  22    0.00    0.45
  -3   4  23    0.24    0.48
  -3   4  24    0.77    0.50
  -3   4  25    0.00    0.48
  -3   4  26    0.00    0.50
  -3   5   1    0.83    0.15
  -3   5   2    1.86    0.26
  -3   5   3    0.70    0.19
  -3   5   4    6.39    0.19
  -3   5   5    2.10    0.17
  -3   5   6   47.57    3.03
  -3   5   7    8.86    0.38
  -3   5   8    3.69    0.21
  -3   5   9    3.64    0.23
  -3   5  10    3.26    0.23
  -3   5  11    0.83    0.20
  -3   5  12    4.86    0.20
  -3   5  13    3.17    0.27
  -3   5  14    5.20    0.69
  -3   5  15    0.55    0.25
  -3   5  16    0.00    0.26
  -3   5  17    0.26    0.34
  -3   5  18    0.17    0.32
  -3   5  19    1.53    0.31
  -3   5  20    1.52    0.32
  -3   5  21    1.60    0.31
  -3   5  22    0.35    0.47
  -3   5  23    0.03    0.47
  -3   5  24    4.75    0.56
  -3   5  25    0.00    0.47
  -3   6   1   26.05    0.51
  -3   6   2    1.07    0.22
  -3   6   3    1.68    0.32
  -3   6   4    6.13    0.23
  -3   6   5    0.01    0.20
  -3   6   6    4.10    0.21
  -3   6   7    0.91    0.26
  -3   6   8    3.30    0.21
  -3   6   9   12.18    0.40
  -3   6  10    0.47    0.20
  -3   6  11    0.79    0.20
  -3   6  12    7.88    0.49
  -3   6  13   24.06    0.53
  -3   6  14    0.06    0.28
  -3   6  15    8.43    0.40
  -3   6  16    0.06    0.42
  -3   6  17    0.00    0.68
  -3   6  18    2.77    0.32
  -3   6  19    0.01    0.30
  -3   6  20    2.27    0.33
  -3   6  21    0.01    0.31
  -3   6  22    1.45    0.48
  -3   6  23    4.21    0.55
  -3   6  24    0.00    0.48
  -3   6  25    1.65    0.51
  -3   7   1   21.05    0.57
  -3   7   2    4.52    0.18
  -3   7   3   36.51    0.70
  -3   7   4   13.01    0.40
  -3   7   5    0.07    0.29
  -3   7   6    3.60    0.20
  -3   7   7    1.13    0.26
  -3   7   8    8.10    0.25
  -3   7   9    0.58    0.21
  -3   7  10    7.51    0.48
  -3   7  11   10.76    0.33
  -3   7  12    0.40    0.21
  -3   7  13    0.03    0.24
  -3   7  14    7.31    0.39
  -3   7  15    4.74    0.32
  -3   7  16    2.98    0.31
  -3   7  17    1.31    0.30
  -3   7  18    2.37    0.33
  -3   7  19    2.66    0.34
  -3   7  20    0.23    0.31
  -3   7  21    0.87    0.46
  -3   7  22    2.57    0.34
  -3   7  23    0.07    0.47
  -3   7  24    0.00    0.47
  -3   7  25    0.03    0.48
  -3   8   1   15.76    0.40
  -3   8   2   78.45    1.15
  -3   8   3    9.67    0.44
  -3   8   4    0.97    0.21
  -3   8   5    2.62    0.26
  -3   8   6   32.08    0.56
  -3   8   7    2.12    0.21
  -3   8   8    1.55    0.21
  -3   8   9    4.53    0.23
  -3   8  10    7.48    0.32
  -3   8  11   10.02    0.36
  -3   8  12    6.25    0.39
  -3   8  13   37.39    1.09
  -3   8  14    0.60    0.27
  -3   8  15    4.49    0.63
  -3   8  16   26.24    0.74
  -3   8  17    3.07    0.32
  -3   8  18   25.72    0.63
  -3   8  19    0.69    0.32
  -3   8  20    2.55    0.44
  -3   8  21    0.84    0.32
  -3   8  22    0.41    0.40
  -3   8  23    3.28    0.53
  -3   8  24    0.02    0.48
  -3   8  25    1.84    0.52
  -3   9   1    3.22    0.19
  -3   9   2   30.62    0.47
  -3   9   3    1.76    0.22
  -3   9   4   18.90    0.54
  -3   9   5    7.68    0.31
  -3   9   6    1.31    0.20
  -3   9   7    8.13    0.30
  -3   9   8    2.75    0.24
  -3   9   9   11.95    0.38
  -3   9  10    2.05    0.65
  -3   9  11    0.61    0.21
  -3   9  12   15.69    0.67
  -3   9  13    8.94    0.39
  -3   9  14    7.68    0.60
  -3   9  15    0.76    0.29
  -3   9  16    2.80    0.31
  -3   9  17    6.70    1.06
  -3   9  18    0.20    0.31
  -3   9  19    9.49    0.71
  -3   9  20    1.28    0.33
  -3   9  21    1.41    0.41
  -3   9  22    0.09    0.38
  -3   9  23    0.55    0.49
  -3   9  24    0.37    0.49
  -3  10   1    7.57    0.22
  -3  10   2    5.47    0.19
  -3  10   3    0.04    0.18
  -3  10   4   24.20    0.48
  -3  10   5    0.77    0.19
  -3  10   6   18.71    0.42
  -3  10   7    1.30    0.20
  -3  10   8    9.57    0.33
  -3  10   9    0.58    0.21
  -3  10  10    3.86    0.35
  -3  10  11   10.74    0.41
  -3  10  12    0.08    0.26
  -3  10  13    1.37    0.28
  -3  10  14    1.84    0.44
  -3  10  15    1.33    0.30
  -3  10  16   11.05    0.50
  -3  10  17    0.43    0.31
  -3  10  18    2.02    0.33
  -3  10  19    0.01    0.31
  -3  10  20    0.07    0.32
  -3  10  21    0.05    0.32
  -3  10  22    0.07    0.33
  -3  10  23    0.35    0.77
  -3  10  24    0.00    0.50
  -3  11   1    1.75    0.19
  -3  11   2    5.59    0.18
  -3  11   3    0.32    0.25
  -3  11   4    1.72    0.21
  -3  11   5    2.64    0.22
  -3  11   6    2.27    0.47
  -3  11   7   10.87    0.46
  -3  11   8    5.53    0.45
  -3  11   9   21.20    0.63
  -3  11  10    5.20    0.28
  -3  11  11    3.90    0.30
  -3  11  12   34.50    0.81
  -3  11  13    2.16    0.31
  -3  11  14   11.10    0.94
  -3  11  15    9.96    0.43
  -3  11  16   11.56    0.49
  -3  11  17   24.80    0.69
  -3  11  18    0.06    0.32
  -3  11  19    2.10    0.34
  -3  11  20    0.01    0.32
  -3  11  21    0.84    0.35
  -3  11  22    0.05    0.33
  -3  11  23    1.51    0.36
  -3  12   1    0.00    0.16
  -3  12   2    1.91    0.18
  -3  12   3    3.10    0.19
  -3  12   4    2.90    0.22
  -3  12   5    0.51    0.30
  -3  12   6    2.06    0.22
  -3  12   7    8.19    0.34
  -3  12   8    3.53    0.24
  -3  12   9    0.88    0.23
  -3  12  10    0.08    0.27
  -3  12  11    2.22    0.32
  -3  12  12   18.22    0.53
  -3  12  13    1.35    0.59
  -3  12  14   30.23    0.99
  -3  12  15   18.04    1.17
  -3  12  16    4.56    0.37
  -3  12  17    6.22    0.39
  -3  12  18    0.67    0.35
  -3  12  19    0.00    0.47
  -3  12  20    2.23    0.36
  -3  12  21    1.02    0.39
  -3  12  22    0.32    0.35
  -3  12  23    0.26    0.35
  -3  13   1    1.44    0.18
  -3  13   2    6.44    0.21
  -3  13   3    5.85    0.23
  -3  13   4    0.35    0.19
  -3  13   5    3.17    0.22
  -3  13   6    2.70    0.22
  -3  13   7    0.73    0.23
  -3  13   8    0.36    0.23
  -3  13   9    0.17    0.26
  -3  13  10   13.83    0.46
  -3  13  11    0.56    0.52
  -3  13  12   12.08    0.47
  -3  13  13    0.96    0.31
  -3  13  14    3.25    0.35
  -3  13  15   19.65    0.99
  -3  13  16    1.11    0.38
  -3  13  17    4.39    0.39
  -3  13  18    2.60    0.37
  -3  13  19    0.20    0.39
  -3  13  20    0.22    0.34
  -3  13  21    2.06    0.36
  -3  13  22    0.98    0.36
  -3  14   1    0.91    0.19
  -3  14   2    0.89    0.19
  -3  14   3    0.29    0.19
  -3  14   4    2.33    0.22
  -3  14   5    0.11    0.21
  -3  14   6    6.12    0.28
  -3  14   7    0.02    0.22
  -3  14   8    0.22    0.27
  -3  14   9    0.00    0.27
  -3  14  10    0.23    0.28
  -3  14  11   10.92    0.48
  -3  14  12    0.20    0.30
  -3  14  13    0.45    0.40
  -3  14  14    0.55    0.32
  -3  14  15    1.84    0.34
  -3  14  16    1.92    0.34
  -3  14  17    1.02    0.34
  -3  14  18    1.05    0.36
  -3  14  19    0.57    0.35
  -3  14  20    0.83    0.35
  -3  14  21    0.37    0.55
  -3  15   1    2.89    0.32
  -3  15   2    0.23    0.19
  -3  15   3    0.70    0.21
  -3  15   4    0.65    0.23
  -3  15   5    0.25    0.23
  -3  15   6    0.00    0.22
  -3  15   7    0.05    0.23
  -3  15   8    1.21    0.46
  -3  15   9    4.79    0.33
  -3  15  10    1.77    0.42
  -3  15  11    0.06    0.30
  -3  15  12    0.75    0.31
  -3  15  13    2.75    0.35
  -3  15  14    0.27    0.33
  -3  15  15    5.19    0.38
  -3  15  16    3.20    0.36
  -3  15  17    0.01    0.34
  -3  15  18    0.89    0.34
  -3  15  19    0.18    0.43
  -3  15  20    0.19    0.35
  -3  16   1    8.80    0.63
  -3  16   2    8.69    0.45
  -3  16   3    1.21    0.30
  -3  16   4    3.50    0.41
  -3  16   5    0.45    0.24
  -3  16   6    0.00    0.23
  -3  16   7    0.94    0.28
  -3  16   8    0.62    0.49
  -3  16   9    0.69    0.29
  -3  16  10    0.64    0.30
  -3  16  11    0.44    0.35
  -3  16  12    0.76    0.46
  -3  16  13    1.32    0.33
  -3  16  14    2.53    0.35
  -3  16  15    0.08    0.33
  -3  16  16    0.76    0.34
  -3  16  17    0.02    0.33
  -3  16  18    2.20    0.37
  -3  16  19    2.94    0.53
  -3  17   1    0.01    0.30
  -3  17   2    0.65    0.33
  -3  17   3    1.89    0.34
  -3  17   4    0.19    0.33
  -3  17   5    0.00    0.33
  -3  17   6    0.01    0.27
  -3  17   7    0.06    0.28
  -3  17   8    0.28    0.28
  -3  17   9    0.09    0.29
  -3  17  10    0.04    0.45
  -3  17  11    0.13    0.31
  -3  17  12    0.34    0.36
  -3  17  13    0.03    0.32
  -3  17  14    0.89    0.65
  -3  17  15    0.19    0.34
  -3  17  16    0.04    0.34
  -3  17  17    0.24    0.35
  -3  17  18    0.50    0.39
  -3  18   1    4.31    0.39
  -3  18   2    2.60    0.39
  -3  18   3    0.06    0.48
  -3  18   4    6.92    0.60
  -3  18   5    0.54    0.42
  -3  18   6    3.43    0.47
  -3  18   7    0.38    0.43
  -3  18   8    0.74    0.30
  -3  18   9    4.04    0.97
  -3  18  10    0.01    0.30
  -3  18  11    2.03    0.33
  -3  18  12    0.34    0.33
  -3  18  13    0.47    0.49
  -3  18  14    0.05    0.33
  -3  18  15    4.54    0.57
  -3  18  16    1.82    0.35
  -3  18  17    0.78    0.36
  -3  19   1    0.58    0.33
  -3  19   2    2.08    0.37
  -3  19   3    1.70    0.43
  -3  19   4    1.16    0.43
  -3  19   5    0.97    0.44
  -3  19   6    1.38    0.44
  -3  19   7    6.54    0.55
  -3  19   8    0.73    0.44
  -3  19   9    0.05    0.44
  -3  19  10    0.11    0.45
  -3  19  11    0.32    0.38
  -3  19  12    0.33    0.32
  -3  19  13    0.00    0.32
  -3  19  14    3.02    0.37
  -3  19  15    3.35    0.39
  -3  20   1    0.21    0.48
  -3  20   2    6.75    0.52
  -3  20   3    0.01    0.41
  -3  20   4    0.53    0.43
  -3  20   5    0.01    0.44
  -3  20   6    0.01    0.43
  -3  20   7    0.79    0.45
  -3  20   8    0.01    0.44
  -3  20   9    1.36    0.47
  -3  20  10    0.02    0.45
  -3  20  11    0.12    0.47
  -3  20  12    0.00    0.47
  -3  20  13    0.31    0.34
  -3  21   1    0.02    0.42
  -3  21   2    0.10    0.42
  -3  21   3    1.93    0.47
  -3  21   4    0.00    0.43
  -3  21   5   11.11    0.72
  -3  21   6    1.30    0.46
  -3  21   7    0.89    0.46
  -3  21   8    0.02    0.45
  -3  21   9    0.22    0.46
  -3  21  10    0.47    0.47
  -3  22   1    0.29    0.45
  -3  22   2    2.25    0.47
  -3  22   3    0.03    0.43
  -3  22   4    0.15    0.44
  -3  22   5    0.01    0.45
  -3  22   6    3.75    0.51
  -2 -23   1    0.03    0.45
  -2 -23   2    3.62    0.52
  -2 -23   3    0.23    0.45
  -2 -22   1    0.01    0.44
  -2 -22   2    0.10    0.44
  -2 -22   3    3.59    0.53
  -2 -22   4    0.16    0.44
  -2 -22   5    1.19    0.45
  -2 -22   6    5.12    0.55
  -2 -22   7    0.16    0.45
  -2 -21   1    0.08    0.43
  -2 -21   2   10.03    0.67
  -2 -21   3    5.93    0.53
  -2 -21   4    0.04    0.42
  -2 -21   5    2.97    0.47
  -2 -21   6    0.28    0.44
  -2 -21   7    4.40    0.51
  -2 -21   8    0.03    0.45
  -2 -21   9    1.54    0.47
  -2 -21  10    0.60    0.45
  -2 -20   1    5.87    0.52
  -2 -20   2    1.03    0.44
  -2 -20   3    2.20    0.46
  -2 -20   4    1.37    0.44
  -2 -20   5   10.85    0.66
  -2 -20   6    0.22    0.33
  -2 -20   7    0.03    0.34
  -2 -20   8    0.09    0.35
  -2 -20   9    1.57    0.36
  -2 -20  10    0.74    0.36
  -2 -20  11    0.19    0.35
  -2 -20  12    0.00    0.35
  -2 -19   1    4.69    0.50
  -2 -19   2    0.01    0.33
  -2 -19   3    2.01    0.35
  -2 -19   4    0.20    0.33
  -2 -19   5    8.30    0.55
  -2 -19   6    0.02    0.32
  -2 -19   7    0.27    0.33
  -2 -19   8    0.08    0.33
  -2 -19   9    0.54    0.34
  -2 -19  10    0.00    0.34
  -2 -19  11    3.65    0.39
  -2 -19  12    0.99    0.35
  -2 -19  13    0.22    0.34
  -2 -18   1    1.77    0.24
  -2 -18   2    2.52    0.34
  -2 -18   3    0.24    0.32
  -2 -18   4    0.36    0.32
  -2 -18   5    1.39    0.33
  -2 -18   6    7.69    0.44
  -2 -18   7    2.55    0.35
  -2 -18   8    6.59    0.41
  -2 -18   9    0.33    0.33
  -2 -18  10    0.10    0.33
  -2 -18  11    1.22    0.34
  -2 -18  12    1.20    0.35
  -2 -18  13    3.89    0.50
  -2 -18  14    0.00    0.42
  -2 -18  15    3.37    0.49
  -2 -17   1    4.75    0.28
  -2 -17   2    0.07    0.21
  -2 -17   3    0.22    0.56
  -2 -17   4    3.13    0.41
  -2 -17   5    0.67    0.31
  -2 -17   6    0.79    0.33
  -2 -17   7    0.61    0.31
  -2 -17   8    0.29    0.32
  -2 -17   9    1.57    0.33
  -2 -17  10    0.11    0.32
  -2 -17  11    3.71    0.36
  -2 -17  12    4.48    0.46
  -2 -17  13    1.01    0.43
  -2 -17  14    4.49    0.50
  -2 -17  15    1.36    0.44
  -2 -17  16    7.40    0.55
  -2 -16   1    0.15    0.20
  -2 -16   2   16.35    0.39
  -2 -16   3    7.06    0.41
  -2 -16   4    8.24    0.30
  -2 -16   5    6.58    0.43
  -2 -16   6    3.55    0.34
  -2 -16   7    0.05    0.47
  -2 -16   8   11.77    0.87
  -2 -16   9    1.27    0.32
  -2 -16  10    0.15    0.31
  -2 -16  11    0.23    0.39
  -2 -16  12    4.92    0.46
  -2 -16  13    1.27    0.41
  -2 -16  14    4.88    0.49
  -2 -16  15    0.53    0.42
  -2 -16  16    0.06    0.41
  -2 -16  17    3.23    0.47
  -2 -16  18    0.11    0.44
  -2 -15   1    2.81    0.20
  -2 -15   2   11.54    0.29
  -2 -15   3    2.36    0.20
  -2 -15   4   12.39    0.31
  -2 -15   5   16.48    0.36
  -2 -15   6    0.35    0.24
  -2 -15   7    4.21    0.29
  -2 -15   8    0.07    0.26
  -2 -15   9   13.34    0.50
  -2 -15  10    0.11    0.36
  -2 -15  11    0.11    0.37
  -2 -15  12    0.02    0.37
  -2 -15  13    1.67    0.41
  -2 -15  14    0.06    0.40
  -2 -15  15    0.03    0.40
  -2 -15  16    2.58    0.45
  -2 -15  17    1.49    0.43
  -2 -15  18    0.34    0.44
  -2 -15  19    3.89    0.48
  -2 -14   1    0.48    0.31
  -2 -14   2    0.38    0.24
  -2 -14   3    3.49    0.19
  -2 -14   4    1.83    0.19
  -2 -14   5    2.07    0.18
  -2 -14   6    1.40    0.24
  -2 -14   7    2.09    0.25
  -2 -14   8    2.20    0.37
  -2 -14   9    0.29    0.29
  -2 -14  10    3.37    0.33
  -2 -14  11    3.65    0.33
  -2 -14  12    0.00    0.29
  -2 -14  13    0.32    0.38
  -2 -14  14    0.12    0.38
  -2 -14  15    0.00    0.39
  -2 -14  16    1.42    0.42
  -2 -14  17    7.01    0.51
  -2 -14  18    1.67    0.43
  -2 -14  19    2.13    0.46
  -2 -14  20    1.08    0.44
  -2 -13   1    7.41    0.26
  -2 -13   2    0.07    0.17
  -2 -13   3    1.48    0.17
  -2 -13   4    0.53    0.24
  -2 -13   5    2.78    0.21
  -2 -13   6    0.42    0.16
  -2 -13   7   11.68    0.31
  -2 -13   8    1.69    0.28
  -2 -13   9   17.53    0.53
  -2 -13  10   12.02    0.48
  -2 -13  11    0.44    0.28
  -2 -13  12    2.41    0.30
  -2 -13  13    2.41    0.33
  -2 -13  14    2.16    0.32
  -2 -13  15    1.99    0.40
  -2 -13  16    1.08    0.40
  -2 -13  17    4.02    0.49
  -2 -13  18    0.60    0.42
  -2 -13  19    0.44    0.42
  -2 -13  20    0.55    0.45
  -2 -13  21    0.00    0.43
  -2 -12   1    0.53    0.17
  -2 -12   2    0.25    0.16
  -2 -12   3    4.02    0.18
  -2 -12   4    3.33    0.19
  -2 -12   5    0.60    0.15
  -2 -12   6    2.81    0.18
  -2 -12   7    6.94    0.23
  -2 -12   8    7.37    0.26
  -2 -12   9    0.21    0.25
  -2 -12  10    5.45    0.33
  -2 -12  11    3.94    0.32
  -2 -12  12    2.85    0.49
  -2 -12  13    0.73    0.29
  -2 -12  14    0.79    0.29
  -2 -12  15    0.77    0.31
  -2 -12  16    0.48    0.38
  -2 -12  17    0.77    0.41
  -2 -12  18    0.35    0.41
  -2 -12  19    0.00    0.42
  -2 -12  20    1.34    0.43
  -2 -12  21    0.15    0.43
  -2 -11   1    0.13    0.16
  -2 -11   2    0.32    0.17
  -2 -11   3    0.39    0.19
  -2 -11   4    7.32    0.26
  -2 -11   5    0.87    0.16
  -2 -11   6    4.49    0.18
  -2 -11   7    1.21    0.16
  -2 -11   8    0.07    0.15
  -2 -11   9    0.03    0.20
  -2 -11  10    5.19    0.35
  -2 -11  11    4.33    0.33
  -2 -11  12    0.05    0.25
  -2 -11  13    5.83    0.37
  -2 -11  14    0.57    0.28
  -2 -11  15    2.10    0.31
  -2 -11  16    0.49    0.32
  -2 -11  17    6.87    0.57
  -2 -11  18    5.99    0.49
  -2 -11  19    0.21    0.41
  -2 -11  20    0.00    0.42
  -2 -11  21    0.38    0.44
  -2 -11  22    0.26    0.44
  -2 -10   1    2.83    0.28
  -2 -10   2   17.53    0.38
  -2 -10   3    1.47    0.27
  -2 -10   4    1.90    0.20
  -2 -10   5    2.27    0.19
  -2 -10   6   14.97    0.34
  -2 -10   7    0.02    0.21
  -2 -10   8   60.48    0.91
  -2 -10   9    7.60    0.22
  -2 -10  10   12.36    0.72
  -2 -10  11   11.62    0.43
  -2 -10  12    7.49    0.34
  -2 -10  13   17.26    0.53
  -2 -10  14    1.63    0.30
  -2 -10  15    1.68    0.40
  -2 -10  16    3.68    0.33
  -2 -10  17    0.29    0.31
  -2 -10  18    0.37    0.40
  -2 -10  19    6.04    0.49
  -2 -10  20    0.36    0.42
  -2 -10  21    0.15    0.42
  -2 -10  22    0.31    0.43
  -2 -10  23    4.51    0.52
  -2  -9   1    0.00    0.16
  -2  -9   2   10.41    0.44
  -2  -9   3    7.57    0.47
  -2  -9   4    8.36    0.26
  -2  -9   5    0.30    0.17
  -2  -9   6    1.73    0.27
  -2  -9   7    1.97    0.18
  -2  -9   8    6.51    0.35
  -2  -9   9   15.81    0.30
  -2  -9  10    1.43    0.20
  -2  -9  11    6.17    0.60
  -2  -9  12    4.55    0.35
  -2  -9  13    1.62    0.25
  -2  -9  14    6.03    0.41
  -2  -9  15    0.79    0.28
  -2  -9  16    0.60    0.29
  -2  -9  17    0.30    0.30
  -2  -9  18    2.09    0.33
  -2  -9  19    2.02    0.43
  -2  -9  20    2.77    0.45
  -2  -9  21    0.02    0.41
  -2  -9  22    0.44    0.42
  -2  -9  23    0.23    0.44
  -2  -8   1   41.09    0.64
  -2  -8   2    8.76    0.56
  -2  -8   3    4.36    0.27
  -2  -8   4    5.03    0.33
  -2  -8   5    2.68    0.20
  -2  -8   6    2.26    0.19
  -2  -8   7    0.70    0.21
  -2  -8   8   53.39    0.75
  -2  -8   9   31.11    0.48
  -2  -8  10    0.57    0.16
  -2  -8  11    1.82    0.16
  -2  -8  12    5.67    0.98
  -2  -8  13    0.29    0.24
  -2  -8  14    2.28    0.44
  -2  -8  15    1.39    0.28
  -2  -8  16    7.97    0.41
  -2  -8  17    0.06    0.29
  -2  -8  18    9.54    0.69
  -2  -8  19    2.24    0.42
  -2  -8  20    3.95    0.45
  -2  -8  21    0.00    0.41
  -2  -8  22    3.69    0.47
  -2  -8  23    3.46    0.48
  -2  -8  24    1.85    0.48
  -2  -7   1    0.11    0.16
  -2  -7   2    2.44    0.15
  -2  -7   3    0.02    0.20
  -2  -7   4    0.27    0.15
  -2  -7   5    1.87    0.19
  -2  -7   6    7.52    0.33
  -2  -7   7   29.55    0.60
  -2  -7   8    9.20    0.30
  -2  -7   9   22.31    0.38
  -2  -7  10    0.05    0.15
  -2  -7  11    0.02    0.15
  -2  -7  12    0.98    0.15
  -2  -7  13    1.77    0.22
  -2  -7  14    5.89    0.39
  -2  -7  15    2.53    0.29
  -2  -7  16    4.45    0.35
  -2  -7  17    0.79    0.30
  -2  -7  18    7.43    0.41
  -2  -7  19    2.98    0.34
  -2  -7  20    0.93    0.41
  -2  -7  21    9.63    0.61
  -2  -7  22    1.25    0.43
  -2  -7  23    0.61    0.44
  -2  -7  24    3.29    0.49
  -2  -7  25    0.02    0.46
  -2  -6   1   11.92    0.28
  -2  -6   2    1.19    0.13
  -2  -6   3   29.97    0.47
  -2  -6   4   28.62    0.44
  -2  -6   5    1.62    0.21
  -2  -6   6    1.44    0.23
  -2  -6   7    0.20    0.16
  -2  -6   8    0.71    0.18
  -2  -6   9    3.44    0.20
  -2  -6  10    2.10    0.16
  -2  -6  11    8.11    0.25
  -2  -6  12    1.94    0.20
  -2  -6  13    4.71    0.17
  -2  -6  14    0.04    0.15
  -2  -6  15    0.59    0.26
  -2  -6  16    3.12    0.31
  -2  -6  17    1.33    0.30
  -2  -6  18   11.83    1.19
  -2  -6  19    3.27    0.48
  -2  -6  20    0.16    0.38
  -2  -6  21    0.50    0.41
  -2  -6  22    0.00    0.42
  -2  -6  23    0.55    0.43
  -2  -6  24    1.41    0.46
  -2  -6  25    0.16    0.46
  -2  -5   1   35.16    0.38
  -2  -5   2    5.29    0.22
  -2  -5   3   15.56    0.37
  -2  -5   4   26.79    0.57
  -2  -5   5   44.20    0.50
  -2  -5   6    0.00    0.14
  -2  -5   7   28.22    0.64
  -2  -5   8    0.44    0.16
  -2  -5   9    0.17    0.16
  -2  -5  10   15.05    0.32
  -2  -5  11   12.13    0.63
  -2  -5  12    7.88    0.20
  -2  -5  13    3.41    0.20
  -2  -5  14    0.37    0.17
  -2  -5  15    5.21    0.30
  -2  -5  16   16.27    0.48
  -2  -5  17   18.55    0.59
  -2  -5  18    5.32    0.35
  -2  -5  19   12.50    0.53
  -2  -5  20    3.70    0.44
  -2  -5  21    0.05    0.40
  -2  -5  22    3.87    0.47
  -2  -5  23    0.00    0.42
  -2  -5  24    1.89    0.47
  -2  -5  25    0.01    0.44
  -2  -4   1    8.48    0.24
  -2  -4   2    4.13    0.14
  -2  -4   3   28.39    0.32
  -2  -4   4    0.06    0.20
  -2  -4   5    6.12    0.25
  -2  -4   6    2.89    0.33
  -2  -4   7    3.96    0.23
  -2  -4   8   49.94    3.35
  -2  -4   9    0.07    0.17
  -2  -4  10   16.42    0.30
  -2  -4  11    3.47    0.25
  -2  -4  12    4.92    0.20
  -2  -4  13    9.35    0.28
  -2  -4  14    1.10    0.23
  -2  -4  15   21.23    0.51
  -2  -4  16    2.96    0.27
  -2  -4  17    1.76    0.29
  -2  -4  18   10.55    0.49
  -2  -4  19    0.69    0.31
  -2  -4  20    4.16    0.46
  -2  -4  21    0.27    0.42
  -2  -4  22    1.59    0.44
  -2  -4  23    1.98    0.45
  -2  -4  24    0.02    0.44
  -2  -4  25    0.54    0.47
  -2  -4  26    0.20    0.48
  -2  -3   1   16.33    0.28
  -2  -3   2   19.53    0.47
  -2  -3   3    6.14    0.40
  -2  -3   4    9.28    0.26
  -2  -3   5   59.75    0.70
  -2  -3   6   15.39    0.27
  -2  -3   7    6.46    0.31
  -2  -3   8   23.85    0.55
  -2  -3   9    4.85    0.31
  -2  -3  10   66.48    1.18
  -2  -3  11   11.04    0.28
  -2  -3  12    9.30    0.27
  -2  -3  13    4.71    0.19
  -2  -3  14    8.89    0.20
  -2  -3  15    0.27    0.27
  -2  -3  16    3.84    0.24
  -2  -3  17    1.79    0.30
  -2  -3  18    0.01    0.28
  -2  -3  19    0.04    0.30
  -2  -3  20    0.00    0.39
  -2  -3  21    0.52    0.40
  -2  -3  22    4.12    0.47
  -2  -3  23    1.33    0.46
  -2  -3  24    9.48    0.62
  -2  -3  25    4.23    0.53
  -2  -3  26    0.00    0.47
  -2  -2   1  174.96    1.88
  -2  -2   2   25.22    0.17
  -2  -2   3  140.21    2.27
  -2  -2   4   66.37    1.10
  -2  -2   5    2.82    0.17
  -2  -2   6   27.65    0.26
  -2  -2   7    0.01    0.13
  -2  -2   8   14.73    0.48
  -2  -2   9   23.16    0.47
  -2  -2  10   39.25    0.57
  -2  -2  11   50.81    0.80
  -2  -2  12    2.11    0.26
  -2  -2  13   19.25    0.30
  -2  -2  14    0.00    0.21
  -2  -2  15    3.45    0.27
  -2  -2  16    2.60    0.19
  -2  -2  17    0.07    0.19
  -2  -2  18    3.00    0.66
  -2  -2  19    0.89    0.31
  -2  -2  20    0.02    0.39
  -2  -2  21    8.44    0.63
  -2  -2  22    2.64    0.47
  -2  -2  23    6.76    0.55
  -2  -2  24    3.79    0.52
  -2  -2  25   10.72    0.70
  -2  -2  26    2.14    0.49
  -2  -1   1    7.90    0.51
  -2  -1   2  122.20    1.20
  -2  -1   3  133.88    1.88
  -2  -1   4    2.09    0.11
  -2  -1   5    4.01    0.28
  -2  -1   6    2.82    0.13
  -2  -1   7    0.03    0.14
  -2  -1   8   11.42    0.24
  -2  -1   9    4.55    0.26
  -2  -1  10   90.08    1.36
  -2  -1  11    2.30    0.29
  -2  -1  12    1.70    0.18
  -2  -1  13    7.92    0.30
  -2  -1  14    0.70    0.18
  -2  -1  15    1.57    0.21
  -2  -1  16    4.87    0.37
  -2  -1  17    4.27    0.21
  -2  -1  18    3.30    0.33
  -2  -1  19    0.02    0.38
  -2  -1  20    0.07    0.41
  -2  -1  21    0.00    0.41
  -2  -1  22    0.50    0.43
  -2  -1  23    1.85    0.46
  -2  -1  24    0.77    0.46
  -2  -1  25    0.91    0.46
  -2  -1  26    0.38    0.46
  -2   0   1    0.64    0.10
  -2   0   2   25.14    0.31
  -2   0   3   10.63    0.18
  -2   0   4  148.88    2.94
  -2   0   5    1.24    0.13
  -2   0   6   71.33    0.92
  -2   0   7    7.75    0.26
  -2   0   8    0.02    0.26
  -2   0   9   75.24    1.23
  -2   0  10   15.98    0.29
  -2   0  11    0.26    0.19
  -2   0  12    0.10    0.18
  -2   0  13   44.39    0.72
  -2   0  14    0.02    0.18
  -2   0  15    1.58    0.42
  -2   0  16    3.18    0.19
  -2   0  17    1.64    0.24
  -2   0  18    1.46    0.22
  -2   0  19    0.63    0.40
  -2   0  20    3.92    0.46
  -2   0  21    1.35    0.44
  -2   0  22    2.62    0.45
  -2   0  23    3.41    0.49
  -2   0  24    1.72    0.48
  -2   0  25    0.77    0.48
  -2   0  26    2.45    0.50
  -2   1   1   10.21    0.14
  -2   1   2   13.17    0.30
  -2   1   3    1.46    0.20
  -2   1   4   29.80    0.80
  -2   1   5    0.69    0.11
  -2   1   6    0.02    0.18
  -2   1   7    2.52    0.14
  -2   1   8    1.34    0.17
  -2   1   9   12.42    0.40
  -2   1  10    7.56    0.22
  -2   1  11    5.03    0.30
  -2   1  12   29.91    0.55
  -2   1  13    0.09    0.18
  -2   1  14    5.51    0.21
  -2   1  15    9.08    0.42
  -2   1  16    0.28    0.20
  -2   1  17    3.64    0.23
  -2   1  18    0.03    0.29
  -2   1  19    5.29    0.48
  -2   1  20    0.88    0.41
  -2   1  21    0.35    0.44
  -2   1  22    0.87    0.45
  -2   1  23    0.13    0.45
  -2   1  24    2.00    0.48
  -2   1  25    0.13    0.47
  -2   1  26    5.79    0.56
  -2   2   1   54.65    0.91
  -2   2   2   31.14    1.34
  -2   2   3   10.70    0.57
  -2   2   4   33.42    0.80
  -2   2   5    0.26    0.12
  -2   2   6    0.20    0.13
  -2   2   7    0.06    0.14
  -2   2   8    0.01    0.29
  -2   2   9   20.81    0.54
  -2   2  10    6.98    0.29
  -2   2  11    2.53    0.25
  -2   2  12    2.63    0.25
  -2   2  13    1.46    0.22
  -2   2  14   10.71    0.37
  -2   2  15    8.07    0.78
  -2   2  16    7.13    0.27
  -2   2  17    0.53    0.21
  -2   2  18    1.34    0.26
  -2   2  19    0.82    0.25
  -2   2  20    2.80    0.45
  -2   2  21    0.16    0.42
  -2   2  22    0.15    0.44
  -2   2  23    0.43    0.46
  -2   2  24    0.07    0.48
  -2   2  25    1.91    0.51
  -2   2  26    3.32    0.52
  -2   3   1  199.33    1.67
  -2   3   2  121.36    2.53
  -2   3   3    1.36    0.13
  -2   3   4    0.84    0.17
  -2   3   5    3.20    0.31
  -2   3   6    7.72    0.37
  -2   3   7    0.00    0.14
  -2   3   8   33.20    0.42
  -2   3   9    5.63    0.30
  -2   3  10    0.95    0.21
  -2   3  11    0.58    0.20
  -2   3  12   52.05    1.08
  -2   3  13    7.17    0.65
  -2   3  14    5.97    0.28
  -2   3  15    3.80    0.23
  -2   3  16    0.34    0.20
  -2   3  17    9.24    0.36
  -2   3  18    1.05    0.25
  -2   3  19    1.09    0.27
  -2   3  20    0.37    0.26
  -2   3  21    0.61    0.44
  -2   3  22    3.29    0.52
  -2   3  23    0.25    0.45
  -2   3  24    1.37    0.48
  -2   3  25    1.47    0.49
  -2   3  26    1.88    0.52
  -2   4   1    0.83    0.21
  -2   4   2    1.46    0.24
  -2   4   3    1.16    0.20
  -2   4   4   76.44    0.84
  -2   4   5   31.94    0.32
  -2   4   6   31.88    0.63
  -2   4   7   18.58    0.62
  -2   4   8    0.50    0.16
  -2   4   9   24.58    0.45
  -2   4  10    1.64    0.21
  -2   4  11    0.01    0.20
  -2   4  12    0.10    0.22
  -2   4  13   22.21    0.58
  -2   4  14    8.87    0.32
  -2   4  15    4.50    0.24
  -2   4  16    0.34    0.21
  -2   4  17    4.69    0.31
  -2   4  18    0.27    0.26
  -2   4  19    4.92    0.31
  -2   4  20    3.15    0.49
  -2   4  21    1.39    0.46
  -2   4  22    0.11    0.45
  -2   4  23    0.46    0.46
  -2   4  24    0.28    0.46
  -2   4  25    5.30    0.55
  -2   4  26    0.42    0.51
  -2   5   1   21.36    0.98
  -2   5   2   10.18    0.48
  -2   5   3    4.47    0.67
  -2   5   4    0.00    0.16
  -2   5   5    4.33    0.25
  -2   5   6    2.08    0.16
  -2   5   7   29.10    0.56
  -2   5   8    3.89    0.23
  -2   5   9   11.94    0.41
  -2   5  10    3.93    0.22
  -2   5  11   13.73    0.57
  -2   5  12    1.27    0.22
  -2   5  13   80.51    1.26
  -2   5  14    0.40    0.23
  -2   5  15   26.61    0.54
  -2   5  16    0.01    0.42
  -2   5  17   15.92    0.49
  -2   5  18    3.53    0.31
  -2   5  19    0.74    0.28
  -2   5  20    3.23    0.54
  -2   5  21    4.13    0.48
  -2   5  22    0.62    0.45
  -2   5  23    0.11    0.46
  -2   5  24    1.61    0.49
  -2   5  25    1.28    0.50
  -2   5  26    0.00    0.50
  -2   6   1    0.14    0.19
  -2   6   2  102.30    1.17
  -2   6   3   10.42    0.16
  -2   6   4   74.97    0.96
  -2   6   5    2.99    0.51
  -2   6   6   24.82    0.48
  -2   6   7    2.96    0.21
  -2   6   8    1.36    0.32
  -2   6   9   12.21    0.47
  -2   6  10    3.55    0.25
  -2   6  11    2.33    0.19
  -2   6  12    9.76    0.31
  -2   6  13   16.37    0.39
  -2   6  14    6.45    0.44
  -2   6  15    3.76    0.29
  -2   6  16   27.83    0.71
  -2   6  17    1.26    0.54
  -2   6  18   14.99    0.56
  -2   6  19    1.03    0.30
  -2   6  20    1.82    0.29
  -2   6  21    5.69    0.35
  -2   6  22    0.18    0.46
  -2   6  23    1.11    0.48
  -2   6  24    0.10    0.48
  -2   6  25    0.82    0.50
  -2   6  26    0.00    0.49
  -2   7   1    1.82    0.13
  -2   7   2   27.14    0.38
  -2   7   3    5.26    0.17
  -2   7   4    1.50    0.30
  -2   7   5   52.09    0.82
  -2   7   6    0.31    0.33
  -2   7   7    0.06    0.21
  -2   7   8   34.37    0.62
  -2   7   9    9.38    0.51
  -2   7  10    4.86    0.33
  -2   7  11    1.36    0.21
  -2   7  12    0.07    0.20
  -2   7  13   12.45    0.39
  -2   7  14    2.08    0.25
  -2   7  15    5.82    0.35
  -2   7  16    2.65    0.34
  -2   7  17    1.59    0.28
  -2   7  18    7.84    0.43
  -2   7  19    2.33    0.70
  -2   7  20   13.65    0.49
  -2   7  21    0.24    0.30
  -2   7  22    1.24    0.47
  -2   7  23    0.14    0.46
  -2   7  24    0.00    0.46
  -2   7  25    0.49    0.50
  -2   7  26    0.00    0.48
  -2   8   1   12.65    0.37
  -2   8   2   14.78    0.51
  -2   8   3    3.45    0.49
  -2   8   4   15.71    0.38
  -2   8   5    0.65    0.20
  -2   8   6   24.02    0.50
  -2   8   7   10.83    0.35
  -2   8   8    3.86    0.34
  -2   8   9    1.28    0.22
  -2   8  10    2.54    0.22
  -2   8  11   10.53    0.66
  -2   8  12    0.08    0.20
  -2   8  13   19.34    0.65
  -2   8  14   56.69    1.06
  -2   8  15    0.19    0.25
  -2   8  16   37.97    0.75
  -2   8  17    0.94    0.29
  -2   8  18   19.16    0.84
  -2   8  19    3.75    0.41
  -2   8  20    1.08    0.39
  -2   8  21    1.29    0.31
  -2   8  22    0.43    0.31
  -2   8  23    0.25    0.45
  -2   8  24    0.00    0.47
  -2   8  25    0.00    0.47
  -2   9   1    0.13    0.20
  -2   9   2    0.38    0.26
  -2   9   3    0.14    0.24
  -2   9   4   15.13    0.44
  -2   9   5    6.45    0.31
  -2   9   6    0.34    0.20
  -2   9   7    3.00    0.23
  -2   9   8    0.68    0.35
  -2   9   9    4.61    0.31
  -2   9  10    2.05    0.31
  -2   9  11    4.32    0.23
  -2   9  12   16.91    0.43
  -2   9  13    0.57    0.26
  -2   9  14   17.42    0.44
  -2   9  15    1.95    0.30
  -2   9  16    0.00    0.31
  -2   9  17   37.02    0.80
  -2   9  18    4.96    0.36
  -2   9  19    8.98    0.48
  -2   9  20    0.50    0.31
  -2   9  21    2.07    0.34
  -2   9  22    0.96    0.32
  -2   9  23    0.66    0.48
  -2   9  24    0.80    0.50
  -2   9  25    0.03    0.48
  -2  10   1    1.94    0.28
  -2  10   2   22.56    0.44
  -2  10   3    6.34    0.32
  -2  10   4   11.30    0.31
  -2  10   5    1.09    0.23
  -2  10   6    0.05    0.20
  -2  10   7    3.83    0.22
  -2  10   8    0.99    0.21
  -2  10   9    0.03    0.19
  -2  10  10    3.40    0.26
  -2  10  11    1.28    0.22
  -2  10  12    6.89    0.40
  -2  10  13    0.25    0.27
  -2  10  14    5.44    0.41
  -2  10  15    1.68    0.51
  -2  10  16    0.50    0.28
  -2  10  17    2.31    0.31
  -2  10  18    2.21    0.80
  -2  10  19    7.07    0.37
  -2  10  20    0.01    0.45
  -2  10  21    1.59    0.34
  -2  10  22    1.35    0.34
  -2  10  23    0.05    0.48
  -2  10  24    1.35    0.51
  -2  10  25    0.00    0.49
  -2  11   1    0.08    0.17
  -2  11   2    3.57    0.37
  -2  11   3    1.62    0.20
  -2  11   4    0.00    0.19
  -2  11   5    9.07    0.32
  -2  11   6    0.62    0.20
  -2  11   7    0.99    0.20
  -2  11   8    2.13    0.23
  -2  11   9    0.20    0.21
  -2  11  10    0.83    0.32
  -2  11  11    2.14    0.27
  -2  11  12    9.13    0.43
  -2  11  13   24.82    0.55
  -2  11  14    0.38    0.28
  -2  11  15    0.28    0.62
  -2  11  16    6.67    0.44
  -2  11  17    1.68    0.31
  -2  11  18    1.75    0.69
  -2  11  19    0.06    0.31
  -2  11  20    2.49    0.34
  -2  11  21    0.23    0.33
  -2  11  22    1.12    1.01
  -2  11  23    0.04    0.48
  -2  11  24    0.07    0.48
  -2  12   1    0.42    0.16
  -2  12   2    3.18    0.18
  -2  12   3    0.18    0.20
  -2  12   4    1.50    0.19
  -2  12   5    1.51    0.21
  -2  12   6    1.42    0.21
  -2  12   7    0.81    0.20
  -2  12   8    1.21    0.22
  -2  12   9    0.21    0.21
  -2  12  10    0.53    0.25
  -2  12  11    0.09    0.26
  -2  12  12   10.06    0.37
  -2  12  13    0.68    0.30
  -2  12  14    4.51    0.35
  -2  12  15    1.59    0.31
  -2  12  16    4.76    0.66
  -2  12  17    9.18    0.48
  -2  12  18    0.09    0.32
  -2  12  19    0.27    0.33
  -2  12  20    0.12    0.40
  -2  12  21    0.30    0.34
  -2  12  22    0.04    0.34
  -2  12  23    0.02    0.38
  -2  12  24    1.10    0.52
  -2  13   1    7.79    0.26
  -2  13   2    0.04    0.19
  -2  13   3    3.11    0.20
  -2  13   4    6.03    0.23
  -2  13   5   17.17    0.83
  -2  13   6   24.21    0.50
  -2  13   7   10.01    0.45
  -2  13   8    9.99    0.34
  -2  13   9    0.61    0.26
  -2  13  10    8.42    0.36
  -2  13  11    1.54    0.31
  -2  13  12    0.00    0.39
  -2  13  13    2.09    0.40
  -2  13  14    9.46    0.47
  -2  13  15    2.48    0.35
  -2  13  16    0.00    0.54
  -2  13  17    0.47    0.57
  -2  13  18    2.66    0.46
  -2  13  19    0.56    0.34
  -2  13  20    2.18    0.35
  -2  13  21    0.05    0.33
  -2  13  22    3.25    0.38
  -2  13  23    0.72    0.48
  -2  14   1    2.29    0.17
  -2  14   2    0.10    0.18
  -2  14   3    0.80    0.22
  -2  14   4   10.99    0.34
  -2  14   5    2.09    0.22
  -2  14   6   15.71    0.43
  -2  14   7    0.02    0.21
  -2  14   8    5.03    0.28
  -2  14   9    0.97    0.28
  -2  14  10    2.11    0.48
  -2  14  11   11.24    0.45
  -2  14  12    1.28    0.31
  -2  14  13    0.04    0.30
  -2  14  14    7.36    0.47
  -2  14  15    1.15    0.33
  -2  14  16    0.00    0.32
  -2  14  17    1.30    0.34
  -2  14  18    0.07    0.32
  -2  14  19    0.64    0.34
  -2  14  20    0.51    0.35
  -2  14  21    3.09    0.37
  -2  14  22    0.01    0.34
  -2  15   1   20.73    0.43
  -2  15   2    0.35    0.19
  -2  15   3    4.74    0.24
  -2  15   4    0.02    0.20
  -2  15   5    1.26    0.22
  -2  15   6    6.49    0.30
  -2  15   7    0.61    0.23
  -2  15   8   18.08    0.54
  -2  15   9    0.01    0.28
  -2  15  10    6.70    0.37
  -2  15  11   14.28    0.53
  -2  15  12    0.59    0.30
  -2  15  13    0.76    0.31
  -2  15  14    0.40    0.31
  -2  15  15    0.07    0.32
  -2  15  16    0.23    0.32
  -2  15  17    0.08    0.32
  -2  15  18    0.15    0.57
  -2  15  19    0.03    0.34
  -2  15  20    0.98    0.61
  -2  15  21    0.00    0.33
  -2  16   1    4.76    0.31
  -2  16   2    7.65    0.32
  -2  16   3    4.95    0.24
  -2  16   4    8.58    0.34
  -2  16   5    0.36    0.29
  -2  16   6    0.00    0.23
  -2  16   7    8.71    0.37
  -2  16   8    0.12    0.28
  -2  16   9   12.20    0.46
  -2  16  10    0.67    0.44
  -2  16  11    3.26    0.33
  -2  16  12    0.67    0.32
  -2  16  13    0.00    0.30
  -2  16  14   12.85    1.03
  -2  16  15    0.08    0.41
  -2  16  16    0.97    0.35
  -2  16  17    0.01    0.33
  -2  16  18    1.05    0.34
  -2  16  19    1.12    0.36
  -2  16  20    0.01    0.34
  -2  17   1    2.22    0.51
  -2  17   2    3.14    0.35
  -2  17   3    0.03    0.32
  -2  17   4    7.68    0.32
  -2  17   5    1.19    0.24
  -2  17   6    3.22    0.31
  -2  17   7    5.62    0.33
  -2  17   8    0.05    0.28
  -2  17   9    3.30    0.32
  -2  17  10    0.94    0.30
  -2  17  11    4.54    0.38
  -2  17  12    0.00    0.51
  -2  17  13    2.13    0.82
  -2  17  14    0.00    0.31
  -2  17  15    0.11    0.32
  -2  17  16    0.11    0.34
  -2  17  17    0.46    0.68
  -2  17  18    0.88    0.35
  -2  17  19    1.51    0.35
  -2  18   1    0.39    0.32
  -2  18   2    6.74    0.41
  -2  18   3    0.62    0.34
  -2  18   4    1.45    0.34
  -2  18   5    2.07    0.46
  -2  18   6    4.14    0.32
  -2  18   7    6.85    0.36
  -2  18   8    1.92    0.46
  -2  18   9    0.51    0.30
  -2  18  10    0.32    0.30
  -2  18  11    0.00    0.31
  -2  18  12    0.05    0.48
  -2  18  13    0.78    0.33
  -2  18  14    2.14    0.34
  -2  18  15    0.87    0.34
  -2  18  16    1.62    0.37
  -2  18  17    2.32    0.36
  -2  18  18    0.04    0.34
  -2  19   1    0.19    0.33
  -2  19   2    4.10    0.42
  -2  19   3    2.98    0.48
  -2  19   4    3.58    0.48
  -2  19   5    0.00    0.42
  -2  19   6    1.24    0.45
  -2  19   7    3.09    0.48
  -2  19   8    2.78    0.32
  -2  19   9    0.52    0.44
  -2  19  10    2.01    0.63
  -2  19  11    0.21    0.44
  -2  19  12    0.01    0.31
  -2  19  13    1.15    0.34
  -2  19  14    2.81    0.36
  -2  19  15    2.42    0.55
  -2  19  16    2.08    0.37
  -2  20   1    0.07    0.34
  -2  20   2    2.39    0.47
  -2  20   3    1.41    0.43
  -2  20   4    0.10    0.41
  -2  20   5    3.44    0.48
  -2  20   6    0.94    0.44
  -2  20   7    0.09    0.43
  -2  20   8    0.37    0.44
  -2  20   9    0.22    0.44
  -2  20  10    1.19    0.33
  -2  20  11    1.45    0.33
  -2  20  12    1.24    0.34
  -2  20  13    0.00    0.32
  -2  20  14    0.00    0.33
  -2  20  15    0.00    0.34
  -2  21   1    2.94    0.48
  -2  21   2    0.01    0.42
  -2  21   3    3.83    0.50
  -2  21   4    1.24    0.45
  -2  21   5    1.55    0.46
  -2  21   6    2.24    0.49
  -2  21   7    0.95    0.46
  -2  21   8    0.44    0.46
  -2  21   9    0.66    0.47
  -2  21  10    0.03    0.46
  -2  21  11    0.01    0.46
  -2  21  12    0.01    0.48
  -2  22   1    1.38    0.47
  -2  22   2    1.12    0.45
  -2  22   3    0.01    0.43
  -2  22   4    1.59    0.48
  -2  22   5    0.48    0.46
  -2  22   6    0.01    0.45
  -2  22   7    0.56    0.48
  -2  22   8    2.10    0.51
  -2  22   9    0.63    0.47
  -1 -23   1    0.79    0.46
  -1 -23   2    0.00    0.45
  -1 -23   3    0.01    0.44
  -1 -23   4    0.00    0.44
  -1 -22   1    1.12    0.46
  -1 -22   2    0.02    0.45
  -1 -22   3    0.46    0.43
  -1 -22   4    0.37    0.44
  -1 -22   5    0.02    0.43
  -1 -22   6    0.35    0.44
  -1 -22   7    3.02    0.50
  -1 -21   1    0.29    0.42
  -1 -21   2    0.70    0.43
  -1 -21   3    0.83    0.45
  -1 -21   4    0.18    0.43
  -1 -21   5    0.24    0.35
  -1 -21   6    4.54    0.39
  -1 -21   7    2.41    0.46
  -1 -21   8    0.18    0.35
  -1 -21   9    0.33    0.35
  -1 -21  10    0.38    0.35
  -1 -20   1    0.38    0.42
  -1 -20   2    3.43    0.37
  -1 -20   3    0.24    0.33
  -1 -20   4    0.15    0.33
  -1 -20   5    5.78    0.73
  -1 -20   6    5.78    0.40
  -1 -20   7    3.73    0.38
  -1 -20   8    2.86    0.37
  -1 -20   9    0.35    0.54
  -1 -20  10    5.11    0.40
  -1 -20  11    1.13    0.36
  -1 -20  12    0.00    0.34
  -1 -19   1    1.86    0.35
  -1 -19   2    0.01    0.47
  -1 -19   3    0.31    0.32
  -1 -19   4    0.00    0.32
  -1 -19   5    3.70    0.36
  -1 -19   6    1.66    0.33
  -1 -19   7    0.40    0.32
  -1 -19   8    0.00    0.32
  -1 -19   9    1.25    0.34
  -1 -19  10    0.01    0.33
  -1 -19  11    2.80    0.37
  -1 -19  12    0.10    0.33
  -1 -19  13    0.00    0.33
  -1 -19  14    0.69    0.35
  -1 -18   1    2.23    0.45
  -1 -18   2   10.44    0.50
  -1 -18   3    0.36    0.31
  -1 -18   4    0.00    0.31
  -1 -18   5    3.55    0.36
  -1 -18   6   12.37    0.49
  -1 -18   7    1.30    0.32
  -1 -18   8    1.12    0.34
  -1 -18   9    0.02    0.31
  -1 -18  10    0.20    0.32
  -1 -18  11    5.75    0.41
  -1 -18  12    0.37    0.42
  -1 -18  13    3.57    0.37
  -1 -18  14    0.21    0.33
  -1 -18  15    0.00    0.32
  -1 -17   1    3.15    0.24
  -1 -17   2    2.92    0.33
  -1 -17   3    2.16    0.32
  -1 -17   4    0.85    0.30
  -1 -17   5    4.51    0.36
  -1 -17   6    0.20    0.30
  -1 -17   7    0.20    0.30
  -1 -17   8    1.33    0.31
  -1 -17   9    0.24    0.62
  -1 -17  10    1.33    0.33
  -1 -17  11    0.05    0.31
  -1 -17  12    1.02    0.38
  -1 -17  13    0.00    0.31
  -1 -17  14    1.08    0.41
  -1 -17  15    0.40    0.41
  -1 -17  16    2.04    0.45
  -1 -17  17    3.93    0.47
  -1 -16   1    2.53    0.31
  -1 -16   2    0.39    0.18
  -1 -16   3    0.01    0.50
  -1 -16   4    3.90    0.28
  -1 -16   5    2.45    0.27
  -1 -16   6    0.12    0.24
  -1 -16   7    5.97    0.33
  -1 -16   8    1.37    0.27
  -1 -16   9   11.62    0.40
  -1 -16  10    1.45    0.34
  -1 -16  11    1.61    0.27
  -1 -16  12    0.00    0.38
  -1 -16  13    0.61    0.38
  -1 -16  14    0.46    0.39
  -1 -16  15    2.31    0.42
  -1 -16  16    0.78    0.41
  -1 -16  17    3.70    0.47
  -1 -16  18    0.08    0.42
  -1 -15   1   10.25    0.29
  -1 -15   2   15.16    0.35
  -1 -15   3    4.59    0.21
  -1 -15   4    2.23    0.21
  -1 -15   5    5.92    0.30
  -1 -15   6    0.00    0.23
  -1 -15   7    3.11    0.26
  -1 -15   8    0.33    0.24
  -1 -15   9    0.43    0.27
  -1 -15  10    1.56    0.25
  -1 -15  11    0.93    0.30
  -1 -15  12    0.91    0.31
  -1 -15  13    0.02    0.30
  -1 -15  14    0.00    0.57
  -1 -15  15    1.08    0.39
  -1 -15  16    0.91    0.42
  -1 -15  17    0.17    0.40
  -1 -15  18    0.00    0.40
  -1 -15  19    6.21    0.54
  -1 -14   1    2.95    0.18
  -1 -14   2    0.18    0.16
  -1 -14   3    0.19    0.15
  -1 -14   4    0.01    0.15
  -1 -14   5    1.33    0.16
  -1 -14   6    5.60    0.31
  -1 -14   7    1.57    0.30
  -1 -14   8   14.58    0.43
  -1 -14   9    0.96    0.45
  -1 -14  10    3.44    0.36
  -1 -14  11    0.85    0.29
  -1 -14  12    3.26    0.33
  -1 -14  13    4.37    0.33
  -1 -14  14    0.44    0.29
  -1 -14  15    0.15    0.52
  -1 -14  16    0.00    0.43
  -1 -14  17    0.01    0.38
  -1 -14  18    0.25    0.41
  -1 -14  19    0.39    0.41
  -1 -14  20    0.27    0.42
  -1 -13   1    0.09    0.16
  -1 -13   2    0.14    0.15
  -1 -13   3   30.61    0.54
  -1 -13   4    0.06    0.23
  -1 -13   5   11.51    0.27
  -1 -13   6   11.28    0.24
  -1 -13   7    0.65    0.21
  -1 -13   8    0.95    0.26
  -1 -13   9    0.74    0.24
  -1 -13  10   16.90    0.46
  -1 -13  11    1.44    0.26
  -1 -13  12    0.55    0.77
  -1 -13  13    0.25    0.27
  -1 -13  14    0.46    0.29
  -1 -13  15    5.98    0.39
  -1 -13  16    0.68    0.34
  -1 -13  17    1.99    0.32
  -1 -13  18    0.01    0.31
  -1 -13  19    1.28    0.42
  -1 -13  20    1.51    0.43
  -1 -13  21    4.44    0.48
  -1 -12   1    5.15    0.19
  -1 -12   2    0.27    0.15
  -1 -12   3    0.54    0.15
  -1 -12   4    4.34    0.19
  -1 -12   5    3.62    0.19
  -1 -12   6    2.65    0.28
  -1 -12   7    0.83    0.31
  -1 -12   8    6.06    0.35
  -1 -12   9    0.54    0.29
  -1 -12  10    1.10    0.24
  -1 -12  11    2.52    0.28
  -1 -12  12    1.66    1.02
  -1 -12  13    0.74    0.27
  -1 -12  14    0.06    0.27
  -1 -12  15    1.36    0.30
  -1 -12  16    1.30    0.30
  -1 -12  17    0.07    0.32
  -1 -12  18    9.75    0.47
  -1 -12  19    1.72    0.33
  -1 -12  20    0.37    0.41
  -1 -12  21    9.68    0.59
  -1 -12  22    0.31    0.42
  -1 -11   1    5.82    0.24
  -1 -11   2    0.42    0.16
  -1 -11   3    0.02    0.15
  -1 -11   4    9.77    0.24
  -1 -11   5    4.39    0.18
  -1 -11   6    7.17    0.38
  -1 -11   7    3.39    0.15
  -1 -11   8    2.29    0.24
  -1 -11   9    0.04    0.27
  -1 -11  10    6.99    0.35
  -1 -11  11    0.20    0.23
  -1 -11  12    2.97    0.27
  -1 -11  13    4.06    0.27
  -1 -11  14    3.90    0.28
  -1 -11  15    1.85    0.32
  -1 -11  16    0.57    0.28
  -1 -11  17    0.10    0.29
  -1 -11  18    0.04    0.30
  -1 -11  19    0.05    0.55
  -1 -11  20    0.00    0.32
  -1 -11  21    3.04    0.45
  -1 -11  22    0.02    0.42
  -1 -11  23    0.04    0.42
  -1 -10   1    0.95    0.17
  -1 -10   2    0.15    0.16
  -1 -10   3    0.94    0.20
  -1 -10   4    5.60    0.22
  -1 -10   5    0.04    0.15
  -1 -10   6   33.68    0.51
  -1 -10   7    0.02    0.13
  -1 -10   8   20.28    0.46
  -1 -10   9   16.40    0.35
  -1 -10  10    0.80    0.21
  -1 -10  11   10.10    0.36
  -1 -10  12    0.40    0.23
  -1 -10  13    8.66    0.32
  -1 -10  14    0.42    0.43
  -1 -10  15    0.07    0.26
  -1 -10  16    4.24    0.37
  -1 -10  17    0.63    0.29
  -1 -10  18   12.89    0.51
  -1 -10  19    1.44    0.32
  -1 -10  20    3.85    0.71
  -1 -10  21    4.39    0.49
  -1 -10  22    0.00    0.42
  -1 -10  23    6.25    0.52
  -1  -9   1   21.38    0.52
  -1  -9   2    6.22    0.45
  -1  -9   3   11.59    0.27
  -1  -9   4    9.54    0.22
  -1  -9   5    9.10    0.31
  -1  -9   6    9.82    0.29
  -1  -9   7    2.65    0.14
  -1  -9   8   29.94    0.58
  -1  -9   9    0.37    0.17
  -1  -9  10    0.10    0.21
  -1  -9  11    1.98    0.35
  -1  -9  12   18.83    0.56
  -1  -9  13    4.22    0.26
  -1  -9  14    4.96    0.29
  -1  -9  15    0.03    0.25
  -1  -9  16    0.21    0.26
  -1  -9  17    2.76    0.29
  -1  -9  18    1.08    0.37
  -1  -9  19    0.23    0.30
  -1  -9  20    2.59    0.34
  -1  -9  21    0.01    0.32
  -1  -9  22    1.23    0.42
  -1  -9  23    0.02    0.42
  -1  -9  24    2.56    0.46
  -1  -8   1    0.83    0.13
  -1  -8   2   38.21    0.54
  -1  -8   3    0.10    0.15
  -1  -8   4   18.40    0.69
  -1  -8   5    0.09    0.17
  -1  -8   6   20.95    0.44
  -1  -8   7    4.56    0.16
  -1  -8   8    0.62    0.14
  -1  -8   9   35.26    0.62
  -1  -8  10    0.28    0.20
  -1  -8  11    9.72    0.36
  -1  -8  12    3.53    0.37
  -1  -8  13    1.76    0.24
  -1  -8  14   14.45    0.76
  -1  -8  15    0.31    0.23
  -1  -8  16    1.32    0.30
  -1  -8  17    1.05    0.28
  -1  -8  18    1.50    0.29
  -1  -8  19    9.75    0.49
  -1  -8  20    4.68    0.37
  -1  -8  21    2.21    0.33
  -1  -8  22    9.14    0.61
  -1  -8  23    0.91    0.43
  -1  -8  24    0.05    0.43
  -1  -7   1    6.95    0.22
  -1  -7   2    3.51    0.12
  -1  -7   3   12.48    0.39
  -1  -7   4   36.21    0.61
  -1  -7   5   31.68    0.61
  -1  -7   6    2.64    0.57
  -1  -7   7   48.90    0.63
  -1  -7   8   86.79    1.27
  -1  -7   9    8.09    0.41
  -1  -7  10   26.06    0.45
  -1  -7  11   14.57    0.49
  -1  -7  12   42.54    0.97
  -1  -7  13    1.53    0.29
  -1  -7  14   12.28    0.35
  -1  -7  15   14.08    0.48
  -1  -7  16    1.69    0.26
  -1  -7  17    5.87    0.33
  -1  -7  18    0.04    0.28
  -1  -7  19    6.82    0.43
  -1  -7  20    3.49    0.32
  -1  -7  21    1.05    0.38
  -1  -7  22    2.39    0.44
  -1  -7  23    1.37    0.43
  -1  -7  24    2.18    0.45
  -1  -7  25    0.24    0.45
  -1  -6   1    0.43    0.12
  -1  -6   2   15.96    0.48
  -1  -6   3   10.50    0.21
  -1  -6   4    1.90    0.19
  -1  -6   5    1.72    0.13
  -1  -6   6    8.95    0.35
  -1  -6   7   16.36    0.61
  -1  -6   8    7.19    0.19
  -1  -6   9    0.36    0.21
  -1  -6  10    0.71    0.13
  -1  -6  11    1.62    0.12
  -1  -6  12   10.41    0.39
  -1  -6  13   12.25    0.71
  -1  -6  14    3.55    0.26
  -1  -6  15    3.01    0.27
  -1  -6  16    0.05    0.24
  -1  -6  17    2.42    0.51
  -1  -6  18    2.34    0.42
  -1  -6  19    3.32    0.31
  -1  -6  20    1.03    0.31
  -1  -6  21    0.31    0.31
  -1  -6  22    0.01    0.40
  -1  -6  23    0.08    0.41
  -1  -6  24    0.04    0.42
  -1  -6  25    0.07    0.43
  -1  -5   1   37.65    0.82
  -1  -5   2    2.33    0.18
  -1  -5   3    1.94    0.12
  -1  -5   5    4.37    0.11
  -1  -5   6   13.53    0.28
  -1  -5   7   29.45    0.64
  -1  -5   8   29.41    1.06
  -1  -5   9    3.66    0.27
  -1  -5  10   93.73    1.30
  -1  -5  11    0.83    0.13
  -1  -5  12   11.58    0.29
  -1  -5  13    6.58    0.33
  -1  -5  14    7.49    0.41
  -1  -5  15   20.38    1.49
  -1  -5  16    1.24    0.46
  -1  -5  17    6.19    0.29
  -1  -5  18    6.66    0.61
  -1  -5  19    1.70    0.29
  -1  -5  20    2.49    0.33
  -1  -5  21    0.00    0.31
  -1  -5  22    1.76    0.43
  -1  -5  23    0.20    0.41
  -1  -5  24    0.18    0.42
  -1  -5  25    2.82    0.48
  -1  -5  26    0.81    0.46
  -1  -4   1   24.67    0.24
  -1  -4   2   28.44    0.17
  -1  -4   3   13.65    0.34
  -1  -4   4    8.74    0.12
  -1  -4   5   45.68    0.68
  -1  -4   6   44.37    0.88
  -1  -4   7    8.41    0.25
  -1  -4   8    4.39    0.22
  -1  -4   9    2.97    0.15
  -1  -4  10    1.82    0.16
  -1  -4  11    0.70    0.14
  -1  -4  12    6.44    0.26
  -1  -4  13   20.14    0.48
  -1  -4  14    2.19    0.13
  -1  -4  15    6.84    0.30
  -1  -4  16    3.41    0.29
  -1  -4  17    4.81    0.67
  -1  -4  18    7.00    0.84
  -1  -4  19    0.12    0.28
  -1  -4  20    0.92    0.30
  -1  -4  21    0.55    0.31
  -1  -4  22    0.92    0.41
  -1  -4  23    1.57    0.43
  -1  -4  24    0.43    0.42
  -1  -4  25    0.93    0.45
  -1  -4  26    2.24    0.49
  -1  -3   1   18.89    0.92
  -1  -3   2   14.22    0.17
  -1  -3   3    7.71    0.21
  -1  -3   4    3.86    0.15
  -1  -3   5   44.87    1.09
  -1  -3   6   55.25    0.77
  -1  -3   7   12.07    0.37
  -1  -3   8    1.31    0.13
  -1  -3   9    1.60    0.14
  -1  -3  10    8.84    0.28
  -1  -3  11   24.33    0.33
  -1  -3  12    0.43    0.16
  -1  -3  13   17.84    0.45
  -1  -3  14    1.12    0.15
  -1  -3  15    7.62    0.60
  -1  -3  16    0.02    0.23
  -1  -3  17    2.95    0.27
  -1  -3  18   14.10    0.48
  -1  -3  19    1.92    0.31
  -1  -3  20    1.30    0.41
  -1  -3  21    0.85    0.42
  -1  -3  22    2.05    0.42
  -1  -3  23    5.30    0.49
  -1  -3  24    0.54    0.44
  -1  -3  25    3.87    0.52
  -1  -3  26    1.54    0.49
  -1  -2   1    8.82    0.31
  -1  -2   2    6.38    0.08
  -1  -2   3    2.55    0.10
  -1  -2   4    0.91    0.14
  -1  -2   5   11.02    0.39
  -1  -2   6    2.21    0.18
  -1  -2   7   15.85    0.27
  -1  -2   8    1.84    0.22
  -1  -2   9   20.32    0.37
  -1  -2  10    1.17    0.24
  -1  -2  11    2.11    0.16
  -1  -2  12   29.76    0.57
  -1  -2  13    1.77    0.17
  -1  -2  14   23.59    0.44
  -1  -2  15    0.64    0.15
  -1  -2  16   17.41    0.45
  -1  -2  17    0.09    0.56
  -1  -2  18    2.80    0.28
  -1  -2  19    0.00    0.29
  -1  -2  20    0.45    0.30
  -1  -2  21    4.83    0.37
  -1  -2  22    1.04    0.42
  -1  -2  23    0.16    0.42
  -1  -2  24    2.54    0.46
  -1  -2  25    0.44    0.45
  -1  -2  26    2.25    0.49
  -1  -2  27    0.00    0.46
  -1  -1   1   13.80    0.32
  -1  -1   2    1.27    0.11
  -1  -1   3    0.21    0.25
  -1  -1   4    0.81    0.12
  -1  -1   5    7.29    0.18
  -1  -1   6    2.61    0.25
  -1  -1   7    0.02    0.13
  -1  -1   8    1.26    0.13
  -1  -1   9    0.90    0.17
  -1  -1  10    3.36    0.84
  -1  -1  11    6.67    0.22
  -1  -1  12    1.68    0.22
  -1  -1  13    1.16    0.17
  -1  -1  14    0.00    0.20
  -1  -1  15    2.11    0.16
  -1  -1  16    3.24    0.19
  -1  -1  17    4.05    0.36
  -1  -1  18    0.11    0.31
  -1  -1  19    6.85    0.78
  -1  -1  20    0.09    0.30
  -1  -1  21    0.18    0.39
  -1  -1  22    1.83    0.42
  -1  -1  23    0.03    0.42
  -1  -1  24    0.09    0.43
  -1  -1  25    0.49    0.46
  -1  -1  26    0.79    0.47
  -1  -1  27    0.02    0.47
  -1   0   1    9.61    0.07
  -1   0   2    9.58    0.10
  -1   0   3   27.90    0.14
  -1   0   4    1.00    0.11
  -1   0   5    1.50    0.14
  -1   0   6    6.06    0.13
  -1   0   7   30.49    0.39
  -1   0   8   24.48    0.66
  -1   0   9    5.73    0.25
  -1   0  10    3.11    0.17
  -1   0  11    1.38    0.31
  -1   0  12    1.76    0.35
  -1   0  13    0.48    0.17
  -1   0  14    7.44    0.32
  -1   0  15    0.33    0.17
  -1   0  16    3.84    0.22
  -1   0  17    0.45    0.18
  -1   0  18    0.38    0.27
  -1   0  19    3.62    0.42
  -1   0  20    0.02    0.30
  -1   0  21    3.71    0.44
  -1   0  22    1.11    0.43
  -1   0  23    1.65    0.45
  -1   0  24    0.14    0.42
  -1   0  25    0.81    0.46
  -1   0  26    2.05    0.51
  -1   0  27    0.17    0.48
  -1   1   1   49.80    0.06
  -1   1   2   12.77    0.06
  -1   1   3    4.33    0.09
  -1   1   4    1.59    0.12
  -1   1   5   13.06    0.52
  -1   1   6   10.26    0.40
  -1   1   7    1.64    0.28
  -1   1   8    2.53    0.14
  -1   1   9    2.55    0.19
  -1   1  10   28.41    0.43
  -1   1  11   10.82    0.36
  -1   1  12    2.81    0.35
  -1   1  13    3.49    0.29
  -1   1  14    0.61    0.18
  -1   1  15    5.15    0.38
  -1   1  16    5.72    0.25
  -1   1  17   17.48    0.43
  -1   1  18    2.32    0.19
  -1   1  19    9.63    0.47
  -1   1  20    3.12    0.44
  -1   1  21    0.03    0.40
  -1   1  22    2.08    0.43
  -1   1  23    0.10    0.43
  -1   1  24    0.58    0.44
  -1   1  25    0.76    0.46
  -1   1  26    0.90    0.49
  -1   1  27    0.18    0.47
  -1   2   1   27.96    0.15
  -1   2   2   12.05    0.56
  -1   2   3   16.46    0.19
  -1   2   4    2.64    0.12
  -1   2   5   21.18    0.13
  -1   2   6    5.13    0.18
  -1   2   7    1.97    0.15
  -1   2   8    9.04    0.37
  -1   2   9   13.23    0.57
  -1   2  10   36.08    0.75
  -1   2  11    6.05    0.22
  -1   2  12   20.51    0.38
  -1   2  13   12.73    0.40
  -1   2  14   11.92    0.35
  -1   2  15    0.20    0.18
  -1   2  16    0.14    0.18
  -1   2  17    6.26    0.25
  -1   2  18   13.66    0.36
  -1   2  19    2.87    0.33
  -1   2  20    2.48    0.43
  -1   2  21    0.44    0.42
  -1   2  22    0.72    0.45
  -1   2  23    0.15    0.44
  -1   2  24    0.13    0.43
  -1   2  25    1.77    0.49
  -1   2  26    1.65    0.51
  -1   2  27    0.93    0.48
  -1   3   1  108.37    1.03
  -1   3   2   51.65    0.89
  -1   3   3  312.98    6.48
  -1   3   4    2.50    0.40
  -1   3   5   82.67    1.11
  -1   3   6    0.01    0.12
  -1   3   7   20.59    0.37
  -1   3   8  104.73    1.53
  -1   3   9    2.85    0.17
  -1   3  10   33.07    0.61
  -1   3  11   46.90    0.80
  -1   3  12    0.69    0.39
  -1   3  13   15.10    0.34
  -1   3  14    0.17    0.18
  -1   3  15   24.99    0.45
  -1   3  16    0.10    0.19
  -1   3  17   11.57    0.32
  -1   3  18    5.56    0.54
  -1   3  19    0.41    0.24
  -1   3  20   12.72    0.69
  -1   3  21    5.46    0.60
  -1   3  22    9.68    0.62
  -1   3  23    0.55    0.44
  -1   3  24    0.05    0.44
  -1   3  25    2.62    0.47
  -1   3  26    5.09    0.57
  -1   3  27    1.42    0.50
  -1   4   1   19.34    0.27
  -1   4   2    2.52    0.42
  -1   4   3    0.00    0.22
  -1   4   4    7.06    0.25
  -1   4   5  101.01    1.78
  -1   4   6   62.92    1.85
  -1   4   7   15.04    0.45
  -1   4   8   10.00    0.26
  -1   4   9    6.61    0.27
  -1   4  10    4.04    0.25
  -1   4  11    2.79    0.32
  -1   4  12   20.16    0.51
  -1   4  13    0.89    0.20
  -1   4  14    2.42    0.21
  -1   4  15    0.27    0.19
  -1   4  16    8.15    0.31
  -1   4  17   11.49    0.33
  -1   4  18   15.94    0.52
  -1   4  19    0.10    0.31
  -1   4  20    0.01    0.41
  -1   4  21   10.02    0.63
  -1   4  22    1.22    0.45
  -1   4  23    0.15    0.44
  -1   4  24    0.58    0.45
  -1   4  25    0.02    0.46
  -1   4  26    0.62    0.48
  -1   4  27    1.53    0.50
  -1   5   1    6.97    0.50
  -1   5   2   12.74    0.92
  -1   5   3   24.14    0.56
  -1   5   4   20.24    0.28
  -1   5   5    9.60    0.26
  -1   5   6   46.63    0.86
  -1   5   7    1.65    0.15
  -1   5   8   32.31    0.55
  -1   5   9   10.15    0.96
  -1   5  10    0.16    0.21
  -1   5  11    0.77    0.21
  -1   5  12    0.80    0.20
  -1   5  13   15.61    0.38
  -1   5  14    2.26    0.23
  -1   5  15    3.25    0.23
  -1   5  16   29.73    0.62
  -1   5  17    0.78    0.21
  -1   5  18   32.88    0.65
  -1   5  19    1.59    0.26
  -1   5  20    9.36    0.79
  -1   5  21    0.08    0.42
  -1   5  22    0.31    0.44
  -1   5  23    0.14    0.44
  -1   5  24    0.40    0.46
  -1   5  25    0.42    0.46
  -1   5  26    0.00    0.46
  -1   5  27    0.15    0.49
  -1   6   1   15.87    0.50
  -1   6   2   37.50    0.92
  -1   6   3    0.74    0.21
  -1   6   4    4.29    0.17
  -1   6   5   11.24    0.23
  -1   6   6    2.42    0.18
  -1   6   7    1.00    0.18
  -1   6   8    2.43    0.30
  -1   6   9    0.37    0.18
  -1   6  10   17.12    0.35
  -1   6  11    1.42    0.20
  -1   6  12   14.57    0.39
  -1   6  13    0.68    0.20
  -1   6  14   23.62    0.48
  -1   6  15    0.31    0.21
  -1   6  16   26.44    0.56
  -1   6  17    1.86    0.38
  -1   6  18    1.43    0.39
  -1   6  19   11.35    0.65
  -1   6  20    0.06    0.27
  -1   6  22    3.15    0.46
  -1   6  23    0.85    0.45
  -1   6  24    1.87    0.48
  -1   6  25    1.00    0.48
  -1   6  26    0.95    0.49
  -1   6  27    0.02    0.48
  -1   7   1    3.07    0.12
  -1   7   2   37.80    0.32
  -1   7   3    1.79    0.24
  -1   7   4    1.25    0.19
  -1   7   5    0.42    0.17
  -1   7   6    3.45    0.25
  -1   7   7    0.41    0.38
  -1   7   8    0.26    0.21
  -1   7   9    7.62    0.31
  -1   7  10   12.37    0.30
  -1   7  11    6.72    0.29
  -1   7  12    2.20    0.40
  -1   7  13    8.87    0.31
  -1   7  14    3.72    0.26
  -1   7  15    1.13    0.22
  -1   7  16   12.69    0.44
  -1   7  17    0.03    0.32
  -1   7  18    7.81    0.35
  -1   7  19    0.08    0.55
  -1   7  20    0.17    0.27
  -1   7  21    1.01    0.29
  -1   7  22    3.22    0.49
  -1   7  23    0.03    0.44
  -1   7  24    1.40    0.47
  -1   7  25    0.02    0.47
  -1   7  26    0.81    0.49
  -1   8   1    0.00    0.37
  -1   8   2    0.92    0.15
  -1   8   3    5.25    0.57
  -1   8   4    0.01    0.18
  -1   8   5    0.55    0.19
  -1   8   6   18.06    0.60
  -1   8   7    1.34    0.21
  -1   8   8    8.52    0.32
  -1   8   9    2.18    0.21
  -1   8  10    0.67    0.21
  -1   8  11    7.47    0.27
  -1   8  12   13.55    0.36
  -1   8  13    4.88    0.32
  -1   8  14   34.18    0.56
  -1   8  15    0.99    0.25
  -1   8  16    6.91    0.45
  -1   8  17    9.92    0.42
  -1   8  18    2.89    0.29
  -1   8  19   37.72    0.81
  -1   8  20    0.39    0.29
  -1   8  21    2.66    0.32
  -1   8  22    1.16    0.46
  -1   8  23    0.00    0.45
  -1   8  24    1.18    0.49
  -1   8  25    0.00    0.47
  -1   8  26    4.94    0.57
  -1   9   1    0.66    0.18
  -1   9   2    0.00    0.18
  -1   9   3   13.95    0.30
  -1   9   4    7.38    0.23
  -1   9   5   17.82    0.44
  -1   9   6    9.61    0.35
  -1   9   7    0.45    0.21
  -1   9   8    9.71    0.31
  -1   9   9    4.80    0.23
  -1   9  10    8.02    0.34
  -1   9  11    0.10    0.20
  -1   9  12   14.80    0.32
  -1   9  13   17.24    0.54
  -1   9  14    4.42    0.28
  -1   9  15    9.91    0.39
  -1   9  16    8.00    0.50
  -1   9  17    1.70    0.30
  -1   9  18    0.19    0.28
  -1   9  19    1.27    0.30
  -1   9  20    2.18    0.32
  -1   9  21    0.55    0.30
  -1   9  22    1.79    0.47
  -1   9  23    0.05    0.46
  -1   9  24    0.00    0.46
  -1   9  25    0.38    0.48
  -1   9  26    0.17    0.50
  -1  10   1    0.42    0.19
  -1  10   2   61.06    0.78
  -1  10   3  140.86    2.63
  -1  10   4    8.78    0.26
  -1  10   5   15.15    0.38
  -1  10   6    2.02    0.21
  -1  10   7    8.11    0.31
  -1  10   8    0.56    0.20
  -1  10   9    0.12    0.20
  -1  10  10    4.20    0.23
  -1  10  11    6.15    0.33
  -1  10  12    5.66    0.46
  -1  10  13    0.00    0.24
  -1  10  14    0.36    0.28
  -1  10  15    0.16    0.26
  -1  10  16    1.71    0.31
  -1  10  17    6.50    0.52
  -1  10  18    0.01    0.61
  -1  10  19    6.09    0.37
  -1  10  20    0.29    0.30
  -1  10  21    0.29    0.31
  -1  10  22    0.25    0.30
  -1  10  23    0.20    0.46
  -1  10  24    0.77    0.48
  -1  10  25    0.26    0.48
  -1  11   1   18.19    0.50
  -1  11   2    2.88    0.18
  -1  11   3   51.45    0.92
  -1  11   4    0.59    0.19
  -1  11   5   18.62    0.43
  -1  11   6   43.73    0.74
  -1  11   7    6.06    0.26
  -1  11   8   20.52    0.48
  -1  11   9    2.24    0.23
  -1  11  10    1.61    0.53
  -1  11  11    0.07    0.46
  -1  11  12    0.60    0.25
  -1  11  13   19.05    0.57
  -1  11  14    2.94    0.54
  -1  11  15    0.06    0.28
  -1  11  16    0.39    0.29
  -1  11  17    0.10    0.29
  -1  11  18    4.88    0.45
  -1  11  19    1.87    0.51
  -1  11  20    1.17    0.32
  -1  11  21    1.01    0.33
  -1  11  22    0.37    0.35
  -1  11  23    0.09    0.48
  -1  11  24    1.10    0.50
  -1  11  25    1.04    0.49
  -1  12   1    0.14    0.19
  -1  12   2    5.73    0.22
  -1  12   3    5.49    0.28
  -1  12   4    2.58    0.20
  -1  12   5    6.56    0.27
  -1  12   6    0.05    0.25
  -1  12   7    0.59    0.20
  -1  12   8    3.02    0.37
  -1  12   9    2.58    0.21
  -1  12  10    6.49    0.25
  -1  12  11    0.09    0.24
  -1  12  12    0.61    0.27
  -1  12  13    0.18    0.27
  -1  12  14    7.04    0.45
  -1  12  15    0.08    0.28
  -1  12  16    2.71    0.34
  -1  12  17    0.01    0.30
  -1  12  18    3.84    0.63
  -1  12  19    1.45    0.32
  -1  12  20    0.24    0.36
  -1  12  21    0.45    0.32
  -1  12  22    1.68    0.34
  -1  12  23    0.00    0.48
  -1  12  24    0.40    0.50
  -1  13   1   35.57    0.61
  -1  13   2   22.71    0.41
  -1  13   3    7.19    0.31
  -1  13   4   15.95    0.45
  -1  13   5    3.85    0.41
  -1  13   6   18.55    0.44
  -1  13   7    0.66    0.21
  -1  13   8    3.31    0.22
  -1  13   9    1.84    0.25
  -1  13  10    1.31    0.26
  -1  13  11    5.77    0.31
  -1  13  12    1.57    0.36
  -1  13  13    5.35    0.43
  -1  13  14    0.93    0.30
  -1  13  15    3.48    0.33
  -1  13  16    5.73    0.37
  -1  13  17    0.26    0.32
  -1  13  18    1.40    0.44
  -1  13  19    0.14    0.44
  -1  13  20    0.31    0.33
  -1  13  21    3.23    0.36
  -1  13  22    0.00    0.42
  -1  13  23    5.66    0.59
  -1  13  24    0.67    0.51
  -1  14   1    0.97    0.20
  -1  14   2   11.18    0.32
  -1  14   3    1.45    0.21
  -1  14   4    6.04    0.59
  -1  14   5    0.83    0.20
  -1  14   6    2.02    0.22
  -1  14   7    4.28    0.27
  -1  14   8    4.72    0.39
  -1  14   9    4.54    0.30
  -1  14  10    3.10    0.28
  -1  14  11    0.08    0.52
  -1  14  12    0.06    0.28
  -1  14  13    1.83    0.34
  -1  14  14    0.88    0.30
  -1  14  15    0.37    0.61
  -1  14  16   11.78    0.46
  -1  14  17    1.70    0.34
  -1  14  18    0.07    0.33
  -1  14  19    0.29    0.33
  -1  14  20    0.00    0.32
  -1  14  21    4.72    0.72
  -1  14  22    0.61    0.34
  -1  14  23    1.30    0.52
  -1  15   1   10.78    0.30
  -1  15   2    1.05    0.20
  -1  15   3    0.09    0.20
  -1  15   4   12.05    0.37
  -1  15   5    0.29    0.21
  -1  15   6   16.22    0.45
  -1  15   7    1.14    0.22
  -1  15   8    1.64    0.36
  -1  15   9    0.51    0.28
  -1  15  10    0.00    0.39
  -1  15  11    3.05    0.30
  -1  15  12    1.11    0.30
  -1  15  13    0.02    0.43
  -1  15  14    2.69    0.62
  -1  15  15    0.35    0.32
  -1  15  16    0.76    0.39
  -1  15  17    0.54    0.33
  -1  15  18    0.01    0.48
  -1  15  19    0.01    0.33
  -1  15  20    0.00    0.35
  -1  15  21    1.45    0.36
  -1  15  22    3.37    0.39
  -1  16   1    0.42    0.20
  -1  16   2    2.24    0.22
  -1  16   3    0.28    0.28
  -1  16   4    0.48    0.22
  -1  16   5    3.08    0.27
  -1  16   6    0.14    0.26
  -1  16   7   15.14    0.48
  -1  16   8    0.07    0.36
  -1  16   9    2.39    0.30
  -1  16  10    2.24    0.33
  -1  16  11    2.05    0.32
  -1  16  12    4.04    0.33
  -1  16  13    0.03    0.30
  -1  16  14    0.29    0.32
  -1  16  15    6.63    0.40
  -1  16  16    0.98    0.33
  -1  16  17    5.54    0.40
  -1  16  18    0.02    0.33
  -1  16  19   10.07    0.52
  -1  16  20    0.09    0.35
  -1  16  21    0.54    0.35
  -1  17   1    1.33    0.32
  -1  17   2    5.81    0.25
  -1  17   3    0.04    0.22
  -1  17   4    7.10    0.38
  -1  17   5    0.03    0.23
  -1  17   6    0.21    0.26
  -1  17   7    4.53    0.32
  -1  17   8    1.83    0.30
  -1  17   9    0.30    0.30
  -1  17  10    0.59    0.30
  -1  17  11    2.29    0.31
  -1  17  12    4.44    0.35
  -1  17  13    2.81    0.72
  -1  17  14    2.82    0.35
  -1  17  15    3.84    0.39
  -1  17  16    0.13    0.34
  -1  17  17    0.40    0.33
  -1  17  18    0.05    0.34
  -1  17  19    0.30    0.44
  -1  17  20    0.58    0.47
  -1  18   1    1.01    0.32
  -1  18   2    2.30    0.34
  -1  18   3    0.42    0.32
  -1  18   4    4.41    0.36
  -1  18   5    3.14    0.30
  -1  18   6    0.24    0.50
  -1  18   7    2.81    0.31
  -1  18   8    5.52    0.35
  -1  18   9    0.58    0.30
  -1  18  10    7.79    0.46
  -1  18  11    0.39    0.31
  -1  18  12    0.35    0.31
  -1  18  13    1.01    0.33
  -1  18  14    1.58    0.36
  -1  18  15    1.82    0.35
  -1  18  16    0.28    0.35
  -1  18  17    2.65    0.38
  -1  18  18    0.21    0.34
  -1  18  19    2.37    0.38
  -1  19   1    4.33    0.39
  -1  19   2    0.03    0.33
  -1  19   3    0.01    0.42
  -1  19   4    0.48    0.43
  -1  19   5    0.17    0.27
  -1  19   6    1.28    0.29
  -1  19   7    0.02    0.29
  -1  19   8   11.15    0.68
  -1  19   9    2.13    0.32
  -1  19  10    0.00    0.30
  -1  19  11    0.35    0.32
  -1  19  12    0.00    0.43
  -1  19  13    0.05    0.41
  -1  19  14    0.02    0.32
  -1  19  15    2.17    0.37
  -1  19  16    4.48    0.40
  -1  19  17    0.08    0.35
  -1  20   1    0.23    0.42
  -1  20   2    0.98    0.43
  -1  20   3    1.71    0.44
  -1  20   4    0.05    0.42
  -1  20   5    2.11    0.46
  -1  20   6    0.12    0.44
  -1  20   7    0.90    0.45
  -1  20   8    2.02    0.31
  -1  20   9    0.00    0.30
  -1  20  10    4.77    0.38
  -1  20  11    0.00    0.34
  -1  20  12    5.39    0.38
  -1  20  13    1.02    0.35
  -1  20  14    0.07    0.34
  -1  20  15    2.99    0.37
  -1  20  16    0.12    0.35
  -1  21   1    1.91    0.46
  -1  21   2    0.29    0.44
  -1  21   3    1.61    0.46
  -1  21   4    4.61    0.54
  -1  21   5    0.00    0.43
  -1  21   6    4.39    0.51
  -1  21   7    3.32    0.51
  -1  21   8    0.81    0.46
  -1  21   9    1.33    0.48
  -1  21  10    0.00    0.31
  -1  21  11    0.40    0.55
  -1  21  12    0.81    0.34
  -1  21  13    1.26    0.40
  -1  21  14    0.01    0.33
  -1  22   1    1.89    0.47
  -1  22   2    1.87    0.48
  -1  22   3    0.30    0.44
  -1  22   4    0.69    0.46
  -1  22   5    0.41    0.46
  -1  22   6    0.20    0.47
  -1  22   7    2.80    0.50
  -1  22   8    0.47    0.46
  -1  22   9    0.98    0.49
  -1  22  10    0.06    0.47
  -1  22  11    0.00    0.48
  -1  23   1    0.27    0.45
  -1  23   2    0.11    0.44
  -1  23   3    0.39    0.45
  -1  23   4    0.00    0.44
  -1  23   5    0.00    0.45
  -1  23   6    3.46    0.52
  -1  23   7    1.08    0.47
   0 -23   1    0.02    0.43
   0 -23   2    2.37    0.48
   0 -23   3    1.33    0.46
   0 -22   1    2.12    0.47
   0 -22   2    0.00    0.43
   0 -22   3    0.00    0.42
   0 -22   4    0.50    0.44
   0 -22   5    0.42    0.35
   0 -22   6    0.24    0.36
   0 -22   7    0.26    0.35
   0 -21   1    0.00    0.42
   0 -21   2    0.00    0.41
   0 -21   3    7.69    0.44
   0 -21   4    0.01    0.32
   0 -21   5    0.01    0.33
   0 -21   6    2.15    0.37
   0 -21   7    1.39    0.35
   0 -21   8    8.66    0.49
   0 -21   9    2.42    0.83
   0 -21  10    6.45    0.41
   0 -20   1    0.32    0.34
   0 -20   2    4.46    0.39
   0 -20   3    0.10    0.33
   0 -20   4    1.32    0.34
   0 -20   5    0.96    0.33
   0 -20   6    0.68    0.34
   0 -20   7    0.01    0.33
   0 -20   8    1.20    0.35
   0 -20   9    1.23    0.34
   0 -20  10    0.11    0.42
   0 -20  11    1.72    0.35
   0 -20  12    0.56    0.33
   0 -19   1    0.00    0.42
   0 -19   2    0.08    0.32
   0 -19   3    0.01    0.31
   0 -19   4    3.36    0.36
   0 -19   5    0.71    0.32
   0 -19   6    5.63    0.38
   0 -19   7    0.17    0.34
   0 -19   8    0.37    0.32
   0 -19   9    0.11    0.32
   0 -19  10    3.89    0.36
   0 -19  11    1.53    0.34
   0 -19  12    0.00    0.31
   0 -19  13    1.90    0.34
   0 -19  14    2.16    0.48
   0 -18   1    3.85    0.37
   0 -18   2    8.70    0.44
   0 -18   3    3.20    0.48
   0 -18   4    0.09    0.30
   0 -18   5    7.40    0.44
   0 -18   6    1.39    0.32
   0 -18   7    2.73    0.33
   0 -18   8    0.02    0.31
   0 -18   9    4.28    0.60
   0 -18  10    0.78    0.31
   0 -18  11    5.08    0.37
   0 -18  12    2.88    0.82
   0 -18  13    0.00    0.31
   0 -18  14    1.20    0.54
   0 -18  15    0.00    0.32
   0 -18  16    0.32    0.59
   0 -17   1    0.33    0.29
   0 -17   2    0.11    0.29
   0 -17   3    4.84    0.35
   0 -17   4    0.37    0.29
   0 -17   5    7.29    0.35
   0 -17   6    5.88    0.31
   0 -17   7    0.88    0.26
   0 -17   8    2.22    0.27
   0 -17   9    0.00    0.25
   0 -17  10    4.81    0.31
   0 -17  11    1.12    0.27
   0 -17  12    4.02    0.30
   0 -17  13    1.51    0.28
   0 -17  14    0.96    0.31
   0 -17  15    0.29    0.31
   0 -17  16    0.60    0.40
   0 -17  17    0.00    0.40
   0 -16   1    1.32    0.18
   0 -16   2    8.18    0.37
   0 -16   3    0.85    0.29
   0 -16   4    0.01    0.23
   0 -16   5    0.82    0.42
   0 -16   6    3.49    0.27
   0 -16   7    0.10    0.24
   0 -16   8    0.15    0.24
   0 -16   9    2.28    0.33
   0 -16  10    0.00    0.24
   0 -16  11    0.24    0.25
   0 -16  12    5.90    0.33
   0 -16  13    0.23    0.25
   0 -16  14    0.28    0.34
   0 -16  15    1.98    0.37
   0 -16  16    0.01    0.43
   0 -16  17    0.62    0.40
   0 -16  18    1.40    0.42
   0 -15   1    0.74    0.17
   0 -15   2    0.05    0.16
   0 -15   3    2.04    0.23
   0 -15   4    2.67    0.24
   0 -15   5    6.48    0.29
   0 -15   6    5.31    0.43
   0 -15   7    0.19    0.22
   0 -15   8    1.44    0.23
   0 -15   9    0.47    0.23
   0 -15  10    4.20    0.35
   0 -15  11    0.10    0.23
   0 -15  12    5.11    0.38
   0 -15  13    7.33    0.40
   0 -15  14    1.79    0.31
   0 -15  15    6.60    0.63
   0 -15  16    0.13    0.38
   0 -15  17    0.01    0.30
   0 -15  18    1.62    0.52
   0 -15  19    0.02    0.40
   0 -14   1    9.90    0.28
   0 -14   2    0.03    0.21
   0 -14   3    0.43    0.14
   0 -14   4    0.00    0.14
   0 -14   5    1.38    0.23
   0 -14   6    3.05    0.30
   0 -14   7    0.38    0.21
   0 -14   8    6.50    0.31
   0 -14   9    0.67    0.21
   0 -14  10    1.39    0.25
   0 -14  11    6.95    0.35
   0 -14  12    1.10    0.27
   0 -14  13    2.55    0.30
   0 -14  14    1.41    0.29
   0 -14  15    0.00    0.28
   0 -14  16    1.96    0.30
   0 -14  17    2.63    0.31
   0 -14  18    1.62    0.31
   0 -14  19    2.52    0.34
   0 -14  20    0.19    0.32
   0 -13   1    8.09    0.25
   0 -13   2    0.19    0.15
   0 -13   3    9.82    0.24
   0 -13   4    3.83    0.19
   0 -13   5    1.46    0.14
   0 -13   6    0.16    0.25
   0 -13   7    2.71    0.21
   0 -13   8    6.44    0.29
   0 -13   9    0.01    0.23
   0 -13  10   10.43    0.52
   0 -13  11    1.93    0.57
   0 -13  12    0.41    0.26
   0 -13  13   14.20    0.55
   0 -13  14    2.81    0.30
   0 -13  15    7.96    0.39
   0 -13  16    1.81    0.30
   0 -13  17    0.01    0.29
   0 -13  18    0.03    0.53
   0 -13  19    0.27    0.31
   0 -13  20    3.25    0.35
   0 -13  21    0.62    0.32
   0 -12   1    3.47    0.32
   0 -12   2   21.56    0.44
   0 -12   3    2.27    0.16
   0 -12   4   11.03    0.24
   0 -12   5    0.00    0.16
   0 -12   6    0.19    0.10
   0 -12   7    0.15    0.18
   0 -12   8    3.17    0.50
   0 -12   9    5.18    0.27
   0 -12  10    0.69    0.22
   0 -12  11    4.80    0.31
   0 -12  12    0.00    0.24
   0 -12  13    5.11    0.46
   0 -12  14   12.18    0.43
   0 -12  15    0.60    0.51
   0 -12  16    7.09    0.56
   0 -12  17    1.48    0.29
   0 -12  18    1.61    0.31
   0 -12  19    0.21    0.29
   0 -12  20    0.29    0.32
   0 -12  21    0.87    0.32
   0 -12  22    0.09    0.33
   0 -11   1    1.20    0.19
   0 -11   2    0.01    0.14
   0 -11   3    4.80    0.21
   0 -11   4   23.60    0.34
   0 -11   5    0.51    0.13
   0 -11   6   13.26    0.43
   0 -11   7    3.08    0.27
   0 -11   8    0.22    0.20
   0 -11   9    0.65    0.51
   0 -11  10    0.15    0.27
   0 -11  11   27.11    0.54
   0 -11  12    1.21    0.28
   0 -11  13    3.53    0.26
   0 -11  14    6.54    0.36
   0 -11  15    2.22    0.36
   0 -11  16    0.06    0.26
   0 -11  17    2.27    0.30
   0 -11  18    2.36    0.30
   0 -11  19    0.72    0.53
   0 -11  20    0.50    0.32
   0 -11  21    0.86    0.32
   0 -11  22    0.15    0.33
   0 -11  23    0.91    0.44
   0 -10   1    0.49    0.16
   0 -10   2    7.42    0.24
   0 -10   3   23.21    0.50
   0 -10   4   16.51    0.23
   0 -10   5   48.18    0.67
   0 -10   6    0.08    0.21
   0 -10   7   22.22    0.58
   0 -10   8    2.61    0.65
   0 -10   9   33.07    0.65
   0 -10  10   15.55    0.84
   0 -10  11    2.83    0.50
   0 -10  12   15.04    0.71
   0 -10  13    4.07    0.25
   0 -10  14    7.29    0.36
   0 -10  15    2.26    0.65
   0 -10  16    0.89    0.26
   0 -10  17    4.57    0.31
   0 -10  18    1.09    0.28
   0 -10  19    5.05    0.54
   0 -10  20    3.95    0.34
   0 -10  21    2.57    0.33
   0 -10  22    0.68    0.32
   0 -10  23    0.18    0.33
   0 -10  24    0.11    0.41
   0  -9   1    4.67    0.22
   0  -9   2    0.50    0.15
   0  -9   3    0.04    0.16
   0  -9   4    1.18    0.23
   0  -9   5    3.63    0.14
   0  -9   6    4.38    0.46
   0  -9   7    1.03    0.24
   0  -9   8    1.03    0.20
   0  -9   9    1.21    0.41
   0  -9  10    6.17    0.31
   0  -9  11    0.26    0.19
   0  -9  12    5.19    0.29
   0  -9  13    0.06    0.20
   0  -9  14    0.98    0.21
   0  -9  15   12.75    0.68
   0  -9  16    3.85    0.32
   0  -9  17    5.89    0.48
   0  -9  18    0.63    0.27
   0  -9  19    0.04    0.44
   0  -9  20    0.45    0.38
   0  -9  21    0.94    0.31
   0  -9  22    0.36    0.31
   0  -9  23    0.87    0.33
   0  -9  24    0.85    0.42
   0  -8   1    2.04    0.12
   0  -8   2    0.10    0.19
   0  -8   3    1.85    0.20
   0  -8   4   43.82    0.70
   0  -8   5   10.32    0.35
   0  -8   6   13.76    0.50
   0  -8   7   47.58    0.93
   0  -8   8    0.10    0.18
   0  -8   9   49.85    1.01
   0  -8  10    8.92    0.47
   0  -8  11    5.98    0.37
   0  -8  12    8.59    0.73
   0  -8  13    1.16    0.67
   0  -8  14    2.16    0.21
   0  -8  15    1.92    0.30
   0  -8  16    0.58    0.31
   0  -8  17    8.35    0.73
   0  -8  18    0.02    0.26
   0  -8  19    5.60    0.37
   0  -8  20    6.19    0.39
   0  -8  21    4.38    0.36
   0  -8  22    0.05    0.31
   0  -8  23    1.94    0.41
   0  -8  24    0.01    0.39
   0  -8  25    1.26    0.42
   0  -7   1    0.39    0.12
   0  -7   2    0.92    0.10
   0  -7   3    5.56    0.11
   0  -7   4    0.44    0.10
   0  -7   5    9.89    0.13
   0  -7   6    0.09    0.17
   0  -7   7    0.38    0.25
   0  -7   8    4.05    0.28
   0  -7   9    5.66    0.30
   0  -7  10    1.78    0.34
   0  -7  11    2.53    0.36
   0  -7  12    3.83    0.27
   0  -7  13    7.07    0.86
   0  -7  14    3.65    0.49
   0  -7  15    7.14    0.32
   0  -7  16    0.64    0.22
   0  -7  17    1.83    0.76
   0  -7  18    5.74    0.30
   0  -7  19   11.85    0.44
   0  -7  20    9.29    0.44
   0  -7  21    3.17    0.31
   0  -7  22    0.05    0.31
   0  -7  23    0.37    0.39
   0  -7  24    1.33    0.42
   0  -7  25    3.23    0.46
   0  -6   1    4.05    0.18
   0  -6   2    4.08    0.12
   0  -6   3    0.28    0.16
   0  -6   4   62.24    1.37
   0  -6   5    0.00    0.17
   0  -6   6    2.27    0.19
   0  -6   7    0.01    0.16
   0  -6   8    1.44    0.18
   0  -6   9   11.93    0.42
   0  -6  10   11.22    0.43
   0  -6  11    0.83    0.18
   0  -6  12   13.78    0.40
   0  -6  13    6.31    0.46
   0  -6  14    1.01    0.20
   0  -6  15    2.31    0.22
   0  -6  16    0.02    0.22
   0  -6  17    0.55    0.23
   0  -6  18   16.44    0.68
   0  -6  19    5.03    0.31
   0  -6  20    0.37    0.29
   0  -6  21    3.46    0.35
   0  -6  22    4.24    0.35
   0  -6  23    0.62    0.31
   0  -6  24    0.52    0.41
   0  -6  25    0.92    0.43
   0  -6  26    1.50    0.44
   0  -5   1   28.10    0.93
   0  -5   2   72.74    0.95
   0  -5   3    0.04    0.12
   0  -5   4    1.39    0.12
   0  -5   5   16.26    0.28
   0  -5   6    6.40    0.25
   0  -5   7    7.61    0.69
   0  -5   8   26.02    1.35
   0  -5   9   31.51    0.75
   0  -5  10    5.87    0.29
   0  -5  11    8.90    0.33
   0  -5  12   19.50    0.45
   0  -5  13   24.80    0.60
   0  -5  14   20.67    0.71
   0  -5  15   12.47    0.43
   0  -5  16    2.36    0.24
   0  -5  17    5.24    0.29
   0  -5  18    5.73    0.99
   0  -5  19    2.80    1.00
   0  -5  20    5.11    0.40
   0  -5  21    0.36    0.30
   0  -5  22    3.32    0.43
   0  -5  23    1.64    0.51
   0  -5  24    1.35    0.43
   0  -5  25    4.91    0.47
   0  -5  26    4.70    0.48
   0  -4   1    6.03    0.16
   0  -4   2  277.67    3.13
   0  -4   3   22.07    0.42
   0  -4   4    1.78    0.16
   0  -4   5    6.04    0.18
   0  -4   6    0.10    0.14
   0  -4   7    1.84    0.17
   0  -4   8    1.35    0.17
   0  -4   9    9.86    0.93
   0  -4  10    0.11    0.34
   0  -4  11    0.90    0.20
   0  -4  12    0.97    0.19
   0  -4  13    0.00    0.19
   0  -4  14    0.80    0.20
   0  -4  15    1.05    0.29
   0  -4  16    0.04    0.22
   0  -4  17    0.00    0.23
   0  -4  18    6.29    0.38
   0  -4  19    5.43    0.70
   0  -4  20    0.68    0.28
   0  -4  21    9.15    0.46
   0  -4  22    2.29    0.33
   0  -4  23    0.35    0.31
   0  -4  24    4.01    0.49
   0  -4  25    2.50    0.45
   0  -4  26    1.16    0.44
   0  -3   1  250.69    2.51
   0  -3   2    2.12    0.06
   0  -3   3    2.62    0.08
   0  -3   4   10.57    0.34
   0  -3   5    7.63    0.22
   0  -3   6   10.30    0.30
   0  -3   7    0.08    0.11
   0  -3   8   15.61    0.42
   0  -3   9    5.80    0.24
   0  -3  10    0.15    0.22
   0  -3  11    8.52    0.25
   0  -3  12    1.88    0.25
   0  -3  13   17.10    0.46
   0  -3  14    6.46    0.38
   0  -3  15    1.58    0.21
   0  -3  16    9.67    0.38
   0  -3  17    0.11    0.22
   0  -3  18   28.82    0.94
   0  -3  19    2.78    0.56
   0  -3  20    8.08    0.46
   0  -3  21    0.03    0.39
   0  -3  22    0.35    0.31
   0  -3  23    3.22    0.46
   0  -3  24    0.62    0.42
   0  -3  25    0.41    0.43
   0  -3  26    1.91    0.46
   0  -3  27    0.05    0.44
   0  -2   1    3.06    0.03
   0  -2   2   26.86    0.07
   0  -2   3    1.71    0.06
   0  -2   4   10.00    0.23
   0  -2   5   37.53    0.45
   0  -2   6   22.64    0.38
   0  -2   7    2.20    0.16
   0  -2   8    0.22    0.13
   0  -2   9   35.04    0.59
   0  -2  10    0.14    0.18
   0  -2  11   15.15    0.34
   0  -2  12   18.97    0.49
   0  -2  13    5.12    0.30
   0  -2  14    0.15    0.36
   0  -2  15    2.57    0.44
   0  -2  16   16.78    0.55
   0  -2  17    0.76    0.24
   0  -2  18    0.32    0.25
   0  -2  19   14.77    0.51
   0  -2  20    0.37    0.28
   0  -2  21   24.43    0.73
   0  -2  22    1.86    0.32
   0  -2  23    1.06    0.34
   0  -2  24    1.90    0.45
   0  -2  25    1.18    0.44
   0  -2  26    1.89    0.44
   0  -2  27    2.83    0.50
   0  -1   2   15.36    0.62
   0  -1   3   72.83    0.79
   0  -1   4   18.14    0.20
   0  -1   5   47.82    0.93
   0  -1   6   31.14    0.69
   0  -1   7    6.69    0.17
   0  -1   8   11.69    0.29
   0  -1   9    2.12    0.10
   0  -1  10   63.36    1.45
   0  -1  11    2.45    0.15
   0  -1  12   11.43    0.28
   0  -1  13    5.56    0.25
   0  -1  14    1.61    0.12
   0  -1  15   10.03    0.43
   0  -1  16   13.46    0.45
   0  -1  17    3.03    0.26
   0  -1  18    1.73    0.26
   0  -1  19    3.27    0.36
   0  -1  20    6.27    0.44
   0  -1  21   10.81    0.61
   0  -1  22    1.94    0.33
   0  -1  23    0.21    0.40
   0  -1  24    0.01    0.41
   0  -1  25    1.27    0.43
   0  -1  26    0.04    0.44
   0  -1  27    1.03    0.47
   0   0   2  276.18    5.30
   0   0   3   55.50    0.70
   0   0   4   11.70    0.07
   0   0   5   26.10    0.72
   0   0   6   36.39    0.50
   0   0   7  119.30    1.84
   0   0   8   33.41    0.65
   0   0   9    6.74    0.17
   0   0  10    0.04    0.14
   0   0  11   12.57    0.71
   0   0  12    2.65    0.24
   0   0  13    0.25    0.16
   0   0  14   14.80    0.30
   0   0  15    9.13    0.31
   0   0  16    6.58    0.51
   0   0  17   45.88    1.05
   0   0  18    2.37    0.29
   0   0  19    6.41    0.32
   0   0  20    5.02    0.33
   0   0  21    4.39    0.34
   0   0  22    6.24    0.37
   0   0  23    7.31    0.60
   0   0  24    0.12    0.42
   0   0  25    0.29    0.44
   0   0  26    1.04    0.45
   0   0  27    0.26    0.47
   0   1   2   12.10    0.19
   0   1   3  176.45    1.14
   0   1   4   48.30    0.31
   0   1   5   64.80    0.96
   0   1   6   81.02    1.16
   0   1   7  119.40    1.81
   0   1   8   16.06    0.27
   0   1   9   12.57    0.53
   0   1  11    0.13    0.18
   0   1  12    0.12    0.19
   0   1  13    4.28    0.24
   0   1  14    2.57    0.17
   0   1  15   17.90    0.40
   0   1  16    3.55    0.16
   0   1  17    1.89    0.23
   0   1  18   48.87    1.08
   0   1  19    9.78    0.45
   0   1  20   21.42    0.59
   0   1  21    7.55    0.43
   0   1  22    0.02    0.40
   0   1  23    1.30    0.42
   0   1  24    1.25    0.44
   0   1  25    1.69    0.47
   0   1  26    0.00    0.44
   0   1  27    0.50    0.48
   0   2   0  162.19    3.01
   0   2   1    0.97    0.07
   0   2   2   22.53    0.06
   0   2   3   16.95    0.96
   0   2   4    5.21    0.15
   0   2   5  108.54    1.79
   0   2   6   42.15    0.54
   0   2   7   12.51    0.31
   0   2   8   81.70    1.20
   0   2   9    0.55    0.17
   0   2  10   35.16    0.67
   0   2  11    5.18    0.32
   0   2  12   78.31    1.09
   0   2  13   28.39    0.59
   0   2  14    0.04    0.17
   0   2  15   14.73    0.28
   0   2  16    6.68    0.50
   0   2  17   15.23    0.38
   0   2  18    0.00    0.17
   0   2  19    0.73    0.28
   0   2  20   10.51    0.50
   0   2  21    4.70    0.36
   0   2  22    7.53    0.49
   0   2  23    8.07    0.54
   0   2  24    0.54    0.43
   0   2  25    1.00    0.44
   0   2  26    3.05    0.50
   0   2  27    2.51    0.51
   0   3   0    4.26    0.08
   0   3   1   10.68    0.08
   0   3   2    2.28    0.10
   0   3   3   40.92    0.56
   0   3   4   80.94    0.99
   0   3   5    3.10    0.19
   0   3   6    1.59    0.19
   0   3   7   52.64    0.94
   0   3   8   30.34    0.45
   0   3   9   22.67    0.60
   0   3  10    8.16    0.35
   0   3  11    8.93    0.57
   0   3  12    1.66    0.18
   0   3  13   20.53    0.42
   0   3  14    5.55    0.31
   0   3  15    8.27    0.23
   0   3  16   33.77    0.62
   0   3  17    0.32    0.18
   0   3  18   22.61    0.50
   0   3  19    0.09    0.29
   0   3  20   12.13    0.57
   0   3  21    7.31    0.60
   0   3  22    0.92    0.42
   0   3  23    6.67    0.50
   0   3  24    0.02    0.43
   0   3  25    0.86    0.45
   0   3  26    0.30    0.47
   0   3  27    0.00    0.45
   0   4   0   86.64    0.44
   0   4   1   14.58    0.11
   0   4   2    1.09    0.15
   0   4   3   15.16    0.24
   0   4   4   10.00    0.37
   0   4   5   26.54    0.28
   0   4   6    5.52    0.14
   0   4   7    0.53    0.17
   0   4   8    8.71    0.65
   0   4   9    2.03    0.42
   0   4  10    3.08    0.20
   0   4  11    0.80    0.29
   0   4  12    1.32    0.20
   0   4  13    0.13    0.20
   0   4  14   17.13    0.45
   0   4  15    6.03    0.21
   0   4  16    2.14    0.19
   0   4  17    0.00    0.19
   0   4  18    0.34    0.20
   0   4  19   16.27    0.41
   0   4  20    1.09    0.41
   0   4  21    4.91    0.47
   0   4  22    0.72    0.42
   0   4  23    2.48    0.46
   0   4  24    0.01    0.44
   0   4  25    0.00    0.44
   0   4  26    1.27    0.48
   0   4  27    0.00    0.48
   0   5   0    1.84    0.13
   0   5   1    3.80    0.26
   0   5   2    1.71    0.13
   0   5   3    6.09    0.29
   0   5   4   91.65    1.83
   0   5   5   11.60    0.28
   0   5   6    1.00    0.13
   0   5   7    0.00    0.12
   0   5   8    1.61    0.15
   0   5   9   11.87    0.31
   0   5  10    0.20    0.25
   0   5  11    7.08    0.32
   0   5  12    6.40    0.36
   0   5  13    5.03    0.29
   0   5  14    7.80    0.35
   0   5  15    0.08    0.18
   0   5  16   21.77    0.41
   0   5  17    0.00    0.22
   0   5  18   10.26    0.34
   0   5  19    6.67    0.35
   0   5  20    3.29    0.43
   0   5  21   21.14    0.90
   0   5  22    3.07    0.46
   0   5  23    4.08    0.49
   0   5  24    0.11    0.46
   0   5  25    0.01    0.45
   0   5  26    1.23    0.48
   0   5  27    0.69    0.49
   0   6   0    0.29    0.13
   0   6   1    0.75    0.20
   0   6   2   40.61    0.86
   0   6   3   59.39    0.66
   0   6   4    2.55    0.40
   0   6   5   37.16    0.65
   0   6   6   25.17    0.44
   0   6   7    4.19    0.23
   0   6   8    4.16    0.23
   0   6   9    8.85    0.30
   0   6  10   15.42    0.39
   0   6  11    4.20    0.20
   0   6  12   12.67    0.58
   0   6  13    0.36    0.21
   0   6  14   12.68    0.39
   0   6  15    6.03    0.37
   0   6  16    8.46    0.38
   0   6  17   29.03    0.53
   0   6  18    3.62    0.28
   0   6  19   10.35    0.40
   0   6  20    5.60    0.34
   0   6  21    4.81    0.49
   0   6  22    3.59    0.48
   0   6  23    0.50    0.44
   0   6  24    0.62    0.45
   0   6  25    0.00    0.44
   0   6  26    1.40    0.49
   0   6  27    1.13    0.50
   0   7   0   48.47    1.00
   0   7   1    0.85    0.18
   0   7   2   29.35    0.38
   0   7   3    2.37    0.21
   0   7   4   16.97    0.78
   0   7   5   19.19    0.40
   0   7   6    2.24    0.17
   0   7   7    7.80    0.29
   0   7   8    0.20    0.23
   0   7   9   30.80    0.52
   0   7  10    8.68    0.38
   0   7  11    2.79    0.36
   0   7  12    5.12    0.20
   0   7  13    0.03    0.20
   0   7  14   27.71    0.61
   0   7  15    0.77    0.21
   0   7  16   13.62    0.35
   0   7  17    0.16    0.24
   0   7  18    0.01    0.24
   0   7  19    0.25    0.25
   0   7  20    0.85    0.27
   0   7  21    0.00    0.42
   0   7  22    0.00    0.43
   0   7  23    0.27    0.45
   0   7  24    0.50    0.45
   0   7  25    0.00    0.46
   0   7  26    1.56    0.51
   0   7  27    0.07    0.48
   0   8   0   14.10    0.24
   0   8   1    0.78    0.15
   0   8   2    2.57    0.24
   0   8   3    9.59    0.18
   0   8   4    7.48    0.49
   0   8   5   21.62    0.39
   0   8   6    2.02    0.25
   0   8   7   18.46    0.46
   0   8   8   11.88    0.32
   0   8   9    1.89    0.21
   0   8  10    8.85    0.30
   0   8  11    4.41    0.45
   0   8  12   14.37    0.32
   0   8  13    4.49    0.22
   0   8  14    0.01    0.20
   0   8  15    3.01    0.27
   0   8  16    4.50    0.26
   0   8  17    4.48    0.30
   0   8  18    5.69    0.35
   0   8  19    0.55    0.27
   0   8  20    0.00    0.27
   0   8  21    2.04    0.46
   0   8  22    1.78    0.46
   0   8  23    0.46    0.46
   0   8  24    2.68    0.52
   0   8  25    0.84    0.48
   0   8  26    0.01    0.48
   0   8  27    0.99    0.51
   0   9   0    5.85    0.20
   0   9   1    3.18    0.22
   0   9   2    3.99    0.17
   0   9   3    3.56    0.31
   0   9   4   12.45    0.36
   0   9   5    0.10    0.22
   0   9   6    0.42    0.20
   0   9   7    2.68    0.23
   0   9   8    2.47    0.32
   0   9   9    0.98    0.22
   0   9  10    0.98    0.20
   0   9  11    0.38    0.27
   0   9  12    0.32    0.20
   0   9  13    0.03    0.26
   0   9  14    3.13    0.31
   0   9  15    0.00    0.40
   0   9  16    0.01    0.25
   0   9  17    1.57    0.32
   0   9  18    0.20    0.27
   0   9  19    0.18    0.27
   0   9  20    0.17    0.55
   0   9  21    0.01    0.28
   0   9  22    0.57    0.44
   0   9  23    0.02    0.45
   0   9  24    0.07    0.46
   0   9  25    5.04    0.58
   0   9  26    0.22    0.49
   0  10   0   12.65    0.22
   0  10   1    2.39    0.26
   0  10   2    7.32    0.24
   0  10   3    7.80    0.36
   0  10   4    9.80    0.36
   0  10   5    0.67    0.20
   0  10   6    0.30    0.23
   0  10   7    6.89    0.34
   0  10   8   86.45    1.27
   0  10   9    2.07    0.20
   0  10  10   41.60    0.85
   0  10  11    0.25    0.20
   0  10  12   12.52    0.34
   0  10  13    8.30    0.36
   0  10  14    1.24    0.31
   0  10  15    5.82    0.41
   0  10  16    0.00    0.26
   0  10  17    0.47    0.28
   0  10  18    0.54    0.29
   0  10  19    0.95    0.30
   0  10  20    0.00    0.28
   0  10  21    0.54    0.30
   0  10  22    0.01    0.45
   0  10  23    1.08    0.48
   0  10  24    0.13    0.47
   0  10  25    2.70    0.52
   0  10  26    0.46    0.49
   0  11   0    5.11    0.31
   0  11   1    6.02    0.27
   0  11   2   11.56    0.31
   0  11   3   25.67    0.56
   0  11   4    5.14    0.28
   0  11   5   14.98    0.37
   0  11   6   38.53    0.60
   0  11   7    0.08    0.20
   0  11   8   17.36    0.47
   0  11   9    6.55    0.25
   0  11  10    1.85    0.23
   0  11  11    9.34    0.36
   0  11  12    0.40    0.25
   0  11  13   19.62    1.00
   0  11  14    2.27    0.28
   0  11  15    0.01    0.27
   0  11  16    0.04    0.28
   0  11  17    1.74    0.31
   0  11  18    0.96    0.32
   0  11  19    1.54    0.31
   0  11  20    0.11    0.41
   0  11  21    0.88    0.31
   0  11  22    0.00    0.45
   0  11  23    6.53    0.58
   0  11  24    0.01    0.48
   0  11  25    4.09    0.56
   0  12   0    0.43    0.16
   0  12   1    3.58    0.19
   0  12   2    7.56    0.24
   0  12   3   10.09    0.32
   0  12   4   20.61    0.45
   0  12   5    6.22    0.23
   0  12   6    0.97    0.19
   0  12   7   19.21    0.39
   0  12   8   21.91    0.42
   0  12   9   25.21    0.56
   0  12  10    1.91    0.23
   0  12  11    0.41    0.26
   0  12  12    1.49    0.30
   0  12  13    0.74    0.32
   0  12  14    0.52    0.26
   0  12  15    1.21    0.29
   0  12  16    0.25    0.29
   0  12  17    0.81    0.29
   0  12  18    2.44    0.33
   0  12  19    1.43    0.32
   0  12  20    7.85    1.17
   0  12  21    0.01    0.31
   0  12  22    2.54    0.34
   0  12  23    0.46    0.49
   0  12  24    2.76    0.52
   0  12  25    0.96    0.49
   0  13   0    4.34    0.19
   0  13   1   11.55    0.28
   0  13   2   59.25    0.91
   0  13   3    1.27    0.17
   0  13   4   32.59    0.57
   0  13   5    9.94    0.35
   0  13   6   10.86    0.31
   0  13   7    8.41    0.35
   0  13   8    2.77    0.29
   0  13   9   10.51    0.34
   0  13  10    0.35    0.24
   0  13  11    1.48    0.29
   0  13  12    1.55    0.27
   0  13  13    1.53    0.27
   0  13  14    6.44    0.35
   0  13  15    3.35    0.35
   0  13  16   12.91    0.52
   0  13  17    2.89    0.34
   0  13  18    0.96    0.69
   0  13  19    0.08    0.31
   0  13  20    1.15    0.33
   0  13  21    3.91    0.61
   0  13  22    0.22    0.44
   0  13  23    4.72    0.56
   0  13  24    0.20    0.49
   0  14   0    3.79    0.21
   0  14   1    0.55    0.16
   0  14   2    4.96    0.33
   0  14   3    5.94    0.23
   0  14   4    6.82    0.71
   0  14   5    0.59    0.26
   0  14   6   18.09    0.47
   0  14   7    1.25    0.21
   0  14   8    0.17    0.21
   0  14   9    0.07    0.24
   0  14  10    5.41    0.29
   0  14  11    2.78    0.31
   0  14  12    4.08    0.34
   0  14  13    0.54    0.29
   0  14  14    1.08    0.32
   0  14  15    6.03    0.36
   0  14  16    8.14    0.46
   0  14  17    6.75    0.39
   0  14  18    3.32    0.35
   0  14  19    8.86    0.46
   0  14  20    2.55    0.35
   0  14  21    0.47    0.33
   0  14  22    2.60    0.36
   0  14  23    0.16    0.49
   0  14  24    0.69    0.50
   0  15   0    0.44    0.17
   0  15   1    0.45    0.17
   0  15   2   11.30    0.31
   0  15   3    0.17    0.18
   0  15   4   13.22    0.38
   0  15   5    5.52    0.30
   0  15   6    0.33    0.21
   0  15   7    8.36    0.36
   0  15   8    0.61    0.26
   0  15   9    2.78    0.45
   0  15  10    1.26    0.28
   0  15  11    1.02    0.29
   0  15  12    4.04    0.35
   0  15  13    1.12    0.32
   0  15  14    0.98    0.31
   0  15  15    6.35    0.36
   0  15  16    0.76    0.40
   0  15  17    7.19    0.40
   0  15  18    0.00    0.31
   0  15  19    3.76    0.48
   0  15  20    0.18    0.33
   0  15  21    3.94    0.37
   0  15  22    0.02    0.33
   0  15  23    0.00    0.47
   0  16   0   25.21    0.57
   0  16   1    3.59    0.23
   0  16   2    0.29    0.20
   0  16   3    3.21    0.23
   0  16   4    0.00    0.21
   0  16   5    4.84    0.26
   0  16   6    0.58    0.23
   0  16   7    3.66    0.30
   0  16   8    4.96    0.37
   0  16   9    0.00    0.28
   0  16  10   14.52    0.71
   0  16  11    1.19    0.30
   0  16  12    0.67    0.31
   0  16  13    0.60    0.34
   0  16  14    0.45    0.32
   0  16  15    0.53    0.32
   0  16  16    9.63    0.48
   0  16  17    7.51    0.53
   0  16  18    0.65    0.33
   0  16  19    1.28    0.34
   0  16  20    6.85    0.41
   0  16  21    0.93    0.34
   0  16  22    2.95    0.48
   0  17   0    1.10    0.24
   0  17   1    0.12    0.21
   0  17   2    1.46    0.22
   0  17   3    1.54    0.28
   0  17   4    0.15    0.22
   0  17   5    3.78    0.29
   0  17   6    0.01    0.49
   0  17   7    2.44    0.43
   0  17   8    0.51    0.29
   0  17   9    0.06    0.28
   0  17  10    0.28    0.30
   0  17  11    1.08    0.30
   0  17  12    6.89    0.42
   0  17  13    0.01    0.31
   0  17  14    7.84    0.46
   0  17  15    1.11    0.33
   0  17  16    5.20    0.61
   0  17  17    2.90    0.36
   0  17  18    7.07    0.43
   0  17  19    1.11    0.36
   0  17  20    0.82    0.34
   0  17  21    0.02    0.34
   0  18   0    0.19    0.71
   0  18   1   21.86    0.67
   0  18   2    0.19    0.23
   0  18   3    8.67    0.51
   0  18   4    0.10    0.26
   0  18   5   10.33    0.44
   0  18   6    6.63    0.33
   0  18   7    4.57    0.34
   0  18   8    9.52    0.52
   0  18   9    0.03    0.30
   0  18  10    2.17    0.31
   0  18  11    0.02    0.30
   0  18  12    1.67    0.32
   0  18  13    1.38    0.33
   0  18  14    0.01    0.31
   0  18  15    3.87    0.37
   0  18  16    0.16    0.50
   0  18  17    2.09    0.36
   0  18  18    2.33    0.41
   0  18  19    0.17    0.35
   0  18  20    6.56    1.08
   0  19   0    2.33    0.35
   0  19   1    2.62    0.48
   0  19   2    0.09    0.41
   0  19   3    0.01    0.41
   0  19   4    6.29    0.39
   0  19   5    0.99    0.31
   0  19   6    0.67    0.41
   0  19   7    1.71    0.30
   0  19   8    1.68    0.31
   0  19   9    2.43    0.34
   0  19  10    3.35    0.35
   0  19  11    2.40    0.58
   0  19  12    1.49    0.33
   0  19  13    0.53    0.33
   0  19  14    3.02    0.36
   0  19  15    2.12    0.35
   0  19  16    1.75    0.36
   0  19  17    0.32    0.34
   0  19  18    3.41    0.46
   0  20   0    4.08    0.47
   0  20   1    6.33    0.50
   0  20   2    1.46    0.43
   0  20   3    0.01    0.41
   0  20   4    0.86    0.42
   0  20   5    0.07    0.43
   0  20   6    0.00    0.28
   0  20   7    0.00    0.29
   0  20   8    6.57    0.88
   0  20   9    3.66    0.43
   0  20  10    0.08    0.31
   0  20  11    5.47    0.39
   0  20  12    2.02    0.36
   0  20  13    0.75    0.34
   0  20  14    1.41    0.34
   0  20  15    1.54    0.43
   0  20  16    1.63    0.36
   0  20  17    0.51    0.34
   0  21   0    0.00    0.43
   0  21   1    0.01    0.43
   0  21   2    2.14    0.46
   0  21   3    0.02    0.42
   0  21   4    2.61    0.49
   0  21   5    0.26    0.44
   0  21   6    0.00    0.43
   0  21   7    0.19    0.44
   0  21   8    1.21    0.36
   0  21   9    3.81    0.36
   0  21  10    0.19    0.31
   0  21  11    3.11    0.48
   0  21  12    0.17    0.96
   0  21  13    1.27    0.37
   0  21  14    1.34    0.35
   0  21  15    1.52    0.36
   0  22   0    0.29    0.43
   0  22   1    0.77    0.44
   0  22   2    0.01    0.44
   0  22   3    0.65    0.45
   0  22   4    0.28    0.44
   0  22   5    0.20    0.44
   0  22   6    0.44    0.46
   0  22   7    3.01    0.51
   0  22   8    0.14    0.46
   0  22   9    0.91    0.47
   0  22  10    1.79    0.34
   0  22  11    0.46    0.33
   0  22  12    0.32    0.33
   0  23   0    6.99    0.60
   0  23   1    0.00    0.44
   0  23   2    0.82    0.46
   0  23   3    1.08    0.46
   0  23   4    0.16    0.46
   0  23   5    0.00    0.46
   0  23   6    0.00    0.46
   0  23   7    2.22    0.50
   0  23   8    0.55    0.47
   0  23   9    0.00    0.46
   1 -23   0    0.00    0.44
   1 -23   1    2.90    0.48
   1 -23   2    0.54    0.45
   1 -22   0    0.01    0.42
   1 -22   1    3.05    0.47
   1 -22   2    0.63    0.43
   1 -22   3    0.02    0.34
   1 -22   4    0.23    0.34
   1 -22   5    0.01    0.34
   1 -22   6    0.01    0.35
   1 -22   7    0.02    0.34
   1 -21   0    1.63    0.46
   1 -21   1    1.05    0.35
   1 -21   2    1.29    0.78
   1 -21   3    1.37    0.46
   1 -21   4    2.99    0.57
   1 -21   5    0.71    0.37
   1 -21   6    0.02    0.33
   1 -21   7    1.98    0.37
   1 -21   8    6.21    0.75
   1 -21   9    4.01    0.38
   1 -21  10    0.00    0.33
   1 -20   0    0.40    0.65
   1 -20   1    0.69    0.34
   1 -20   2    7.09    0.42
   1 -20   3    1.73    0.34
   1 -20   4    1.21    0.33
   1 -20   5    0.58    0.33
   1 -20   6    0.39    0.32
   1 -20   7    3.02    0.36
   1 -20   8    0.20    0.32
   1 -20   9    0.00    0.68
   1 -20  10    0.13    0.33
   1 -20  11    0.11    0.31
   1 -20  12    0.00    0.32
   1 -19   0    1.36    0.35
   1 -19   1    0.10    0.33
   1 -19   2    1.79    0.34
   1 -19   3    0.01    0.30
   1 -19   4    1.87    0.32
   1 -19   5    0.23    0.31
   1 -19   6    4.91    0.37
   1 -19   7    0.04    0.30
   1 -19   8    3.50    0.39
   1 -19   9    0.49    0.31
   1 -19  10    0.30    0.31
   1 -19  11    2.35    0.33
   1 -19  12    0.13    0.42
   1 -19  13    0.64    0.32
   1 -19  14    0.69    0.40
   1 -18   0    1.94    0.51
   1 -18   1    1.19    0.45
   1 -18   2    2.61    0.33
   1 -18   3    2.14    0.33
   1 -18   4    2.40    0.32
   1 -18   5    3.48    0.34
   1 -18   6    3.14    0.39
   1 -18   7   16.05    0.73
   1 -18   8    4.60    0.32
   1 -18   9    1.14    0.27
   1 -18  10    2.39    0.28
   1 -18  11    0.00    0.26
   1 -18  12    2.96    0.38
   1 -18  13    1.81    0.28
   1 -18  14    3.09    0.29
   1 -18  15    0.16    0.31
   1 -17   0    0.76    0.31
   1 -17   1    0.01    0.32
   1 -17   2    3.74    0.34
   1 -17   3    6.72    0.36
   1 -17   4    4.74    0.29
   1 -17   5    0.35    0.25
   1 -17   6    0.09    0.24
   1 -17   7    0.47    0.25
   1 -17   8    4.02    0.29
   1 -17   9    0.52    0.28
   1 -17  10    3.38    0.28
   1 -17  11    0.63    0.32
   1 -17  12    1.13    0.26
   1 -17  13    0.57    0.30
   1 -17  14    0.02    0.46
   1 -17  15    5.18    0.48
   1 -17  16    0.00    0.26
   1 -17  17    0.30    0.27
   1 -16   0   12.87    0.33
   1 -16   1    0.15    0.27
   1 -16   2    0.02    0.29
   1 -16   3    1.90    0.25
   1 -16   4    9.53    0.41
   1 -16   5    0.12    0.23
   1 -16   6    0.03    0.26
   1 -16   7    0.01    0.23
   1 -16   8    0.25    0.24
   1 -16   9    0.02    0.24
   1 -16  10    2.31    0.31
   1 -16  11    0.50    0.24
   1 -16  12    3.90    0.28
   1 -16  13    0.01    0.29
   1 -16  14    1.76    0.26
   1 -16  15    0.98    0.25
   1 -16  16    0.16    0.30
   1 -16  17    7.56    0.46
   1 -16  18    0.11    0.31
   1 -15   0    0.52    0.17
   1 -15   1    5.14    0.32
   1 -15   2    0.71    0.22
   1 -15   3    0.08    0.22
   1 -15   4    4.03    0.24
   1 -15   5    5.56    0.27
   1 -15   6   14.97    0.41
   1 -15   7    0.26    0.23
   1 -15   8    4.92    0.60
   1 -15   9    0.04    0.22
   1 -15  10    4.69    0.30
   1 -15  11    3.23    0.36
   1 -15  12    1.32    0.24
   1 -15  13    3.15    0.26
   1 -15  14    0.36    0.28
   1 -15  15    2.35    0.30
   1 -15  16    0.51    0.38
   1 -15  17    0.00    0.29
   1 -15  18    1.81    0.31
   1 -15  19    0.00    0.51
   1 -14   0    0.65    0.17
   1 -14   1    1.37    0.17
   1 -14   2    1.42    0.15
   1 -14   3    0.20    0.20
   1 -14   4    0.38    0.21
   1 -14   5    1.04    0.25
   1 -14   6    0.01    0.20
   1 -14   7    5.51    0.30
   1 -14   8    1.19    0.24
   1 -14   9    2.31    0.30
   1 -14  10    1.84    0.22
   1 -14  11    0.07    0.21
   1 -14  12    0.01    0.28
   1 -14  13    1.60    0.28
   1 -14  14    3.54    0.30
   1 -14  15    3.16    0.29
   1 -14  16    0.04    0.27
   1 -14  17    0.52    0.28
   1 -14  18    0.05    0.28
   1 -14  19    0.59    0.30
   1 -14  20    1.30    0.55
   1 -13   0    4.51    0.26
   1 -13   1   18.39    0.30
   1 -13   2   18.01    0.30
   1 -13   3    0.19    0.14
   1 -13   4    2.80    0.19
   1 -13   5    0.03    0.18
   1 -13   6    1.41    0.19
   1 -13   7    0.28    0.18
   1 -13   8    4.76    0.22
   1 -13   9    5.99    0.29
   1 -13  10    0.04    0.25
   1 -13  11    8.47    0.38
   1 -13  12    1.24    0.42
   1 -13  13    6.08    0.52
   1 -13  14    4.18    0.30
   1 -13  15    2.23    0.28
   1 -13  16    6.33    0.36
   1 -13  17    4.57    0.32
   1 -13  18    0.84    0.29
   1 -13  19    0.62    0.28
   1 -13  20    1.50    0.55
   1 -13  21    0.81    0.53
   1 -12   0    1.62    0.19
   1 -12   1    0.18    0.15
   1 -12   2    7.73    0.20
   1 -12   3    1.52    0.16
   1 -12   4    1.14    0.10
   1 -12   5    2.97    0.26
   1 -12   6    0.38    0.17
   1 -12   7    4.56    0.23
   1 -12   8    4.47    0.21
   1 -12   9   16.93    0.42
   1 -12  10    2.63    0.22
   1 -12  11    0.17    0.21
   1 -12  12    4.93    0.52
   1 -12  13    1.05    0.23
   1 -12  14    4.72    0.33
   1 -12  15    0.15    0.24
   1 -12  16    1.46    0.26
   1 -12  17    6.08    0.31
   1 -12  18    0.24    0.28
   1 -12  19    1.55    0.28
   1 -12  20    0.71    0.29
   1 -12  21    0.02    0.50
   1 -12  22    1.14    0.53
   1 -11   0    0.30    0.17
   1 -11   1    3.45    0.17
   1 -11   2    0.30    0.16
   1 -11   3   12.93    0.35
   1 -11   4    9.17    0.31
   1 -11   5    0.19    0.23
   1 -11   6    1.65    0.18
   1 -11   7    0.41    0.17
   1 -11   8    3.49    0.18
   1 -11   9    2.19    0.23
   1 -11  10    1.25    0.21
   1 -11  11    6.29    0.24
   1 -11  12    0.25    0.20
   1 -11  13    0.00    0.21
   1 -11  14    2.99    0.26
   1 -11  15    0.35    0.23
   1 -11  16    3.43    0.27
   1 -11  17    0.55    0.58
   1 -11  18    2.31    0.27
   1 -11  19    2.23    0.28
   1 -11  20    0.20    0.28
   1 -11  21    1.30    0.31
   1 -11  22    0.05    0.52
   1 -11  23    0.00    0.51
   1 -10   0    7.13    0.27
   1 -10   1    0.00    0.16
   1 -10   2   15.84    0.30
   1 -10   3    5.54    0.21
   1 -10   4    2.32    0.32
   1 -10   5    0.00    0.17
   1 -10   6    5.62    0.28
   1 -10   7    0.22    0.16
   1 -10   8    1.47    0.18
   1 -10   9   10.78    0.30
   1 -10  10   15.68    0.46
   1 -10  11    1.28    0.19
   1 -10  12    6.18    0.28
   1 -10  13    1.42    0.29
   1 -10  14    3.77    0.29
   1 -10  15    1.60    0.22
   1 -10  16    4.08    0.42
   1 -10  17    4.06    0.62
   1 -10  18    0.06    0.25
   1 -10  19    8.77    0.54
   1 -10  20    0.15    0.57
   1 -10  21    0.11    0.29
   1 -10  22    0.03    0.29
   1 -10  23    0.64    0.52
   1 -10  24    1.01    0.53
   1  -9   0    2.79    0.16
   1  -9   1   11.10    0.16
   1  -9   2    0.88    0.14
   1  -9   3    0.03    0.12
   1  -9   4    1.99    0.21
   1  -9   5    2.02    0.26
   1  -9   6   15.54    0.37
   1  -9   7    4.72    0.27
   1  -9   8   17.72    0.46
   1  -9   9    0.01    0.16
   1  -9  10    9.97    0.34
   1  -9  11    2.75    0.73
   1  -9  12    0.09    0.45
   1  -9  13    2.16    0.27
   1  -9  14    0.04    0.18
   1  -9  15   13.28    0.39
   1  -9  16    0.39    0.21
   1  -9  17    0.51    0.30
   1  -9  18    0.06    0.29
   1  -9  19    1.08    0.26
   1  -9  20    0.85    0.26
   1  -9  21    0.17    0.28
   1  -9  22    0.99    0.31
   1  -9  23    0.21    0.30
   1  -9  24    0.54    0.52
   1  -8   0   14.73    1.01
   1  -8   1    0.67    0.13
   1  -8   2    0.41    0.13
   1  -8   3    6.23    0.12
   1  -8   4    4.40    0.18
   1  -8   5   26.22    0.42
   1  -8   6   35.57    0.70
   1  -8   7    4.34    0.67
   1  -8   8    0.91    0.16
   1  -8   9   21.01    0.45
   1  -8  10   40.07    1.24
   1  -8  11    0.00    0.15
   1  -8  12   18.73    0.35
   1  -8  13    0.69    0.21
   1  -8  14    2.40    0.20
   1  -8  15    6.23    0.30
   1  -8  16    1.80    0.21
   1  -8  17    4.13    1.38
   1  -8  18    0.01    0.24
   1  -8  19    3.42    0.28
   1  -8  20    1.31    0.27
   1  -8  21    1.10    0.28
   1  -8  22    0.78    0.30
   1  -8  23    5.91    0.67
   1  -8  24    0.50    0.70
   1  -8  25    0.64    0.32
   1  -7   0   29.63    0.62
   1  -7   1   87.01    1.76
   1  -7   2   12.18    0.17
   1  -7   3   41.25    0.43
   1  -7   4   44.51    0.99
   1  -7   5    0.02    0.15
   1  -7   6    4.82    0.29
   1  -7   7    0.85    0.16
   1  -7   8    0.14    0.15
   1  -7   9    0.05    0.15
   1  -7  10    0.98    0.15
   1  -7  11    9.03    0.33
   1  -7  12    0.12    0.15
   1  -7  13    1.38    0.64
   1  -7  14    0.00    0.16
   1  -7  15    1.68    0.21
   1  -7  16   10.65    0.33
   1  -7  17    1.32    0.22
   1  -7  18   51.97    1.77
   1  -7  19    1.34    0.24
   1  -7  20    3.42    0.28
   1  -7  21    4.41    0.31
   1  -7  22    2.20    0.30
   1  -7  23    3.13    0.71
   1  -7  24    0.03    0.31
   1  -7  25    1.57    0.34
   1  -6   0   12.45    0.13
   1  -6   1   14.18    0.36
   1  -6   2  114.45    2.52
   1  -6   3   37.11    0.81
   1  -6   4   30.32    0.58
   1  -6   5    1.11    0.09
   1  -6   6   21.29    0.61
   1  -6   7   23.78    0.38
   1  -6   8   36.98    0.50
   1  -6   9    1.85    0.10
   1  -6  10    0.06    0.13
   1  -6  11    0.82    0.21
   1  -6  12    1.76    0.15
   1  -6  13    7.51    0.58
   1  -6  14    2.48    0.22
   1  -6  15    2.43    0.18
   1  -6  16    4.43    0.25
   1  -6  17    3.20    0.24
   1  -6  18    0.01    0.23
   1  -6  19    0.05    0.25
   1  -6  20    3.53    0.38
   1  -6  21   15.80    0.47
   1  -6  22    0.82    0.29
   1  -6  23    0.26    0.39
   1  -6  24    0.05    0.31
   1  -6  25    3.99    0.40
   1  -6  26    1.54    0.44
   1  -5   0   47.28    0.90
   1  -5   1   51.76    1.38
   1  -5   2   30.86    0.48
   1  -5   3    7.51    0.31
   1  -5   4   77.07    1.37
   1  -5   5    0.04    0.14
   1  -5   6    4.83    0.21
   1  -5   7    4.69    0.33
   1  -5   8   62.69    1.09
   1  -5   9   39.13    1.84
   1  -5  10    0.26    0.13
   1  -5  11   20.14    0.45
   1  -5  12    7.70    0.21
   1  -5  13    4.57    0.18
   1  -5  14    9.22    0.36
   1  -5  15    2.83    0.21
   1  -5  16    0.75    0.19
   1  -5  17    0.12    0.21
   1  -5  18   28.04    0.73
   1  -5  19    4.35    0.28
   1  -5  20    8.69    0.38
   1  -5  21    2.14    0.30
   1  -5  22    0.53    0.29
   1  -5  23    7.69    0.53
   1  -5  24    5.04    0.36
   1  -5  25    1.53    0.35
   1  -5  26    2.34    0.44
   1  -4   0  375.42    4.18
   1  -4   1  274.91    4.41
   1  -4   2  695.22   15.67
   1  -4   3   72.61    1.46
   1  -4   6    8.67    0.34
   1  -4   7   35.80    1.05
   1  -4   8    6.34    0.34
   1  -4   9    8.08    0.19
   1  -4  10    3.47    0.20
   1  -4  11    0.32    0.11
   1  -4  12    5.80    0.28
   1  -4  13    0.00    0.17
   1  -4  14    0.95    0.17
   1  -4  15    1.24    0.25
   1  -4  16    1.60    0.20
   1  -4  17    3.38    0.59
   1  -4  18    1.75    0.23
   1  -4  19    1.95    0.26
   1  -4  20    0.00    0.26
   1  -4  21    0.03    0.28
   1  -4  22    1.54    0.29
   1  -4  23    0.27    0.30
   1  -4  24    4.29    0.34
   1  -4  25    0.53    0.33
   1  -4  26    0.25    0.42
   1  -4  27    0.02    0.44
   1  -3   0   97.05    1.40
   1  -3   1    7.78    0.58
   1  -3   2  667.53   17.34
   1  -3   6    7.81    0.33
   1  -3   7    0.02    0.14
   1  -3   8    8.21    0.30
   1  -3   9   27.86    0.28
   1  -3  10    2.86    0.18
   1  -3  11    9.75    0.54
   1  -3  12   10.70    0.28
   1  -3  13    0.01    0.17
   1  -3  14    7.11    0.37
   1  -3  15    0.08    0.18
   1  -3  16    8.00    1.20
   1  -3  17    6.70    0.45
   1  -3  18    0.26    0.23
   1  -3  19   23.19    0.62
   1  -3  20   36.78    0.93
   1  -3  21    2.73    0.33
   1  -3  22    5.50    0.45
   1  -3  23    1.42    0.36
   1  -3  24    0.02    0.32
   1  -3  25    2.56    0.35
   1  -3  26    1.86    0.44
   1  -3  27    0.00    0.43
   1  -2   0  123.52    0.59
   1  -2   1   16.10    0.10
   1  -2   6    0.85    0.12
   1  -2   8   50.25    0.94
   1  -2   9    0.85    0.12
   1  -2  10   21.52    0.58
   1  -2  11    0.41    0.17
   1  -2  12    3.78    0.31
   1  -2  13    0.95    0.18
   1  -2  14    0.40    0.35
   1  -2  15   17.99    0.57
   1  -2  16    2.83    0.60
   1  -2  17   11.67    0.36
   1  -2  18    0.70    0.24
   1  -2  19   10.61    0.66
   1  -2  20    3.57    0.29
   1  -2  21    1.36    0.35
   1  -2  22   58.03    1.26
   1  -2  23    6.43    0.37
   1  -2  24    5.83    0.36
   1  -2  25    2.33    0.45
   1  -2  26    0.12    0.42
   1  -2  27    3.88    0.50
   1  -1   0   57.84    1.03
   1  -1   1   34.25    0.59
   1  -1   5   38.26    0.70
   1  -1   6   24.21    0.67
   1  -1   7    0.97    0.10
   1  -1   8    0.69    0.08
   1  -1   9    0.18    0.12
   1  -1  10    6.56    0.49
   1  -1  11    0.56    0.90
   1  -1  12    6.17    0.20
   1  -1  13    0.11    0.20
   1  -1  14    5.82    0.22
   1  -1  15    0.37    0.20
   1  -1  16    0.09    0.27
   1  -1  17    5.85    0.33
   1  -1  18    2.27    0.54
   1  -1  19   12.21    0.42
   1  -1  20    1.60    0.29
   1  -1  21    1.66    0.30
   1  -1  22    0.02    0.30
   1  -1  23   13.43    0.56
   1  -1  24    0.52    0.33
   1  -1  25    3.82    0.48
   1  -1  26    0.38    0.44
   1  -1  27    0.49    0.45
   1   0   0  149.61    3.15
   1   0   1   58.57    0.55
   1   0   3   11.10    0.08
   1   0   4   23.21    0.51
   1   0   5  138.51    1.94
   1   0   6   84.05    1.23
   1   0   7   12.96    0.24
   1   0   8    7.57    0.64
   1   0   9    0.16    0.13
   1   0  10   29.99    1.11
   1   0  11   18.61    1.00
   1   0  12    0.21    0.21
   1   0  13    1.08    0.21
   1   0  14    5.36    0.32
   1   0  15    0.00    0.21
   1   0  16    3.71    0.29
   1   0  17    6.60    1.28
   1   0  18    7.38    0.37
   1   0  19    1.10    0.26
   1   0  20    0.41    0.27
   1   0  21    1.70    0.31
   1   0  22   18.33    0.63
   1   0  23    0.36    0.32
   1   0  24    0.00    0.40
   1   0  25    0.69    0.43
   1   0  26    0.26    0.44
   1   0  27    0.72    0.45
   1   0  28    2.50    0.52
   1   1   0   57.84    0.55
   1   1   1   34.95    0.06
   1   1   2   46.21    0.22
   1   1   3    0.60    0.04
   1   1   4    1.52    0.07
   1   1   5   12.30    0.19
   1   1   6   64.95    1.07
   1   1   7    4.10    0.10
   1   1   8   24.68    1.73
   1   1   9   30.64    0.68
   1   1  10   12.81    0.14
   1   1  11    2.23    0.15
   1   1  12    4.05    0.26
   1   1  13    8.60    0.21
   1   1  14    0.22    0.20
   1   1  15    0.35    0.11
   1   1  16    4.94    0.85
   1   1  17    5.32    0.52
   1   1  18    8.05    0.37
   1   1  19    0.00    0.25
   1   1  20    0.05    0.27
   1   1  21   12.61    0.46
   1   1  22    3.39    0.35
   1   1  23   11.81    0.53
   1   1  24    1.24    0.43
   1   1  25    5.44    0.50
   1   1  26    0.42    0.45
   1   1  27    1.30    0.45
   1   1  28    2.84    0.50
   1   2   0    3.74    0.10
   1   2   1   66.20    1.28
   1   2   2    0.12    0.05
   1   2   3   19.89    0.49
   1   2   4    3.68    0.19
   1   2   5    5.07    0.24
   1   2   6    0.34    0.12
   1   2   7    1.59    0.15
   1   2   8   10.88    0.19
   1   2   9   15.22    0.55
   1   2  10    2.53    0.38
   1   2  11    6.11    0.37
   1   2  12    0.93    0.15
   1   2  13    0.10    0.20
   1   2  14    0.29    0.17
   1   2  15    3.51    0.20
   1   2  16    3.87    0.22
   1   2  17    6.11    0.34
   1   2  18   23.77    0.67
   1   2  19   13.21    0.48
   1   2  20   25.92    0.65
   1   2  21    2.72    0.52
   1   2  22   10.07    0.60
   1   2  23    1.62    0.42
   1   2  24    1.33    0.42
   1   2  25    0.08    0.42
   1   2  26    0.34    0.44
   1   2  27    0.00    0.45
   1   2  28    0.15    0.47
   1   3   0   67.61    0.52
   1   3   1    1.18    0.07
   1   3   2    0.64    0.07
   1   3   3    0.18    0.13
   1   3   4   50.41    0.48
   1   3   5    1.00    0.12
   1   3   6    0.03    0.12
   1   3   7    1.09    0.19
   1   3   8    2.38    0.12
   1   3   9    2.24    0.19
   1   3  10    4.99    0.41
   1   3  11   29.95    0.48
   1   3  12    1.10    0.17
   1   3  13   14.19    0.27
   1   3  14   13.99    0.27
   1   3  15    4.50    0.34
   1   3  16   45.63    0.84
   1   3  17    1.28    0.15
   1   3  18   30.56    0.73
   1   3  19    7.53    0.41
   1   3  20    9.03    0.44
   1   3  21    3.25    0.50
   1   3  22    6.33    0.49
   1   3  23    1.07    0.42
   1   3  24    0.72    0.42
   1   3  25    0.87    0.45
   1   3  26    0.69    0.45
   1   3  27    0.08    0.46
   1   3  28    0.00    0.47
   1   4   0   17.97    0.36
   1   4   1   28.60    0.38
   1   4   2    0.01    0.14
   1   4   3   46.92    0.46
   1   4   4   21.74    0.43
   1   4   5   17.99    0.39
   1   4   6   12.13    0.25
   1   4   7    0.09    0.13
   1   4   8    5.87    0.26
   1   4   9    0.17    0.17
   1   4  10    0.78    0.17
   1   4  11    1.57    0.30
   1   4  12    0.18    0.18
   1   4  13    1.02    0.17
   1   4  14   13.48    0.38
   1   4  15    0.03    0.17
   1   4  16    0.36    0.18
   1   4  17    7.61    0.41
   1   4  18    1.62    0.50
   1   4  19    1.04    0.29
   1   4  20    6.32    0.36
   1   4  21    0.01    0.38
   1   4  22    1.01    0.42
   1   4  23    0.31    0.42
   1   4  24    0.44    0.43
   1   4  25    0.01    0.44
   1   4  26    0.16    0.46
   1   4  27    0.66    0.47
   1   4  28    0.03    0.47
   1   5   0    3.60    0.12
   1   5   1   20.97    0.18
   1   5   2    7.78    0.32
   1   5   3   31.20    0.40
   1   5   4  132.92    1.86
   1   5   5   16.23    0.27
   1   5   6   19.76    0.53
   1   5   7   44.88    0.64
   1   5   8    8.89    0.36
   1   5   9   20.54    0.45
   1   5  10    0.06    0.23
   1   5  11    4.63    0.30
   1   5  12   18.25    0.29
   1   5  13    0.03    0.18
   1   5  14   49.44    0.66
   1   5  15    2.14    0.21
   1   5  16    3.89    0.21
   1   5  17    4.29    0.35
   1   5  18    0.13    0.18
   1   5  19   12.61    0.52
   1   5  20    1.58    0.38
   1   5  21    5.93    0.48
   1   5  22    3.71    0.48
   1   5  23    1.22    0.42
   1   5  24    0.40    0.44
   1   5  25    3.87    0.48
   1   5  26    1.64    0.47
   1   5  27    2.60    0.50
   1   5  28    0.14    0.47
   1   6   0    4.77    0.11
   1   6   1   13.24    0.28
   1   6   2   12.77    0.22
   1   6   3    6.98    0.43
   1   6   4   17.48    0.31
   1   6   5    4.11    0.20
   1   6   6   11.19    0.25
   1   6   7    6.92    0.16
   1   6   8   13.28    0.38
   1   6   9    0.02    0.22
   1   6  10   66.64    1.03
   1   6  11    3.42    0.34
   1   6  12    0.09    0.19
   1   6  13   12.12    0.42
   1   6  14    0.59    0.22
   1   6  15    6.58    0.31
   1   6  16    4.68    0.26
   1   6  17    5.81    0.31
   1   6  18    2.67    0.36
   1   6  19    0.02    0.22
   1   6  20    0.09    0.38
   1   6  21    0.56    0.40
   1   6  22    3.56    0.46
   1   6  23    1.19    0.44
   1   6  24    0.06    0.42
   1   6  25    1.33    0.47
   1   6  26    1.61    0.48
   1   6  27    1.06    0.49
   1   7   0    1.39    0.12
   1   7   1    8.00    0.26
   1   7   2    0.05    0.12
   1   7   3    1.06    0.13
   1   7   4    6.33    0.25
   1   7   5   47.04    0.65
   1   7   6   20.04    0.31
   1   7   7   97.44    1.35
   1   7   8    1.18    0.17
   1   7   9   24.94    0.47
   1   7  10   15.36    0.31
   1   7  11    5.48    0.22
   1   7  12    9.90    0.39
   1   7  13    6.86    0.32
   1   7  14    6.32    0.22
   1   7  15    0.83    0.20
   1   7  16    0.95    0.19
   1   7  17    3.14    0.22
   1   7  18    1.31    0.24
   1   7  19    0.21    0.24
   1   7  20    0.27    0.40
   1   7  21    0.02    0.41
   1   7  22    2.01    0.46
   1   7  23    0.62    0.44
   1   7  24    0.02    0.44
   1   7  25    3.33    0.51
   1   7  26    0.01    0.47
   1   7  27    0.01    0.47
   1   8   0   10.12    0.48
   1   8   1    4.00    0.15
   1   8   2    1.21    0.14
   1   8   3   52.98    0.77
   1   8   4    0.02    0.17
   1   8   5   20.34    0.50
   1   8   6   49.72    0.78
   1   8   7    1.06    0.26
   1   8   8  109.27    1.60
   1   8   9    0.04    0.19
   1   8  10   71.69    1.02
   1   8  11    0.92    0.22
   1   8  12    5.77    0.31
   1   8  13   17.60    0.50
   1   8  14    7.57    0.35
   1   8  15    3.91    0.23
   1   8  16    0.03    0.20
   1   8  17    3.30    0.26
   1   8  18    0.60    0.24
   1   8  19    0.89    0.26
   1   8  20    1.23    0.27
   1   8  21    0.03    0.41
   1   8  22   13.18    0.75
   1   8  23    0.67    0.44
   1   8  24    0.71    0.45
   1   8  25    5.54    0.55
   1   8  26    0.03    0.47
   1   8  27    0.23    0.49
   1   9   0    9.56    0.25
   1   9   1    3.44    0.23
   1   9   2    3.44    0.16
   1   9   3    0.02    0.16
   1   9   4   44.01    1.00
   1   9   5    9.26    0.56
   1   9   6   28.76    0.68
   1   9   7   13.43    0.42
   1   9   8    0.14    0.20
   1   9   9   24.96    0.50
   1   9  10    0.13    0.21
   1   9  11    8.82    0.28
   1   9  12    6.63    0.36
   1   9  13    2.65    0.20
   1   9  14    0.61    0.26
   1   9  15    0.16    0.20
   1   9  16    5.84    0.48
   1   9  17    1.38    0.59
   1   9  18    6.11    0.32
   1   9  19    0.13    0.26
   1   9  20    0.56    0.27
   1   9  21    2.08    0.46
   1   9  22    0.01    0.43
   1   9  23    1.51    0.47
   1   9  24    0.00    0.45
   1   9  25    3.28    0.50
   1   9  26    0.03    0.46
   1   9  27    0.70    0.48
   1  10   0    0.77    0.17
   1  10   1   16.01    0.49
   1  10   2    0.24    0.18
   1  10   3   15.23    0.34
   1  10   4   44.64    0.67
   1  10   5    1.05    0.22
   1  10   6   29.79    0.49
   1  10   7    0.50    0.21
   1  10   8   24.91    0.54
   1  10   9    0.07    0.20
   1  10  10    0.54    0.20
   1  10  11   22.72    0.37
   1  10  12    0.36    0.19
   1  10  13    9.98    0.35
   1  10  14    0.94    0.24
   1  10  15    1.49    0.33
   1  10  16    0.44    0.26
   1  10  17    0.03    0.26
   1  10  18    4.95    0.32
   1  10  19    0.00    0.27
   1  10  20    7.78    0.79
   1  10  21    0.17    0.44
   1  10  22    0.28    0.45
   1  10  23    1.63    0.48
   1  10  24    0.93    0.48
   1  10  25    5.93    0.59
   1  10  26    0.00    0.46
   1  11   0    9.81    0.27
   1  11   1    4.14    0.18
   1  11   2    7.82    0.27
   1  11   3    0.78    0.18
   1  11   4   10.99    0.25
   1  11   5    2.60    0.23
   1  11   6    7.28    0.33
   1  11   7    9.59    0.31
   1  11   8    2.07    0.28
   1  11   9   15.03    0.43
   1  11  10    0.24    0.20
   1  11  11    1.62    0.31
   1  11  12    3.00    0.25
   1  11  13    0.02    0.31
   1  11  14    4.43    0.31
   1  11  15    4.17    0.35
   1  11  16    1.97    0.29
   1  11  17    2.16    0.29
   1  11  18    6.23    0.34
   1  11  19   14.34    0.64
   1  11  20    0.04    0.29
   1  11  21   11.51    0.45
   1  11  22    0.99    0.48
   1  11  23    3.13    0.52
   1  11  24    6.00    0.57
   1  11  25    0.13    0.48
   1  11  26    2.67    0.54
   1  12   0    0.20    0.16
   1  12   1    4.51    0.21
   1  12   2    2.47    0.19
   1  12   3    1.22    0.17
   1  12   4    5.26    0.28
   1  12   5   10.75    0.36
   1  12   6    2.86    0.19
   1  12   7    1.64    0.20
   1  12   8    0.08    0.20
   1  12   9   11.87    0.41
   1  12  10    0.20    0.21
   1  12  11    6.58    0.30
   1  12  12    0.30    0.24
   1  12  13    4.75    0.35
   1  12  14    9.97    0.39
   1  12  15    0.36    0.28
   1  12  16    0.33    0.27
   1  12  17    1.97    0.30
   1  12  18    0.01    0.29
   1  12  19    0.10    0.29
   1  12  20    0.00    0.30
   1  12  21    4.30    0.62
   1  12  22    1.92    0.48
   1  12  23    1.03    0.47
   1  12  24    1.39    0.51
   1  12  25    0.32    0.49
   1  13   0    2.03    0.23
   1  13   1    8.90    0.34
   1  13   2   23.28    0.48
   1  13   3   21.62    0.41
   1  13   4    0.51    0.17
   1  13   5    0.56    0.17
   1  13   6    1.87    0.19
   1  13   7    4.03    0.33
   1  13   8    0.66    0.21
   1  13   9    4.45    0.30
   1  13  10    5.49    0.34
   1  13  11    0.61    0.25
   1  13  12   12.86    0.83
   1  13  13    2.07    0.31
   1  13  14    1.63    0.29
   1  13  15    1.02    0.29
   1  13  16    0.70    0.34
   1  13  17    1.79    0.31
   1  13  18    0.00    0.30
   1  13  19   21.90    0.87
   1  13  20    0.26    0.31
   1  13  21    1.97    0.46
   1  13  22    0.03    0.47
   1  13  23    0.00    0.46
   1  13  24    0.11    0.48
   1  13  25    0.36    0.49
   1  14   0    0.97    0.17
   1  14   1    0.65    0.17
   1  14   2    2.67    0.18
   1  14   3   23.60    0.48
   1  14   4   11.60    0.35
   1  14   5    5.17    0.22
   1  14   6    0.00    0.20
   1  14   7    0.98    0.22
   1  14   8    1.62    0.25
   1  14   9    0.86    0.26
   1  14  10   16.92    0.52
   1  14  11    0.10    0.27
   1  14  12    5.93    0.31
   1  14  13    3.77    0.56
   1  14  14    2.91    0.31
   1  14  15    0.90    0.34
   1  14  16    4.21    0.37
   1  14  17    0.18    0.30
   1  14  18    2.02    0.32
   1  14  19    0.25    0.31
   1  14  20    3.68    0.36
   1  14  21    1.10    0.34
   1  14  22    2.21    0.50
   1  14  23    1.40    0.49
   1  14  24    0.14    0.48
   1  15   0   13.63    0.31
   1  15   1    0.22    0.18
   1  15   2    7.22    0.29
   1  15   3   10.40    0.66
   1  15   4    1.23    0.21
   1  15   5    6.43    0.33
   1  15   6    0.02    0.21
   1  15   7    2.14    0.50
   1  15   8    0.26    0.25
   1  15   9    0.88    0.27
   1  15  10    6.97    0.41
   1  15  11    0.00    0.27
   1  15  12    9.78    0.44
   1  15  13    1.00    0.30
   1  15  14    0.45    0.35
   1  15  15    0.74    0.32
   1  15  16    8.22    0.43
   1  15  17    2.34    0.33
   1  15  18    0.59    0.32
   1  15  19    5.76    0.45
   1  15  20    0.06    0.32
   1  15  21    0.00    0.40
   1  15  22    2.96    0.55
   1  15  23    0.36    0.49
   1  16   0    1.23    0.20
   1  16   1    2.20    0.21
   1  16   2    0.22    0.29
   1  16   3    6.62    0.36
   1  16   4    1.80    0.25
   1  16   5    4.49    0.26
   1  16   6    1.25    0.29
   1  16   7    0.03    0.25
   1  16   8    1.75    0.28
   1  16   9    4.29    0.31
   1  16  10    9.57    0.95
   1  16  11    3.68    0.38
   1  16  12    1.16    0.30
   1  16  13   12.34    0.48
   1  16  14    1.30    0.31
   1  16  15    1.33    0.32
   1  16  16    0.38    0.31
   1  16  17    2.84    0.35
   1  16  18    8.09    0.41
   1  16  19    0.62    0.50
   1  16  20   10.70    0.51
   1  16  21    0.09    0.32
   1  16  22    0.00    0.39
   1  17   0    6.35    0.26
   1  17   1    1.17    0.23
   1  17   2    1.10    0.23
   1  17   3    3.44    0.24
   1  17   4    3.99    0.27
   1  17   5    0.56    0.27
   1  17   6    0.88    0.27
   1  17   7    1.55    0.28
   1  17   8    0.01    0.28
   1  17   9    0.13    0.29
   1  17  10    2.16    0.32
   1  17  11    2.96    0.34
   1  17  12    0.42    0.30
   1  17  13    2.39    0.33
   1  17  14    1.65    0.34
   1  17  15    0.35    0.32
   1  17  16    0.08    0.32
   1  17  17    0.03    0.32
   1  17  18    0.48    0.34
   1  17  19    0.46    0.33
   1  17  20    0.25    0.34
   1  17  21    2.19    0.36
   1  18   0    0.13    0.36
   1  18   1   13.39    0.40
   1  18   2    0.74    0.23
   1  18   3    0.42    0.26
   1  18   4    7.87    0.32
   1  18   5    0.65    0.29
   1  18   6    7.14    0.41
   1  18   7    3.44    0.32
   1  18   8    4.51    0.32
   1  18   9    1.68    0.31
   1  18  10    0.02    0.30
   1  18  11    8.65    0.46
   1  18  12    0.01    0.31
   1  18  13    0.02    0.75
   1  18  14    0.58    0.85
   1  18  15    3.07    0.35
   1  18  16    0.62    0.39
   1  18  17    0.09    0.33
   1  18  18    2.72    0.51
   1  18  19    0.04    0.58
   1  18  20    3.85    0.38
   1  19   0    0.00    0.35
   1  19   1    2.19    0.45
   1  19   2    2.02    0.28
   1  19   3    0.31    0.26
   1  19   4    1.25    0.28
   1  19   5    2.35    0.74
   1  19   6    2.41    0.31
   1  19   7    0.11    0.30
   1  19   8    3.48    0.34
   1  19   9    2.16    0.32
   1  19  10    0.19    0.30
   1  19  11    0.12    1.17
   1  19  12    6.09    0.40
   1  19  13    0.49    0.33
   1  19  14    1.44    0.34
   1  19  15    0.43    0.33
   1  19  16    0.97    0.35
   1  19  17    0.01    0.34
   1  19  18    0.01    0.34
   1  19  19    2.83    0.38
   1  20   0    1.29    0.44
   1  20   1    0.23    0.42
   1  20   2    4.20    0.52
   1  20   3    0.46    0.42
   1  20   4    0.93    0.29
   1  20   5    0.25    0.28
   1  20   6    0.66    0.30
   1  20   7    2.50    0.58
   1  20   8    1.72    0.32
   1  20   9    2.14    0.33
   1  20  10    0.14    0.31
   1  20  11    2.21    0.35
   1  20  12    0.86    0.68
   1  20  13    1.70    0.35
   1  20  14    0.08    0.34
   1  20  15    0.02    0.50
   1  20  16    0.58    0.35
   1  20  17    0.20    0.50
   1  21   0    0.50    0.44
   1  21   1    0.01    0.43
   1  21   2    0.68    0.44
   1  21   3    2.88    0.49
   1  21   4    1.10    0.46
   1  21   5    0.69    0.44
   1  21   6    0.03    0.29
   1  21   7    1.18    0.31
   1  21   8    0.07    0.30
   1  21   9    2.91    0.35
   1  21  10    2.61    0.35
   1  21  11    0.63    0.43
   1  21  12    3.75    0.51
   1  21  13    1.71    0.35
   1  21  14    2.28    0.36
   1  21  15    2.09    0.37
   1  22   0    0.95    0.44
   1  22   1    0.28    0.44
   1  22   2    4.26    0.52
   1  22   3    0.00    0.43
   1  22   4    1.07    0.46
   1  22   5    1.05    0.47
   1  22   6    0.62    0.46
   1  22   7    1.63    0.48
   1  22   8    0.82    0.34
   1  22   9    1.21    0.33
   1  22  10    0.00    0.32
   1  22  11    0.00    0.33
   1  22  12    0.29    0.47
   1  22  13    0.00    0.34
   1  23   0    0.01    0.45
   1  23   1    1.09    0.47
   1  23   2    2.32    0.50
   1  23   3    1.36    0.48
   1  23   4    1.03    0.48
   1  23   5    2.30    0.49
   1  23   6    0.88    0.47
   1  23   7    5.22    0.55
   1  23   8    1.12    0.49
   1  23   9    1.82    0.50
   2 -22   0    0.44    0.44
   2 -22   1    1.06    0.45
   2 -22   2    0.11    0.35
   2 -22   3    0.12    0.35
   2 -22   4    0.00    0.34
   2 -22   5    0.35    0.34
   2 -22   6    0.52    0.35
   2 -21   0    0.69    0.44
   2 -21   1    3.94    0.68
   2 -21   2    1.55    0.35
   2 -21   3    0.00    0.33
   2 -21   4    3.22    0.38
   2 -21   5    0.01    0.33
   2 -21   6    0.00    0.33
   2 -21   7    2.33    0.36
   2 -21   8    0.13    0.33
   2 -21   9    3.39    0.37
   2 -20   0    2.69    0.44
   2 -20   1    0.35    0.54
   2 -20   2    2.08    0.36
   2 -20   3    2.74    0.34
   2 -20   4    0.74    0.33
   2 -20   5    5.07    0.40
   2 -20   6    1.39    0.34
   2 -20   7    0.22    0.33
   2 -20   8    0.01    0.32
   2 -20   9    0.52    0.44
   2 -20  10    0.00    0.33
   2 -20  11    0.00    0.40
   2 -19   0    0.01    0.32
   2 -19   1    0.59    0.32
   2 -19   2    0.04    0.31
   2 -19   3    0.65    0.48
   2 -19   4    4.82    0.37
   2 -19   5    2.45    0.34
   2 -19   6    0.01    0.30
   2 -19   7    0.00    0.30
   2 -19   8    3.33    0.54
   2 -19   9    1.18    0.31
   2 -19  10    3.75    0.44
   2 -19  11    0.45    0.31
   2 -19  12    0.13    0.26
   2 -19  13    0.01    0.27
   2 -18   0    5.83    0.64
   2 -18   1    1.36    0.32
   2 -18   2    2.73    0.33
   2 -18   3   10.49    0.49
   2 -18   4    0.20    0.30
   2 -18   5    0.15    0.30
   2 -18   6    2.23    0.28
   2 -18   7    9.80    0.40
   2 -18   8    3.25    0.42
   2 -18   9    2.03    0.27
   2 -18  10    1.45    0.27
   2 -18  11    0.13    0.25
   2 -18  12    4.28    0.29
   2 -18  13    0.00    0.38
   2 -18  14    0.81    0.26
   2 -18  15    6.25    0.44
   2 -17   0    2.98    0.75
   2 -17   1    3.12    0.76
   2 -17   2    1.87    0.27
   2 -17   3    1.00    0.25
   2 -17   4    3.78    0.27
   2 -17   5    1.19    0.26
   2 -17   6    0.97    0.25
   2 -17   7    4.47    0.29
   2 -17   8    1.09    0.25
   2 -17   9    1.25    0.25
   2 -17  10    1.21    0.40
   2 -17  11    0.52    0.24
   2 -17  12    0.00    0.24
   2 -17  13    2.62    0.27
   2 -17  14    0.16    0.25
   2 -17  15    1.47    0.26
   2 -17  16    0.58    0.36
   2 -17  17    0.37    0.35
   2 -16   0    5.40    0.35
   2 -16   1    8.28    0.45
   2 -16   2    0.98    0.25
   2 -16   3    9.40    0.32
   2 -16   4    4.47    0.35
   2 -16   5    0.01    0.23
   2 -16   6    5.52    0.33
   2 -16   7    0.40    0.28
   2 -16   8    0.03    0.23
   2 -16   9    0.01    0.23
   2 -16  10    3.46    0.26
   2 -16  11    1.29    0.24
   2 -16  12    0.00    0.23
   2 -16  13    8.05    0.35
   2 -16  14    0.14    0.24
   2 -16  15    1.26    0.25
   2 -16  16    0.21    0.34
   2 -16  17    2.59    0.36
   2 -16  18    0.30    0.36
   2 -15   0    0.75    0.28
   2 -15   1    0.37    0.27
   2 -15   2    1.12    0.28
   2 -15   3    0.97    0.27
   2 -15   4    3.88    0.35
   2 -15   5    8.87    0.33
   2 -15   6    6.64    0.34
   2 -15   7    1.17    0.22
   2 -15   8    0.02    0.21
   2 -15   9    1.73    0.22
   2 -15  10    2.58    0.30
   2 -15  11    4.37    0.25
   2 -15  12    0.06    0.23
   2 -15  13    0.11    0.22
   2 -15  14    0.37    0.23
   2 -15  15    0.46    0.23
   2 -15  16    8.46    0.58
   2 -15  17    0.13    0.47
   2 -15  18    4.04    0.53
   2 -15  19    0.21    0.49
   2 -14   0    3.70    0.19
   2 -14   1    9.36    0.31
   2 -14   2    2.20    0.49
   2 -14   3    0.09    0.23
   2 -14   4    5.65    0.31
   2 -14   5    0.99    0.21
   2 -14   6    3.16    0.21
   2 -14   7    0.00    0.19
   2 -14   8    0.05    0.20
   2 -14   9    0.58    0.21
   2 -14  10    1.37    0.22
   2 -14  11    0.36    0.21
   2 -14  12    0.01    0.20
   2 -14  13   10.02    0.34
   2 -14  14    0.00    0.20
   2 -14  15    0.00    0.25
   2 -14  16    0.31    0.45
   2 -14  17    4.05    0.51
   2 -14  18    1.30    0.46
   2 -14  19    1.95    0.50
   2 -14  20    0.71    0.48
   2 -13   0    3.23    0.16
   2 -13   1    1.68    0.25
   2 -13   2    0.01    0.13
   2 -13   3    0.05    0.43
   2 -13   4    0.02    0.32
   2 -13   5    0.06    0.18
   2 -13   6    5.48    0.24
   2 -13   7   13.53    0.36
   2 -13   8    0.18    0.18
   2 -13   9    7.68    0.31
   2 -13  10    0.43    0.22
   2 -13  11    6.28    0.31
   2 -13  12    3.79    0.39
   2 -13  13    1.29    0.41
   2 -13  14    1.65    0.24
   2 -13  15    0.66    0.24
   2 -13  16    1.74    0.25
   2 -13  17    1.56    0.46
   2 -13  18    0.64    0.43
   2 -13  19    0.60    0.46
   2 -13  20    0.57    0.47
   2 -13  21    4.24    0.52
   2 -12   0    0.09    0.15
   2 -12   1    0.31    0.14
   2 -12   2    0.82    0.22
   2 -12   3    0.00    0.29
   2 -12   4    0.02    0.28
   2 -12   5    7.10    0.31
   2 -12   6    0.35    0.17
   2 -12   7    3.22    0.41
   2 -12   8    0.82    0.22
   2 -12   9    0.01    0.16
   2 -12  10    2.62    0.18
   2 -12  11    0.06    0.16
   2 -12  12    7.46    0.32
   2 -12  13    0.02    0.20
   2 -12  14    3.36    0.30
   2 -12  15    0.94    0.68
   2 -12  16    0.11    0.22
   2 -12  17    5.22    0.48
   2 -12  18    0.58    0.43
   2 -12  19    5.80    0.53
   2 -12  20    0.13    0.46
   2 -12  21    0.26    0.47
   2 -12  22    1.96    0.52
   2 -11   0   12.27    0.21
   2 -11   1    0.65    0.19
   2 -11   2   24.36    0.47
   2 -11   3    4.97    0.33
   2 -11   4    3.70    0.36
   2 -11   5    1.93    0.20
   2 -11   6    7.21    0.29
   2 -11   7    0.31    0.16
   2 -11   8    1.68    0.18
   2 -11   9    1.39    0.20
   2 -11  10    0.67    0.21
   2 -11  11    2.26    0.20
   2 -11  12    4.73    0.25
   2 -11  13    0.07    0.19
   2 -11  14    3.89    0.26
   2 -11  15    1.60    0.21
   2 -11  16    0.82    0.22
   2 -11  17    0.03    0.22
   2 -11  18    2.04    0.43
   2 -11  19    4.28    0.52
   2 -11  20    0.28    0.45
   2 -11  21    1.33    0.48
   2 -11  22    0.00    0.47
   2 -11  23    0.15    0.47
   2 -10   0    0.28    0.18
   2 -10   1   16.50    0.31
   2 -10   2   11.68    0.30
   2 -10   3   73.70    1.67
   2 -10   4    3.39    0.31
   2 -10   5   10.66    0.35
   2 -10   6    3.43    0.24
   2 -10   7    7.11    0.30
   2 -10   8   10.89    0.32
   2 -10   9    0.00    0.50
   2 -10  10    3.86    0.18
   2 -10  11    1.65    0.16
   2 -10  12    0.31    0.19
   2 -10  13    7.95    0.25
   2 -10  14    1.69    0.99
   2 -10  15    6.36    0.36
   2 -10  16    5.59    0.31
   2 -10  17    0.08    0.21
   2 -10  18    2.60    0.24
   2 -10  19    0.81    0.42
   2 -10  20   20.67    0.90
   2 -10  21    0.01    0.44
   2 -10  22    3.93    0.50
   2 -10  23    0.81    0.46
   2 -10  24    0.13    0.48
   2  -9   0    1.84    0.16
   2  -9   1    4.10    0.16
   2  -9   2   10.62    0.36
   2  -9   3    0.10    0.24
   2  -9   4   82.54    1.49
   2  -9   5    8.93    0.32
   2  -9   6   34.34    0.71
   2  -9   7   13.47    0.48
   2  -9   8    2.46    0.16
   2  -9   9    0.80    0.11
   2  -9  10    0.02    0.11
   2  -9  11    0.73    0.13
   2  -9  12    0.25    0.14
   2  -9  13    0.01    0.17
   2  -9  14    0.39    0.16
   2  -9  15    3.25    0.48
   2  -9  16    0.08    0.18
   2  -9  17    2.16    0.21
   2  -9  18    0.45    0.21
   2  -9  19    0.39    0.23
   2  -9  20    0.50    0.42
   2  -9  21    0.00    0.43
   2  -9  22    0.46    0.45
   2  -9  23    3.45    0.54
   2  -9  24    0.24    0.48
   2  -8   0   20.04    0.38
   2  -8   1   39.57    1.15
   2  -8   2   14.07    0.15
   2  -8   3   63.41    1.17
   2  -8   4   30.81    0.69
   2  -8   5    2.07    0.17
   2  -8   6    3.53    0.24
   2  -8   7    1.93    0.16
   2  -8   8    0.49    0.10
   2  -8   9   12.45    0.25
   2  -8  10   20.84    0.34
   2  -8  11    9.21    0.22
   2  -8  12    4.02    0.17
   2  -8  13    4.00    0.31
   2  -8  14    2.08    0.15
   2  -8  15   17.71    0.70
   2  -8  16   12.82    0.36
   2  -8  17    9.07    0.52
   2  -8  18    3.36    0.29
   2  -8  19    1.14    0.24
   2  -8  20    4.76    0.46
   2  -8  21    0.06    0.42
   2  -8  22    0.24    0.45
   2  -8  23    0.00    0.46
   2  -8  24    0.38    0.49
   2  -8  25    0.84    0.51
   2  -7   0    0.18    0.17
   2  -7   1    3.83    0.31
   2  -7   2    8.78    0.20
   2  -7   3   64.53    1.07
   2  -7   4   92.40    1.91
   2  -7   5   27.87    0.74
   2  -7   6    4.81    0.21
   2  -7   9    0.73    0.24
   2  -7  10    1.26    0.23
   2  -7  11   18.11    0.58
   2  -7  12    3.80    0.20
   2  -7  13    3.05    0.27
   2  -7  14   13.80    0.27
   2  -7  15    1.26    0.15
   2  -7  16    0.07    0.16
   2  -7  17    1.10    0.18
   2  -7  18    3.88    0.63
   2  -7  19    1.69    0.23
   2  -7  20    1.23    0.23
   2  -7  21    6.65    0.47
   2  -7  22    5.42    1.13
   2  -7  23    1.07    0.48
   2  -7  24    1.57    0.51
   2  -7  25    0.01    0.50
   2  -6   0    3.48    0.11
   2  -6   1  217.80    3.97
   2  -6   2    0.28    0.18
   2  -6   3  105.48    2.11
   2  -6   4   57.64    0.62
   2  -6   5    7.78    0.36
   2  -6   9    0.33    0.20
   2  -6  10    3.16    0.34
   2  -6  11    2.57    0.32
   2  -6  12   11.17    0.40
   2  -6  13    2.19    0.11
   2  -6  14    0.00    0.14
   2  -6  15    1.49    0.15
   2  -6  16    0.30    0.20
   2  -6  17    0.15    0.21
   2  -6  18    6.49    0.31
   2  -6  19    0.38    0.71
   2  -6  20    3.95    0.77
   2  -6  21    0.63    0.25
   2  -6  22    9.92    0.59
   2  -6  23    5.26    0.65
   2  -6  24   14.94    0.53
   2  -6  25    1.78    0.54
   2  -6  26    0.00    0.51
   2  -5   0    4.31    0.20
   2  -5   1    0.03    0.15
   2  -5   2  569.99   10.51
   2  -5   3    4.08    0.07
   2  -5   4  180.83    4.97
   2  -5   9   43.83    1.62
   2  -5  10    1.93    0.28
   2  -5  11    2.75    0.33
   2  -5  12    4.22    0.38
   2  -5  13    4.27    0.31
   2  -5  14    4.85    0.11
   2  -5  15    2.69    0.15
   2  -5  16    2.58    0.24
   2  -5  17   13.81    0.69
   2  -5  18    6.43    0.38
   2  -5  19    7.72    0.94
   2  -5  20    0.73    0.24
   2  -5  21    2.17    0.26
   2  -5  22    0.30    0.27
   2  -5  23    0.10    0.28
   2  -5  24    9.65    0.73
   2  -5  25    1.90    0.33
   2  -5  26    1.05    0.41
   2  -4   0   11.74    0.60
   2  -4   1   22.98    0.40
   2  -4   2   80.82    1.56
   2  -4   3    4.23    0.24
   2  -4   4  138.29    3.66
   2  -4  10    0.22    0.18
   2  -4  11    0.17    0.21
   2  -4  12   29.50    0.76
   2  -4  13    0.45    0.10
   2  -4  14    1.88    0.15
   2  -4  15    3.78    0.18
   2  -4  16    2.89    0.25
   2  -4  17    0.32    0.18
   2  -4  18    3.42    0.23
   2  -4  19   15.02    0.40
   2  -4  20    7.16    0.61
   2  -4  21    6.54    0.37
   2  -4  22    4.02    0.39
   2  -4  23    0.16    0.28
   2  -4  24    0.96    0.31
   2  -4  25    2.31    0.33
   2  -4  26    0.09    0.32
   2  -4  27    1.86    0.35
   2  -3   0   59.07    0.76
   2  -3   1   30.97    0.30
   2  -3   2 1006.16   14.54
   2  -3   3  412.03   13.79
   2  -3  10    1.61    0.20
   2  -3  11    0.52    0.25
   2  -3  12    5.08    0.26
   2  -3  13    0.12    0.09
   2  -3  14    4.00    0.24
   2  -3  15    0.07    0.15
   2  -3  16    0.39    0.40
   2  -3  17    6.39    0.29
   2  -3  18    7.38    0.36
   2  -3  19   69.45    1.46
   2  -3  20    1.59    0.31
   2  -3  21   11.42    0.44
   2  -3  22    0.01    0.28
   2  -3  23    0.38    0.29
   2  -3  24    2.35    0.32
   2  -3  25    7.75    0.43
   2  -3  26    0.47    0.33
   2  -3  27    0.35    0.42
   2  -2   0   25.57    0.60
   2  -2   1    0.09    0.08
   2  -2   2   26.58    0.18
   2  -2   3  327.12   10.66
   2  -2  10   16.13    0.39
   2  -2  11    3.07    0.22
   2  -2  12    0.53    0.14
   2  -2  13    1.52    0.17
   2  -2  14    3.63    0.21
   2  -2  15    3.25    0.17
   2  -2  16    0.03    0.18
   2  -2  17    0.15    0.20
   2  -2  18   13.47    0.38
   2  -2  19   29.53    1.57
   2  -2  20   41.65    0.89
   2  -2  21    0.59    0.28
   2  -2  22   53.31    2.16
   2  -2  23    0.57    0.29
   2  -2  24    0.75    0.31
   2  -2  25    3.94    1.03
   2  -2  26    0.45    0.34
   2  -2  27    2.25    0.46
   2  -1   0   18.70    0.16
   2  -1   1    0.67    0.15
   2  -1   2    1.21    0.08
   2  -1   3    0.37    0.09
   2  -1   7    9.38    0.49
   2  -1   8   16.42    0.34
   2  -1   9    1.16    0.33
   2  -1  10   25.77    0.24
   2  -1  11    6.07    0.22
   2  -1  12    9.37    0.41
   2  -1  13    2.21    0.28
   2  -1  14    7.10    0.38
   2  -1  15    0.01    0.18
   2  -1  16    0.18    0.18
   2  -1  17    7.25    0.56
   2  -1  18    1.59    0.23
   2  -1  19   20.50    0.75
   2  -1  20    0.17    0.33
   2  -1  21    1.14    0.28
   2  -1  22    1.73    0.30
   2  -1  23    0.35    0.46
   2  -1  24    0.24    0.31
   2  -1  25    1.42    0.34
   2  -1  26    0.12    0.42
   2  -1  27    0.64    0.45
   2  -1  28    1.63    0.47
   2   0   0   10.27    0.09
   2   0   1  165.08    1.94
   2   0   2   18.92    0.35
   2   0   3    0.22    0.06
   2   0   4    7.86    0.10
   2   0   5   20.07    0.62
   2   0   6    1.86    0.12
   2   0   7   96.83    1.47
   2   0   8   41.58    0.36
   2   0   9    6.26    0.28
   2   0  10   79.66    1.81
   2   0  11   38.57    1.39
   2   0  12    4.33    0.20
   2   0  13   20.18    0.74
   2   0  14    4.65    0.29
   2   0  15    3.92    0.38
   2   0  16    4.87    0.31
   2   0  17    9.91    0.67
   2   0  18   21.67    0.52
   2   0  19    0.00    0.24
   2   0  20    0.07    0.31
   2   0  21    2.40    0.48
   2   0  22   19.14    0.58
   2   0  23    4.70    0.35
   2   0  24    2.14    0.61
   2   0  25    0.66    0.33
   2   0  26    0.00    0.43
   2   0  27    4.18    0.50
   2   0  28    1.46    0.45
   2   1   0   40.81    0.63
   2   1   1    0.82    0.08
   2   1   2    9.78    0.30
   2   1   3   23.57    0.18
   2   1   4   27.47    0.47
   2   1   5    4.33    0.15
   2   1   6    1.79    0.10
   2   1   7   36.93    0.75
   2   1   8    9.96    0.38
   2   1   9    7.56    0.20
   2   1  10    9.88    0.17
   2   1  11   22.92    0.91
   2   1  12    0.20    0.30
   2   1  13    0.78    0.20
   2   1  14   21.66    0.70
   2   1  15    3.65    0.41
   2   1  16   21.67    0.48
   2   1  17    4.43    0.30
   2   1  18    0.14    0.23
   2   1  19   12.56    0.67
   2   1  20    1.24    0.27
   2   1  21    1.27    0.50
   2   1  22    1.00    0.31
   2   1  23    0.74    0.32
   2   1  24    0.54    0.33
   2   1  25    0.03    0.40
   2   1  26    1.04    0.44
   2   1  27    0.02    0.43
   2   1  28    0.62    0.45
   2   2   0   25.75    0.34
   2   2   1  194.66    3.49
   2   2   2   66.10    1.35
   2   2   3    7.92    0.14
   2   2   4   93.35    0.98
   2   2   5   12.51    0.21
   2   2   6   71.07    1.07
   2   2   7    2.09    0.30
   2   2   8    3.66    0.09
   2   2   9    0.53    0.17
   2   2  10    7.88    0.37
   2   2  11   35.25    0.45
   2   2  12    0.01    0.12
   2   2  13   10.27    0.25
   2   2  14    0.63    0.41
   2   2  15    5.33    0.35
   2   2  16   11.17    0.43
   2   2  17    0.00    0.22
   2   2  18   17.01    0.48
   2   2  19    0.48    0.26
   2   2  20    0.05    0.27
   2   2  21    2.89    0.31
   2   2  22    0.00    0.30
   2   2  23    8.47    0.50
   2   2  24    5.59    0.46
   2   2  25    1.28    0.43
   2   2  26    1.24    0.45
   2   2  27    2.33    0.47
   2   2  28    1.57    0.48
   2   3   0   74.86    0.75
   2   3   1   27.52    0.22
   2   3   2  353.50    5.57
   2   3   3   33.06    0.61
   2   3   4   63.23    0.61
   2   3   5   69.23    1.23
   2   3   6    2.36    0.16
   2   3   7   45.99    0.87
   2   3   8    0.32    0.12
   2   3   9    3.99    0.13
   2   3  10    3.95    0.32
   2   3  11    2.09    0.16
   2   3  12    1.42    0.19
   2   3  13   10.69    0.24
   2   3  14    1.44    0.22
   2   3  15    0.21    0.13
   2   3  16    0.34    0.14
   2   3  17    2.18    0.50
   2   3  18    0.65    0.24
   2   3  19    5.34    0.31
   2   3  20    7.88    0.43
   2   3  21   11.49    0.47
   2   3  22   17.87    0.55
   2   3  23    2.44    0.36
   2   3  24    5.59    0.50
   2   3  25    0.25    0.43
   2   3  26    3.75    0.49
   2   3  27    0.06    0.45
   2   3  28    0.02    0.46
   2   4   0    6.25    0.30
   2   4   1   63.45    0.92
   2   4   2   17.66    0.25
   2   4   3   42.82    0.77
   2   4   4   80.54    1.56
   2   4   5   15.40    0.22
   2   4   6    5.01    0.33
   2   4   7    1.85    0.20
   2   4   8   32.85    0.66
   2   4   9   12.29    0.48
   2   4  10   25.37    0.42
   2   4  11   24.94    0.37
   2   4  12    0.19    0.16
   2   4  13    0.39    0.16
   2   4  14   15.71    0.30
   2   4  15    2.58    0.18
   2   4  16    4.01    0.81
   2   4  17    0.15    0.16
   2   4  18    0.42    0.25
   2   4  19    1.67    0.29
   2   4  20    0.34    0.28
   2   4  21    0.90    0.31
   2   4  22    2.60    0.40
   2   4  23    1.17    0.41
   2   4  24    2.63    0.46
   2   4  25    0.68    0.43
   2   4  26    0.80    0.45
   2   4  27    4.25    0.52
   2   4  28    0.06    0.46
   2   5   0  353.86    5.37
   2   5   1   12.04    0.24
   2   5   2   16.74    0.38
   2   5   3   57.50    0.60
   2   5   4    5.43    0.17
   2   5   5   16.66    0.39
   2   5   6    0.11    0.12
   2   5   7   21.09    0.41
   2   5   8    3.31    0.15
   2   5   9    6.85    0.25
   2   5  10   53.78    1.40
   2   5  11    5.99    0.28
   2   5  12   28.05    0.38
   2   5  13    4.52    0.47
   2   5  14   27.59    0.57
   2   5  15   13.57    0.30
   2   5  16    0.84    0.17
   2   5  17    3.12    0.19
   2   5  18    0.01    0.26
   2   5  19    1.00    0.29
   2   5  20    1.19    0.29
   2   5  21    0.58    0.32
   2   5  22    2.81    0.43
   2   5  23    1.34    0.42
   2   5  24    1.05    0.43
   2   5  25    1.08    0.45
   2   5  26    0.00    0.44
   2   5  27    0.35    0.47
   2   5  28    0.01    0.47
   2   6   0   10.34    0.47
   2   6   1   37.33    0.66
   2   6   2   15.27    0.49
   2   6   3   10.90    0.29
   2   6   4   45.56    0.68
   2   6   5    0.27    0.11
   2   6   6    4.72    0.20
   2   6   7    0.02    0.19
   2   6   8   49.95    0.76
   2   6   9    0.16    0.20
   2   6  10   21.90    0.47
   2   6  11   14.56    0.47
   2   6  12    0.24    0.19
   2   6  13   27.64    0.44
   2   6  14    1.08    0.26
   2   6  15   25.12    0.50
   2   6  16    3.96    0.21
   2   6  17    0.03    0.20
   2   6  18   11.07    0.31
   2   6  19    1.25    0.79
   2   6  20   10.52    0.63
   2   6  21    0.03    0.39
   2   6  22    0.27    0.39
   2   6  23    0.09    0.42
   2   6  24    0.79    0.44
   2   6  25    0.45    0.44
   2   6  26    0.87    0.47
   2   6  27    3.88    0.54
   2   6  28    0.43    0.48
   2   7   0    1.46    0.18
   2   7   1    5.94    0.19
   2   7   2    0.26    0.12
   2   7   3   60.06    0.70
   2   7   4    1.25    0.13
   2   7   5   13.93    0.29
   2   7   6    1.92    0.24
   2   7   7    0.00    0.17
   2   7   8    0.44    0.27
   2   7   9    0.05    0.19
   2   7  10  129.68    2.36
   2   7  11    0.43    0.20
   2   7  12   10.13    0.29
   2   7  13    1.95    0.21
   2   7  14    6.05    0.34
   2   7  15    2.13    0.23
   2   7  16    0.96    0.19
   2   7  17    5.06    0.23
   2   7  18    0.01    0.20
   2   7  19    0.06    0.36
   2   7  20    1.51    0.42
   2   7  21    3.61    0.50
   2   7  22    1.72    0.44
   2   7  23    5.04    0.48
   2   7  24    0.50    0.43
   2   7  25    5.05    0.50
   2   7  26    0.08    0.46
   2   7  27    5.99    0.58
   2   8   1   11.38    0.25
   2   8   2    0.28    0.16
   2   8   3   16.04    0.60
   2   8   4   26.99    0.41
   2   8   5   10.54    0.21
   2   8   6   19.44    0.46
   2   8   7    2.73    0.18
   2   8   8   10.80    0.32
   2   8   9   47.16    0.59
   2   8  10    0.24    0.20
   2   8  11   19.22    0.72
   2   8  12    1.20    0.19
   2   8  13   38.22    0.61
   2   8  14    3.86    0.23
   2   8  15   11.83    0.34
   2   8  16    6.51    0.29
   2   8  17    4.05    0.24
   2   8  18    4.07    0.27
   2   8  19    0.29    0.33
   2   8  20    0.31    0.42
   2   8  21    1.38    0.44
   2   8  22    0.98    0.45
   2   8  23    8.40    0.62
   2   8  24    2.28    0.46
   2   8  25    2.10    0.47
   2   8  26    1.42    0.47
   2   8  27    1.17    0.50
   2   9   0    2.24    0.18
   2   9   1   17.24    0.39
   2   9   2   11.46    0.37
   2   9   3   18.85    0.48
   2   9   4    4.31    0.20
   2   9   5    2.74    0.29
   2   9   6   20.28    0.48
   2   9   7    0.00    0.20
   2   9   8   11.81    0.24
   2   9   9    5.17    0.22
   2   9  10    6.19    0.33
   2   9  11    0.26    0.19
   2   9  12    0.70    0.19
   2   9  13    2.49    0.23
   2   9  14    3.20    0.28
   2   9  15    2.01    0.22
   2   9  16    0.50    0.24
   2   9  17    0.23    0.24
   2   9  18    0.83    0.26
   2   9  19    0.01    0.26
   2   9  20    1.89    0.44
   2   9  21    5.64    0.55
   2   9  22    0.00    0.44
   2   9  23    0.17    0.45
   2   9  24    0.20    0.46
   2   9  25    0.56    0.46
   2   9  26    0.01    0.47
   2   9  27    0.69    0.50
   2  10   0    0.00    0.17
   2  10   1    5.43    0.19
   2  10   2    1.97    0.18
   2  10   3   17.44    0.81
   2  10   4  141.00    1.63
   2  10   5    6.75    0.34
   2  10   6   16.41    0.43
   2  10   7    5.95    0.33
   2  10   8    0.01    0.20
   2  10   9    3.22    0.19
   2  10  10    0.06    0.20
   2  10  11    4.89    0.48
   2  10  12    0.42    0.20
   2  10  13    0.77    0.20
   2  10  14    0.18    0.20
   2  10  15    6.53    0.67
   2  10  16    0.26    0.25
   2  10  17    2.16    0.27
   2  10  18    3.11    0.29
   2  10  19    4.36    0.32
   2  10  20    0.06    0.43
   2  10  21    5.76    0.53
   2  10  22    0.23    0.45
   2  10  23    5.29    0.57
   2  10  24    0.20    0.46
   2  10  25    3.71    0.52
   2  10  26    3.02    0.53
   2  11   0    5.24    0.27
   2  11   1    3.83    0.21
   2  11   2    6.84    0.19
   2  11   3   10.38    0.57
   2  11   4   12.39    0.40
   2  11   5   63.20    0.89
   2  11   6    7.51    0.33
   2  11   7    6.16    0.32
   2  11   8   22.94    0.44
   2  11   9    2.06    0.20
   2  11  10    4.50    0.22
   2  11  11    1.32    0.22
   2  11  12   22.32    0.53
   2  11  13    0.14    0.38
   2  11  14    2.05    0.34
   2  11  15    0.05    0.25
   2  11  16    0.87    0.26
   2  11  17    0.81    0.27
   2  11  18    0.05    0.27
   2  11  19    4.49    0.32
   2  11  20    0.01    0.28
   2  11  21    6.27    0.64
   2  11  22   11.92    0.67
   2  11  23    0.14    0.45
   2  11  24    6.21    0.58
   2  11  25    0.88    0.49
   2  11  26    0.16    0.48
   2  12   0    0.00    0.16
   2  12   1    0.31    0.18
   2  12   2    7.38    0.31
   2  12   3    6.22    0.20
   2  12   4   22.30    0.35
   2  12   5    2.15    0.35
   2  12   6   13.93    0.68
   2  12   7    2.16    0.23
   2  12   8    1.63    0.29
   2  12   9    4.03    0.26
   2  12  10    0.36    0.24
   2  12  11    4.23    0.30
   2  12  12    5.58    0.29
   2  12  13    0.52    0.53
   2  12  14   23.32    0.57
   2  12  15    7.09    0.33
   2  12  16    0.00    0.28
   2  12  17    0.24    0.29
   2  12  18    0.09    0.52
   2  12  19    0.01    0.28
   2  12  20    1.28    0.30
   2  12  21   11.55    0.68
   2  12  22    1.44    0.49
   2  12  23    0.05    0.45
   2  12  24    0.64    0.48
   2  12  25    0.02    0.49
   2  13   0   11.81    0.36
   2  13   1    2.50    0.31
   2  13   2    7.96    0.26
   2  13   3    7.70    0.32
   2  13   4    0.83    0.18
   2  13   5   18.35    0.42
   2  13   6    4.67    0.27
   2  13   7   10.00    0.39
   2  13   8    0.51    0.20
   2  13   9    5.81    0.31
   2  13  10    2.27    0.41
   2  13  11    3.55    0.44
   2  13  12   21.26    0.56
   2  13  13    0.13    0.27
   2  13  14    0.07    0.26
   2  13  15    0.45    0.69
   2  13  16    0.28    0.28
   2  13  17    0.67    0.29
   2  13  18    5.12    0.34
   2  13  19    6.51    0.44
   2  13  20    9.45    0.47
   2  13  21    0.30    0.45
   2  13  22    9.90    0.67
   2  13  23    0.00    0.45
   2  13  24    4.75    0.57
   2  13  25    0.27    0.48
   2  14   0    0.15    0.36
   2  14   1    0.01    0.32
   2  14   2    2.97    0.23
   2  14   3   27.69    0.45
   2  14   4    7.41    0.48
   2  14   5   16.73    0.38
   2  14   6    4.48    0.22
   2  14   7    4.75    0.56
   2  14   8    3.28    0.28
   2  14   9    0.13    0.24
   2  14  10    1.71    0.68
   2  14  11    1.91    0.28
   2  14  12    3.19    0.40
   2  14  13   15.01    0.63
   2  14  14    2.67    0.41
   2  14  15    0.96    0.31
   2  14  16    6.62    0.82
   2  14  17    2.63    0.36
   2  14  18    3.39    0.35
   2  14  19    0.06    0.30
   2  14  20    6.05    0.86
   2  14  21    0.32    0.32
   2  14  22    0.00    0.46
   2  14  23    1.79    0.49
   2  14  24    0.01    0.47
   2  15   0    1.02    0.22
   2  15   1    3.08    0.32
   2  15   2    0.11    0.20
   2  15   3   26.28    0.75
   2  15   4    0.61    0.22
   2  15   5    1.26    0.21
   2  15   6    1.87    0.29
   2  15   7    0.79    0.26
   2  15   8   11.06    0.45
   2  15   9    0.11    0.26
   2  15  10   10.87    0.45
   2  15  11    5.98    0.34
   2  15  12    1.05    0.29
   2  15  13    3.49    0.66
   2  15  14    0.46    0.30
   2  15  15    0.25    0.30
   2  15  16    1.26    0.31
   2  15  17    2.60    0.34
   2  15  18    1.26    0.32
   2  15  19    0.00    0.31
   2  15  20    7.67    0.47
   2  15  21    0.27    0.32
   2  15  22    2.88    0.50
   2  15  23    0.13    0.47
   2  16   0    1.56    0.21
   2  16   1    0.94    0.22
   2  16   2    0.00    0.21
   2  16   3    0.07    0.21
   2  16   4    8.66    0.37
   2  16   5    2.63    0.38
   2  16   6    9.27    0.45
   2  16   7    3.75    0.30
   2  16   8    0.23    0.27
   2  16   9    3.47    0.31
   2  16  10    0.60    0.29
   2  16  11    6.06    0.35
   2  16  12    3.06    0.32
   2  16  13    3.05    0.34
   2  16  14    1.06    0.45
   2  16  15    8.04    0.47
   2  16  16    2.16    0.47
   2  16  17    6.78    1.05
   2  16  18    0.69    0.40
   2  16  19    0.07    0.32
   2  16  20    3.16    0.35
   2  16  21    8.63    0.49
   2  16  22    0.89    0.49
   2  17   0    1.47    0.24
   2  17   1    0.20    0.22
   2  17   2    0.07    0.24
   2  17   3    1.39    0.29
   2  17   4    0.58    0.26
   2  17   5    0.13    0.27
   2  17   6    0.36    0.27
   2  17   7    2.78    0.29
   2  17   8    0.19    0.28
   2  17   9    3.77    0.49
   2  17  10    0.04    0.49
   2  17  11    0.75    0.30
   2  17  12    4.24    0.35
   2  17  13    3.10    0.35
   2  17  14    0.11    0.30
   2  17  15    0.02    0.32
   2  17  16    0.00    0.44
   2  17  17    0.14    0.32
   2  17  18    6.48    0.39
   2  17  19    0.35    0.44
   2  17  20    1.49    0.35
   2  17  21    0.00    0.33
   2  18   0    5.00    0.31
   2  18   1    1.06    0.56
   2  18   2    6.17    0.30
   2  18   3    0.75    0.41
   2  18   4    8.20    0.42
   2  18   5    1.70    0.29
   2  18   6    4.47    0.31
   2  18   7    1.85    0.31
   2  18   8    0.17    0.30
   2  18   9    4.52    0.36
   2  18  10    1.61    0.35
   2  18  11    8.71    0.46
   2  18  12    1.71    0.33
   2  18  13    0.40    0.35
   2  18  14    1.62    0.35
   2  18  15    1.27    0.33
   2  18  16    5.98    0.40
   2  18  17    4.17    0.51
   2  18  18    0.48    0.33
   2  18  19    0.05    0.88
   2  18  20    0.03    0.34
   2  19   0    0.26    0.41
   2  19   1    6.38    0.37
   2  19   2    0.25    0.27
   2  19   3    0.07    0.27
   2  19   4    0.00    0.32
   2  19   5    2.15    0.32
   2  19   6    0.94    0.30
   2  19   7    2.92    0.32
   2  19   8    0.09    0.30
   2  19   9    1.40    0.32
   2  19  10    4.81    0.41
   2  19  11    1.23    0.32
   2  19  12    7.68    0.41
   2  19  13    0.00    0.33
   2  19  14    0.01    0.33
   2  19  15    0.23    0.60
   2  19  16    4.31    0.50
   2  19  17    1.25    0.34
   2  19  18    0.20    0.33
   2  19  19    1.33    0.41
   2  20   0    2.99    0.47
   2  20   1    0.37    0.43
   2  20   2    8.78    0.58
   2  20   3    1.34    0.48
   2  20   4    2.60    0.32
   2  20   5    0.42    0.29
   2  20   6    0.01    0.30
   2  20   7    3.76    0.35
   2  20   8    1.87    0.41
   2  20   9    4.41    0.36
   2  20  10    2.14    0.34
   2  20  11    1.45    0.33
   2  20  12    1.98    0.35
   2  20  13    0.00    0.46
   2  20  14    0.21    0.66
   2  20  15    0.11    0.42
   2  20  16    1.17    0.35
   2  20  17    0.73    0.35
   2  21   0    6.50    0.54
   2  21   1    0.00    0.43
   2  21   2    1.47    0.46
   2  21   3    0.78    0.45
   2  21   4    2.20    0.31
   2  21   5    3.86    0.35
   2  21   6    2.57    0.56
   2  21   7    0.45    0.31
   2  21   8    0.16    0.31
   2  21   9    0.00    0.31
   2  21  10    5.50    0.60
   2  21  11    1.14    0.34
   2  21  12    6.36    0.40
   2  21  13    5.59    0.45
   2  21  14    2.93    0.39
   2  21  15    5.76    0.42
   2  21  16    0.11    0.52
   2  22   0    0.18    0.45
   2  22   1    0.91    0.44
   2  22   2    3.02    0.48
   2  22   3    0.00    0.45
   2  22   4    2.90    0.52
   2  22   5    5.56    0.55
   2  22   6    0.96    0.31
   2  22   7    5.97    0.58
   2  22   8    1.36    0.66
   2  22   9    0.83    0.33
   2  22  10    0.08    0.33
   2  22  11    0.30    0.33
   2  22  12    1.88    0.37
   2  22  13    0.39    0.42
   2  23   0    0.44    0.45
   2  23   1    2.38    0.51
   2  23   2    1.37    0.48
   2  23   3    1.53    0.47
   2  23   4    0.00    0.46
   2  23   5    0.91    0.48
   2  23   6    0.12    0.47
   2  23   7    0.01    0.46
   2  23   8    5.60    0.59
   2  23   9    0.01    0.32
   2  23  10    0.53    0.34
   3 -22   0    2.06    0.48
   3 -22   1    0.36    0.44
   3 -22   2    0.30    0.35
   3 -22   3    0.00    0.34
   3 -21   0    0.08    0.42
   3 -21   1    0.51    0.34
   3 -21   2    2.30    0.42
   3 -21   3    0.35    0.34
   3 -21   4    0.75    0.34
   3 -21   5    4.61    0.39
   3 -21   6    0.81    0.34
   3 -21   7    0.48    0.33
   3 -21   8    1.61    0.35
   3 -20   0    1.63    0.35
   3 -20   1    2.52    0.36
   3 -20   2    0.15    0.59
   3 -20   3    0.02    0.33
   3 -20   4    0.12    0.54
   3 -20   5    0.26    0.32
   3 -20   6    1.44    0.34
   3 -20   7    1.61    0.34
   3 -20   8    1.82    0.33
   3 -20   9    0.91    0.40
   3 -20  10    3.26    0.34
   3 -19   0    6.72    0.40
   3 -19   1    0.04    0.32
   3 -19   2    3.80    0.43
   3 -19   3    3.41    0.35
   3 -19   4    0.16    0.32
   3 -19   5    0.83    0.32
   3 -19   6    4.20    0.41
   3 -19   7    1.97    0.33
   3 -19   8    0.02    0.30
   3 -19   9    0.81    0.27
   3 -19  10    0.05    0.29
   3 -19  11    1.36    0.30
   3 -19  12    0.33    0.26
   3 -19  13    1.01    0.41
   3 -18   0    0.19    0.32
   3 -18   1   10.57    0.55
   3 -18   2    3.15    0.34
   3 -18   3    8.55    0.48
   3 -18   4    0.03    0.29
   3 -18   5    0.04    0.26
   3 -18   6    2.40    0.28
   3 -18   7    1.09    0.26
   3 -18   8    3.57    0.29
   3 -18   9    0.00    0.31
   3 -18  10    0.00    0.25
   3 -18  11    1.75    0.27
   3 -18  12    1.28    1.10
   3 -18  13    2.52    0.37
   3 -18  14    0.52    0.36
   3 -17   0    2.93    0.33
   3 -17   1    0.23    0.30
   3 -17   2    0.48    0.30
   3 -17   3    5.01    0.34
   3 -17   4    0.00    0.28
   3 -17   5    1.65    0.26
   3 -17   6    0.72    0.25
   3 -17   7    0.40    0.25
   3 -17   8    0.26    0.24
   3 -17   9    5.65    0.30
   3 -17  10    0.02    0.24
   3 -17  11    1.89    0.25
   3 -17  12    0.00    0.45
   3 -17  13    0.00    0.28
   3 -17  14    2.55    0.51
   3 -17  15    0.12    0.33
   3 -17  16    1.82    0.34
   3 -16   0    0.18    0.29
   3 -16   1    1.77    0.36
   3 -16   2    5.75    0.39
   3 -16   3    2.17    0.30
   3 -16   4    5.25    0.34
   3 -16   5    0.07    0.27
   3 -16   6    1.53    0.25
   3 -16   7    0.00    0.23
   3 -16   8    0.03    0.23
   3 -16   9    0.30    0.23
   3 -16  10    0.00    0.23
   3 -16  11    0.26    0.23
   3 -16  12    0.02    0.22
   3 -16  13    0.52    0.22
   3 -16  14    0.56    0.42
   3 -16  15    0.54    0.32
   3 -16  16    0.98    0.38
   3 -16  17    0.05    0.31
   3 -15   0    0.95    0.46
   3 -15   1    6.26    0.33
   3 -15   2    0.84    0.52
   3 -15   3    0.14    0.26
   3 -15   4   10.32    0.46
   3 -15   5    2.00    0.43
   3 -15   6    0.14    0.25
   3 -15   7    0.18    0.21
   3 -15   8    5.48    0.28
   3 -15   9    0.11    0.21
   3 -15  10    2.29    0.24
   3 -15  11    4.61    0.24
   3 -15  12    2.85    0.24
   3 -15  13    1.62    0.24
   3 -15  14    3.75    0.34
   3 -15  15    0.00    0.39
   3 -15  16    0.50    0.30
   3 -15  17    3.16    0.34
   3 -15  18    2.86    0.32
   3 -15  19    1.83    0.31
   3 -14   0    0.36    0.54
   3 -14   1    0.29    0.25
   3 -14   2    0.03    0.24
   3 -14   3    0.07    0.25
   3 -14   4    0.59    0.29
   3 -14   5    0.79    0.24
   3 -14   6   17.71    0.48
   3 -14   7    0.00    0.38
   3 -14   8    3.64    0.32
   3 -14   9    0.14    0.19
   3 -14  10    0.20    0.21
   3 -14  11    0.10    0.19
   3 -14  12    0.13    0.36
   3 -14  13    0.09    0.20
   3 -14  14    0.19    0.27
   3 -14  15    0.63    0.28
   3 -14  16    1.25    0.58
   3 -14  17    0.25    0.28
   3 -14  18    0.00    0.41
   3 -14  19    0.03    0.42
   3 -14  20    0.05    0.43
   3 -13   0   17.05    0.44
   3 -13   1    2.78    0.25
   3 -13   2    4.59    0.25
   3 -13   3    0.58    0.24
   3 -13   4    2.23    0.24
   3 -13   5    2.41    0.29
   3 -13   6    1.98    0.23
   3 -13   7    9.40    0.36
   3 -13   8    0.83    0.22
   3 -13   9    0.87    0.18
   3 -13  10    0.01    0.18
   3 -13  11    5.81    0.22
   3 -13  12    9.20    0.29
   3 -13  13    5.60    0.28
   3 -13  14    9.70    0.43
   3 -13  15    0.45    0.26
   3 -13  16    1.63    0.41
   3 -13  17    4.57    0.47
   3 -13  18    0.54    0.40
   3 -13  19    1.21    0.42
   3 -13  20    3.33    0.48
   3 -13  21    7.33    0.63
   3 -12   0    6.74    0.37
   3 -12   1    6.62    0.36
   3 -12   2    0.26    0.26
   3 -12   3   30.00    0.64
   3 -12   4    9.46    0.57
   3 -12   5   29.95    0.67
   3 -12   6    1.75    0.26
   3 -12   7   11.27    0.32
   3 -12   8    0.78    0.18
   3 -12   9    0.71    0.17
   3 -12  10    0.56    0.17
   3 -12  11    0.01    0.16
   3 -12  12    0.26    0.16
   3 -12  13    0.28    0.16
   3 -12  14    2.11    0.37
   3 -12  15    0.28    0.37
   3 -12  16    0.04    0.36
   3 -12  17    2.28    0.40
   3 -12  18    1.83    0.40
   3 -12  19    2.23    0.41
   3 -12  20    3.45    0.46
   3 -12  21    0.57    0.42
   3 -12  22    3.38    0.47
   3 -11   0    1.50    0.22
   3 -11   1    5.70    0.19
   3 -11   2    1.08    0.14
   3 -11   3    3.32    0.33
   3 -11   4   58.73    1.17
   3 -11   5   42.89    0.93
   3 -11   6   38.92    0.72
   3 -11   7    2.28    0.21
   3 -11   8    1.94    0.18
   3 -11   9    0.03    0.16
   3 -11  10    7.47    0.25
   3 -11  11    0.09    0.20
   3 -11  12   13.65    0.34
   3 -11  13    0.53    0.21
   3 -11  14    9.67    0.56
   3 -11  15    5.02    0.38
   3 -11  16    0.65    0.35
   3 -11  17    2.70    0.39
   3 -11  18    0.01    0.35
   3 -11  19    4.31    0.44
   3 -11  20    0.44    0.40
   3 -11  21    0.48    0.40
   3 -11  22    1.36    0.43
   3 -11  23    4.89    0.49
   3 -10   0    2.99    0.17
   3 -10   1    1.78    0.20
   3 -10   2   16.27    0.54
   3 -10   3   18.38    0.47
   3 -10   4    1.68    0.19
   3 -10   5    6.44    0.27
   3 -10   6   89.26    1.75
   3 -10   7    0.91    0.21
   3 -10   8   17.52    0.34
   3 -10   9   12.38    0.28
   3 -10  10    1.92    0.13
   3 -10  11    3.70    0.34
   3 -10  12    0.12    0.15
   3 -10  13    6.73    0.43
   3 -10  14    0.08    0.30
   3 -10  15    0.05    0.30
   3 -10  16    0.88    0.32
   3 -10  17    3.66    0.37
   3 -10  18    1.00    0.36
   3 -10  19    0.03    0.36
   3 -10  20    7.05    0.58
   3 -10  21    0.06    0.40
   3 -10  22    0.04    0.41
   3 -10  23    2.51    0.46
   3  -9   0    8.31    0.17
   3  -9   1    5.77    0.27
   3  -9   2   19.78    0.53
   3  -9   3   20.23    0.54
   3  -9   4  102.33    1.85
   3  -9   5   17.02    0.38
   3  -9   6    7.67    0.23
   3  -9   7   14.99    0.62
   3  -9   8    3.11    0.18
   3  -9   9    0.55    0.10
   3  -9  11    0.50    0.25
   3  -9  12    0.63    0.23
   3  -9  13    1.99    0.29
   3  -9  14    0.13    0.27
   3  -9  15    0.98    0.28
   3  -9  16    4.88    0.44
   3  -9  17    1.79    0.33
   3  -9  18    6.60    0.50
   3  -9  19    0.05    0.35
   3  -9  20    3.73    0.42
   3  -9  21    6.74    0.60
   3  -9  23    0.56    0.43
   3  -9  24    0.75    0.45
   3  -8   0    1.28    0.15
   3  -8   1    5.81    0.27
   3  -8   2    0.04    0.19
   3  -8   3    2.30    0.31
   3  -8   4   52.69    1.20
   3  -8   5   17.81    0.47
   3  -8   6   59.88    0.97
   3  -8   7    0.03    0.08
   3  -8   8    4.79    0.25
   3  -8  11    9.14    0.39
   3  -8  12    0.04    0.20
   3  -8  13    1.54    0.25
   3  -8  14    3.11    0.27
   3  -8  15    2.99    0.27
   3  -8  16    0.02    0.27
   3  -8  17    0.26    0.31
   3  -8  18    0.69    0.33
   3  -8  19    0.23    0.35
   3  -8  20    0.00    0.36
   3  -8  21    3.83    0.43
   3  -8  22    0.22    0.41
   3  -8  23    2.13    0.45
   3  -8  24    1.34    0.46
   3  -8  25    0.26    0.46
   3  -7   0    6.35    0.30
   3  -7   1   21.71    0.35
   3  -7   2   17.35    1.11
   3  -7   3   12.15    0.45
   3  -7   4   11.75    0.37
   3  -7   5    5.19    0.19
   3  -7   6    6.82    0.14
   3  -7   7    6.43    0.39
   3  -7  12    1.91    0.17
   3  -7  13    0.00    0.19
   3  -7  14   25.33    0.90
   3  -7  15    2.99    0.27
   3  -7  16    3.18    0.28
   3  -7  17   14.44    0.65
   3  -7  18    0.00    0.32
   3  -7  19    9.77    0.55
   3  -7  20    0.15    0.36
   3  -7  21   11.60    0.70
   3  -7  22    0.70    0.41
   3  -7  23    0.01    0.43
   3  -7  24    8.84    0.70
   3  -7  25    0.52    0.47
   3  -6   0    0.00    0.13
   3  -6   1    4.53    0.22
   3  -6   2   55.24    0.86
   3  -6   3    1.05    0.23
   3  -6   4   87.83    1.29
   3  -6   5    8.25    0.44
   3  -6   6   48.52    1.52
   3  -6   7   33.01    1.11
   3  -6  13    0.20    0.17
   3  -6  14    2.60    0.29
   3  -6  15    2.11    0.33
   3  -6  17    3.04    0.35
   3  -6  18    0.00    0.30
   3  -6  19    0.01    0.34
   3  -6  20    5.55    0.43
   3  -6  21    4.28    0.45
   3  -6  22    4.92    0.50
   3  -6  23    1.52    0.46
   3  -6  24    3.67    0.52
   3  -6  25    0.00    0.47
   3  -6  26    0.01    0.49
   3  -5   0   25.29    0.34
   3  -5   1   16.03    0.42
   3  -5   2   85.08    1.56
   3  -5   3   27.17    0.50
   3  -5   4    4.46    0.46
   3  -5   5   70.46    2.21
   3  -5   6    4.36    0.22
   3  -5  13    3.57    0.23
   3  -5  14    3.51    0.33
   3  -5  15    4.20    0.34
   3  -5  16    1.01    0.12
   3  -5  17    3.55    0.22
   3  -5  18    0.71    0.17
   3  -5  19   34.58    0.64
   3  -5  20    0.94    0.36
   3  -5  21    1.82    0.44
   3  -5  22    3.91    0.47
   3  -5  23    4.15    0.52
   3  -5  24    7.65    0.73
   3  -5  25    0.54    0.48
   3  -5  26    0.86    0.51
   3  -4   0    7.53    0.27
   3  -4   1   24.58    0.45
   3  -4   2   51.56    0.82
   3  -4   3   19.17    0.30
   3  -4   4   17.00    0.66
   3  -4   5    7.87    0.35
   3  -4  13    1.95    0.18
   3  -4  14    0.31    0.20
   3  -4  15    5.03    0.41
   3  -4  16    0.14    0.12
   3  -4  17    0.64    0.15
   3  -4  18    1.47    0.87
   3  -4  19    4.77    0.31
   3  -4  20    3.42    0.55
   3  -4  21    0.07    0.23
   3  -4  22    0.01    0.28
   3  -4  23    0.02    0.37
   3  -4  24    1.44    0.49
   3  -4  25    2.05    0.52
   3  -4  26    0.60    0.51
   3  -4  27    5.71    0.61
   3  -3   0    4.84    0.12
   3  -3   1   74.49    1.38
   3  -3   2   52.26    1.03
   3  -3   3   56.01    0.88
   3  -3   4   20.89    0.67
   3  -3   5   31.85    0.92
   3  -3  12   16.26    0.43
   3  -3  13    0.63    0.21
   3  -3  14    0.47    0.24
   3  -3  15    7.08    0.18
   3  -3  16    1.24    0.42
   3  -3  17    2.40    0.41
   3  -3  18    0.31    0.18
   3  -3  19    9.75    0.34
   3  -3  20    4.26    0.30
   3  -3  21    0.38    0.24
   3  -3  22    1.92    0.27
   3  -3  23    1.29    0.28
   3  -3  24    1.21    0.30
   3  -3  25    0.88    0.30
   3  -3  26    0.02    0.51
   3  -3  27    0.03    0.54
   3  -2   0   33.91    0.35
   3  -2   1   47.37    0.66
   3  -2   2   64.43    0.97
   3  -2   3    4.54    0.16
   3  -2   4    6.03    0.30
   3  -2   5   13.51    0.48
   3  -2  10    1.30    0.25
   3  -2  11   30.44    0.89
   3  -2  12    5.59    0.37
   3  -2  13    0.62    0.24
   3  -2  14    0.48    0.11
   3  -2  15    0.05    0.10
   3  -2  16    2.84    0.32
   3  -2  17    0.25    0.18
   3  -2  18   23.10    0.56
   3  -2  19    0.02    0.21
   3  -2  20    0.74    0.41
   3  -2  21    3.15    0.32
   3  -2  22    5.92    0.39
   3  -2  23    0.36    0.34
   3  -2  24    3.61    0.38
   3  -2  25    2.21    0.33
   3  -2  26    2.44    0.52
   3  -2  27    1.08    0.34
   3  -1   0   23.60    0.42
   3  -1   1    1.74    0.11
   3  -1   2    9.43    0.34
   3  -1   3    0.07    0.11
   3  -1   4    8.56    0.25
   3  -1   5    2.98    0.27
   3  -1   6    3.02    0.19
   3  -1   7   13.46    0.49
   3  -1   8   14.71    0.31
   3  -1  10    3.74    0.70
   3  -1  11    3.12    0.18
   3  -1  12   11.98    0.32
   3  -1  13    1.16    0.20
   3  -1  14   15.99    0.29
   3  -1  15    0.03    0.16
   3  -1  16    1.33    0.27
   3  -1  17    1.34    0.19
   3  -1  18    1.47    0.21
   3  -1  19    0.73    0.22
   3  -1  20    8.55    0.46
   3  -1  21    0.05    0.26
   3  -1  22    3.69    0.31
   3  -1  23    2.03    0.31
   3  -1  24    1.76    0.32
   3  -1  25    0.99    0.32
   3  -1  26    0.00    0.32
   3  -1  27    0.02    0.33
   3   0   0    0.33    0.11
   3   0   1    0.04    0.17
   3   0   2   13.29    0.35
   3   0   3   11.02    0.18
   3   0   4    6.33    0.22
   3   0   5    3.54    0.17
   3   0   6  101.68    1.17
   3   0   7    0.22    0.16
   3   0   8    4.46    0.16
   3   0   9    1.31    0.17
   3   0  10    2.26    0.14
   3   0  11    3.73    0.10
   3   0  12   20.82    0.41
   3   0  13    0.53    0.33
   3   0  14    0.29    0.17
   3   0  15    1.19    0.18
   3   0  16    2.69    0.24
   3   0  17    0.36    0.20
   3   0  18   21.34    0.69
   3   0  19   31.31    0.61
   3   0  20   13.71    0.47
   3   0  21   11.71    0.48
   3   0  22   17.39    0.51
   3   0  23   21.82    0.59
   3   0  24    5.17    0.41
   3   0  25    0.00    0.71
   3   0  26    1.37    0.34
   3   0  27    0.79    0.43
   3   0  28    0.86    0.44
   3   1   0   27.10    0.68
   3   1   1    2.31    0.13
   3   1   2  142.65    2.04
   3   1   3    5.65    0.14
   3   1   4    0.01    0.12
   3   1   5    4.37    0.17
   3   1   6   28.80    0.77
   3   1   7    8.53    0.29
   3   1   8    0.12    0.12
   3   1   9    0.01    0.13
   3   1  10    2.89    0.30
   3   1  11   17.50    0.41
   3   1  12   24.87    0.87
   3   1  13   13.86    0.41
   3   1  14    6.81    0.22
   3   1  15    0.36    0.19
   3   1  16    0.09    0.20
   3   1  17    9.25    0.35
   3   1  18    3.03    0.47
   3   1  19   17.59    0.49
   3   1  20    2.68    0.31
   3   1  21    0.09    0.27
   3   1  22    1.86    0.57
   3   1  23    2.25    0.34
   3   1  24    0.78    0.31
   3   1  25    0.04    0.50
   3   1  26    0.08    0.40
   3   1  27    0.02    0.42
   3   1  28    0.14    0.45
   3   2   0    0.23    0.12
   3   2   1   67.72    0.92
   3   2   2   13.07    0.20
   3   2   3    3.71    0.24
   3   2   4    0.71    0.10
   3   2   5    5.80    0.12
   3   2   6    9.63    0.15
   3   2   7    7.31    0.47
   3   2   8    2.93    0.08
   3   2   9   71.72    0.95
   3   2  10    0.00    0.19
   3   2  11    3.52    0.31
   3   2  12    9.16    0.64
   3   2  13   15.56    0.53
   3   2  14   11.95    0.38
   3   2  15    6.25    0.23
   3   2  16    4.39    0.36
   3   2  17    0.06    0.21
   3   2  18    0.45    0.23
   3   2  19    8.29    0.36
   3   2  20    8.22    0.39
   3   2  21    0.10    0.28
   3   2  22    0.22    0.51
   3   2  23    7.48    0.41
   3   2  24    0.05    0.32
   3   2  25    0.05    0.32
   3   2  26    1.76    0.44
   3   2  27    1.06    0.44
   3   2  28    0.65    0.46
   3   3   0    0.70    0.13
   3   3   1    4.63    0.14
   3   3   2    5.97    0.35
   3   3   3   48.00    0.70
   3   3   4   12.17    0.33
   3   3   5  131.05    2.14
   3   3   6    8.26    0.20
   3   3   7   12.38    0.18
   3   3   8    6.23    0.27
   3   3   9    0.01    0.12
   3   3  10   63.33    0.93
   3   3  11    0.40    0.12
   3   3  12  151.64    2.51
   3   3  13    2.35    0.23
   3   3  14    0.00    0.21
   3   3  15    8.57    0.36
   3   3  16    1.94    0.23
   3   3  17    6.64    0.34
   3   3  18    1.86    0.26
   3   3  19    9.18    0.38
   3   3  20    1.78    0.28
   3   3  21    6.49    0.54
   3   3  22   14.85    0.75
   3   3  23    0.12    0.37
   3   3  24    1.76    0.33
   3   3  25    2.39    0.46
   3   3  26    0.23    0.43
   3   3  27    6.40    0.53
   3   3  28    0.00    0.44
   3   4   0    0.09    0.14
   3   4   1   86.60    1.86
   3   4   2    0.79    0.13
   3   4   3    4.25    0.39
   3   4   4    8.74    0.50
   3   4   5    4.98    0.11
   3   4   6   22.71    0.38
   3   4   7   12.55    0.39
   3   4   8    7.52    0.30
   3   4   9   11.88    0.18
   3   4  10    1.29    0.20
   3   4  11    0.54    0.17
   3   4  12   20.93    0.41
   3   4  13   13.12    0.34
   3   4  14    4.69    0.21
   3   4  15    2.63    0.15
   3   4  16    0.08    0.13
   3   4  17    1.63    0.25
   3   4  18    0.10    0.27
   3   4  19    2.13    0.27
   3   4  20    0.77    0.29
   3   4  21    0.12    0.29
   3   4  22    1.38    0.31
   3   4  23    0.08    0.32
   3   4  24    1.90    0.44
   3   4  25    1.31    0.44
   3   4  26    0.46    0.44
   3   4  27    0.83    0.46
   3   4  28    0.86    0.47
   3   5   0  143.48    2.79
   3   5   1  232.17    2.97
   3   5   2    3.81    0.24
   3   5   3    5.43    0.15
   3   5   4    0.12    0.12
   3   5   5   24.66    0.36
   3   5   6    7.64    0.13
   3   5   7   12.44    0.32
   3   5   8   59.88    1.06
   3   5   9    1.36    0.30
   3   5  10   76.09    0.86
   3   5  11    7.72    0.27
   3   5  12   30.26    0.61
   3   5  13    4.06    0.29
   3   5  14    6.63    0.24
   3   5  15   17.26    0.34
   3   5  16    3.30    0.19
   3   5  17    0.91    0.28
   3   5  18    0.79    0.27
   3   5  19    0.36    0.27
   3   5  20    0.06    0.29
   3   5  21    1.29    0.30
   3   5  22    1.10    0.33
   3   5  23    0.84    0.43
   3   5  24    0.02    0.42
   3   5  25    5.32    0.53
   3   5  26    0.06    0.43
   3   5  27    4.73    0.54
   3   5  28    0.07    0.46
   3   6   0   46.99    0.86
   3   6   1   16.67    0.48
   3   6   2   86.55    1.24
   3   6   3    0.24    0.18
   3   6   4    7.38    0.23
   3   6   5    0.98    0.13
   3   6   6   58.71    0.70
   3   6   7    0.03    0.16
   3   6   8   15.33    0.44
   3   6   9    2.46    0.51
   3   6  10    0.03    0.18
   3   6  11   17.49    0.34
   3   6  12    3.00    0.26
   3   6  13    1.51    0.24
   3   6  14    0.03    0.16
   3   6  15    0.00    0.16
   3   6  16    0.63    0.17
   3   6  17    0.93    0.27
   3   6  18    0.22    0.28
   3   6  19    2.56    0.32
   3   6  20    2.22    0.34
   3   6  21    3.75    0.44
   3   6  22    0.09    0.41
   3   6  23   11.62    0.65
   3   6  24    0.35    0.44
   3   6  25    4.98    0.54
   3   6  26    1.12    0.47
   3   6  27    0.56    0.47
   3   7   0    2.23    0.13
   3   7   1    0.94    0.23
   3   7   2    0.19    0.28
   3   7   3    0.67    0.22
   3   7   4   16.48    0.62
   3   7   5    0.01    0.14
   3   7   6   26.04    0.37
   3   7   7   14.16    0.52
   3   7   8   28.96    0.64
   3   7   9    0.24    0.17
   3   7  10    6.60    0.23
   3   7  11    0.54    0.19
   3   7  12    6.37    0.37
   3   7  13    0.20    0.18
   3   7  14    0.10    0.17
   3   7  15   12.96    0.32
   3   7  16    3.44    0.23
   3   7  17    0.02    0.18
   3   7  18    0.17    0.29
   3   7  19    0.39    0.29
   3   7  20    3.80    0.44
   3   7  21    0.37    0.39
   3   7  22    1.52    0.44
   3   7  23    2.64    0.45
   3   7  24    5.80    0.51
   3   7  25    1.97    0.48
   3   7  26    0.00    0.45
   3   7  27    0.29    0.48
   3   8   0    4.95    0.19
   3   8   1    0.01    0.19
   3   8   2   18.28    0.46
   3   8   3    1.92    0.17
   3   8   4   39.65    0.78
   3   8   5    3.01    0.17
   3   8   6   33.96    0.51
   3   8   7   23.72    0.34
   3   8   8    5.77    0.28
   3   8   9   25.84    0.69
   3   8  10    2.78    0.21
   3   8  11    5.68    0.22
   3   8  12    1.37    0.29
   3   8  13    5.27    0.26
   3   8  14   56.33    1.28
   3   8  15    9.18    0.45
   3   8  16    3.03    0.34
   3   8  17    1.18    0.21
   3   8  18    0.06    0.24
   3   8  19    0.60    0.39
   3   8  20    0.07    0.41
   3   8  21    3.34    0.46
   3   8  22    0.00    0.43
   3   8  23    8.43    0.55
   3   8  24    0.04    0.44
   3   8  25    0.85    0.48
   3   8  26    6.34    0.59
   3   8  27    0.01    0.46
   3   9   0    1.23    0.17
   3   9   1    9.01    0.25
   3   9   2    7.88    0.36
   3   9   3   11.99    0.38
   3   9   4    8.10    0.31
   3   9   5   12.53    0.36
   3   9   6   20.04    0.31
   3   9   7   15.40    0.28
   3   9   8    0.06    0.19
   3   9   9    0.78    0.20
   3   9  10    1.13    0.19
   3   9  11    0.00    0.18
   3   9  12    0.49    0.19
   3   9  13    0.14    0.25
   3   9  14    5.46    0.28
   3   9  15    0.03    0.19
   3   9  16    2.77    0.23
   3   9  17    0.04    0.23
   3   9  18    0.46    0.24
   3   9  19    0.27    0.40
   3   9  20    0.55    0.41
   3   9  21    1.44    0.42
   3   9  22    7.93    0.63
   3   9  23   10.24    0.67
   3   9  24    4.96    0.53
   3   9  25    0.03    0.46
   3   9  26    0.64    0.48
   3   9  27    1.42    0.51
   3  10   0    3.99    0.20
   3  10   1    0.49    0.22
   3  10   2    2.24    0.17
   3  10   3    6.47    0.20
   3  10   4   71.50    1.18
   3  10   5   13.32    0.37
   3  10   6   10.14    0.25
   3  10   7   13.99    0.34
   3  10   8    1.49    0.21
   3  10   9    1.54    0.22
   3  10  10    0.02    0.19
   3  10  11    1.33    0.20
   3  10  12    0.86    0.19
   3  10  13    1.34    0.34
   3  10  14   51.59    0.93
   3  10  15    1.04    0.42
   3  10  16    3.28    0.26
   3  10  17    0.03    0.25
   3  10  18    0.10    0.34
   3  10  19    0.00    0.40
   3  10  20    0.72    0.42
   3  10  21    9.78    0.66
   3  10  22    2.73    0.50
   3  10  23    1.25    0.45
   3  10  24    0.28    0.45
   3  10  25    1.14    0.49
   3  10  26    1.21    0.50
   3  11   0    0.53    0.17
   3  11   1    2.74    0.21
   3  11   2    0.62    0.16
   3  11   3    0.00    0.18
   3  11   4    3.04    0.22
   3  11   5   10.06    0.34
   3  11   6    4.77    0.22
   3  11   7    0.38    0.24
   3  11   8    0.43    0.20
   3  11   9    0.03    0.21
   3  11  10    5.14    0.28
   3  11  11    0.48    0.20
   3  11  12   15.11    0.97
   3  11  13    5.75    0.28
   3  11  14    0.07    0.24
   3  11  15   22.65    0.63
   3  11  16    1.41    0.26
   3  11  17    1.09    0.26
   3  11  18    0.03    0.27
   3  11  19    0.63    0.28
   3  11  20    0.86    0.42
   3  11  21    0.06    0.42
   3  11  22   24.33    0.96
   3  11  23    0.08    0.45
   3  11  24    0.02    0.45
   3  11  25    1.68    0.48
   3  11  26    0.29    0.47
   3  12   0    3.44    0.21
   3  12   1    4.85    0.36
   3  12   2    2.97    0.18
   3  12   3    0.03    0.16
   3  12   4    0.44    0.17
   3  12   5   15.19    0.42
   3  12   6    5.81    0.32
   3  12   7   10.47    0.34
   3  12   8    3.75    0.24
   3  12   9    0.56    0.21
   3  12  10    5.17    0.28
   3  12  11    0.55    0.24
   3  12  12   12.02    0.40
   3  12  13    6.50    0.31
   3  12  14    7.88    0.41
   3  12  15    0.01    0.26
   3  12  16    0.54    0.31
   3  12  17    1.83    0.29
   3  12  18    0.89    0.55
   3  12  19    0.03    0.28
   3  12  20    0.05    0.43
   3  12  21    0.00    0.44
   3  12  22    3.18    0.52
   3  12  23    0.84    0.47
   3  12  24    0.60    0.47
   3  12  25    2.09    0.49
   3  13   0    3.00    0.29
   3  13   1    4.82    0.35
   3  13   2    0.00    0.17
   3  13   3   10.26    0.26
   3  13   4    0.56    0.20
   3  13   5    0.00    0.31
   3  13   6    9.78    0.31
   3  13   7    1.07    0.23
   3  13   8    5.09    0.35
   3  13   9    0.08    0.24
   3  13  10    0.87    0.38
   3  13  11    0.59    0.27
   3  13  12    1.94    0.39
   3  13  13   16.30    0.47
   3  13  14    0.02    0.27
   3  13  15    2.90    0.31
   3  13  16    0.50    0.29
   3  13  17    0.63    0.29
   3  13  18    0.40    0.51
   3  13  19    1.26    0.31
   3  13  20   12.59    0.67
   3  13  21    0.97    0.45
   3  13  23    2.92    0.52
   3  13  24    0.03    0.46
   3  13  25    3.48    0.55
   3  14   0    1.18    0.18
   3  14   1    0.58    0.20
   3  14   2    0.02    0.20
   3  14   3    1.79    0.21
   3  14   4    7.68    0.25
   3  14   5    2.05    0.22
   3  14   6    8.18    0.34
   3  14   7    0.06    0.24
   3  14   8    2.21    0.42
   3  14   9    4.09    0.31
   3  14  10    2.77    0.38
   3  14  11    2.26    0.29
   3  14  12    0.05    0.36
   3  14  13    0.01    0.28
   3  14  14    1.45    0.55
   3  14  15    0.87    0.29
   3  14  16    0.18    0.29
   3  14  17    0.13    0.30
   3  14  18    0.00    0.30
   3  14  19    0.11    0.38
   3  14  20    0.01    0.52
   3  14  21    0.93    0.46
   3  14  22    0.02    0.45
   3  14  23    0.87    0.48
   3  14  24    0.00    0.47
   3  15   0    0.03    0.20
   3  15   1    5.04    0.32
   3  15   2    0.07    0.27
   3  15   3    9.94    0.29
   3  15   4    5.71    0.30
   3  15   5    2.46    0.27
   3  15   6   11.87    0.53
   3  15   7    0.10    0.25
   3  15   8   18.30    0.56
   3  15   9    4.51    0.31
   3  15  10    2.83    0.31
   3  15  11    1.84    0.31
   3  15  12    3.12    0.32
   3  15  13    6.91    0.59
   3  15  14    0.10    0.29
   3  15  15    0.00    0.30
   3  15  16    0.03    0.32
   3  15  17    1.98    0.33
   3  15  18    0.01    0.30
   3  15  19    0.00    0.30
   3  15  20    2.10    0.33
   3  15  21    0.00    0.45
   3  15  22    0.15    0.47
   3  15  23    1.09    0.50
   3  16   0    2.84    0.22
   3  16   1    1.67    0.23
   3  16   2    9.28    0.39
   3  16   3    1.65    0.27
   3  16   4    4.98    0.30
   3  16   5    0.13    0.26
   3  16   6   11.39    0.46
   3  16   7   14.90    0.46
   3  16   8    0.53    0.33
   3  16   9   20.98    0.57
   3  16  10    2.02    0.31
   3  16  11    4.30    0.34
   3  16  12    0.01    0.30
   3  16  13    0.58    0.30
   3  16  14    7.89    0.38
   3  16  15    2.26    0.32
   3  16  16    0.13    0.31
   3  16  17    0.00    0.31
   3  16  18    2.39    0.34
   3  16  19    2.16    0.35
   3  16  20    0.31    0.37
   3  16  21    2.12    0.49
   3  16  22    2.16    0.50
   3  17   0   18.97    0.54
   3  17   1    1.22    0.29
   3  17   2   12.39    0.44
   3  17   3    0.18    0.26
   3  17   4    2.56    0.29
   3  17   5    0.03    0.27
   3  17   6    1.82    0.29
   3  17   7    1.28    0.29
   3  17   8    0.11    0.28
   3  17   9    0.62    0.30
   3  17  10    0.37    0.30
   3  17  11   14.69    0.75
   3  17  12    0.03    0.31
   3  17  13    1.30    0.32
   3  17  14    0.67    0.33
   3  17  15    1.56    0.33
   3  17  16    0.07    0.31
   3  17  17    0.76    0.33
   3  17  18    0.23    0.33
   3  17  19    0.02    0.32
   3  17  20    0.14    0.33
   3  17  21    0.00    0.47
   3  18   0    1.77    0.28
   3  18   1    4.02    0.32
   3  18   2    3.69    0.38
   3  18   3    0.00    0.27
   3  18   4    0.21    0.37
   3  18   5    0.02    0.28
   3  18   6    0.02    0.29
   3  18   7    4.26    0.47
   3  18   8    4.90    0.36
   3  18   9   10.81    0.48
   3  18  10    1.96    0.32
   3  18  11    1.67    0.44
   3  18  12    6.03    0.40
   3  18  13    1.30    0.33
   3  18  14    7.56    0.82
   3  18  15    0.67    0.34
   3  18  16    3.99    0.38
   3  18  17    5.73    0.66
   3  18  18    3.30    0.36
   3  18  19    3.52    0.37
   3  18  20    1.02    0.48
   3  19   0    1.70    0.49
   3  19   1    0.22    0.28
   3  19   2    3.10    0.35
   3  19   3    0.24    0.34
   3  19   4   13.85    0.58
   3  19   5    0.00    0.29
   3  19   6    3.22    0.33
   3  19   7    4.14    0.45
   3  19   8    3.57    0.38
   3  19   9    2.40    0.86
   3  19  10    3.19    0.38
   3  19  11    0.03    0.31
   3  19  12    2.53    0.58
   3  19  13    4.43    0.38
   3  19  14    0.84    0.35
   3  19  15    4.78    0.39
   3  19  16    0.65    0.70
   3  19  17    5.83    0.40
   3  19  18    0.00    0.42
   3  19  19    1.53    0.36
   3  20   0    2.55    0.46
   3  20   1    1.25    0.29
   3  20   2    0.79    0.30
   3  20   3    2.23    0.31
   3  20   4    6.29    0.36
   3  20   5    6.84    0.70
   3  20   6    0.00    0.29
   3  20   7    1.18    0.31
   3  20   8    0.01    0.30
   3  20   9    1.26    0.33
   3  20  10    3.46    0.35
   3  20  11    0.03    0.32
   3  20  12    4.88    0.52
   3  20  13    0.03    0.33
   3  20  14    0.11    0.34
   3  20  15    0.07    0.33
   3  20  16    0.40    0.35
   3  20  17    3.92    0.38
   3  21   0    0.83    0.45
   3  21   1    0.50    0.44
   3  21   2    0.49    0.46
   3  21   3    0.02    0.29
   3  21   4    0.07    0.29
   3  21   5    0.15    0.30
   3  21   6    0.18    0.31
   3  21   7    0.00    0.30
   3  21   8    0.00    0.31
   3  21   9    0.70    0.33
   3  21  10    1.65    0.34
   3  21  11    4.91    0.39
   3  21  12    1.27    0.35
   3  21  13    9.14    0.50
   3  21  14    0.10    0.34
   3  21  15    1.73    0.36
   3  22   0    0.15    0.46
   3  22   1    0.16    0.45
   3  22   2    0.21    0.45
   3  22   3    0.22    0.47
   3  22   4    0.08    0.46
   3  22   5    0.02    0.31
   3  22   6    0.00    0.31
   3  22   7    1.24    0.33
   3  22   8    0.01    0.32
   3  22   9    0.09    0.32
   3  22  10    0.07    0.33
   3  22  11    0.13    0.34
   3  22  12    0.00    0.34
   3  22  13    0.05    0.33
   3  23   0    0.01    0.45
   3  23   1    1.09    0.48
   3  23   2    0.19    0.46
   3  23   3    0.86    0.48
   3  23   4    0.52    0.48
   3  23   5    0.79    0.48
   3  23   6    0.98    0.49
   3  23   7    0.53    0.33
   3  23   8    0.56    0.34
   3  23   9    0.02    0.33
   4 -21   0    5.84    0.53
   4 -21   1    0.00    0.38
   4 -21   2    0.18    0.34
   4 -21   3    1.42    0.35
   4 -21   4    0.18    0.33
   4 -21   5    0.21    0.33
   4 -20   0    0.01    0.34
   4 -20   1    2.68    0.37
   4 -20   2    0.01    0.33
   4 -20   3    0.32    0.33
   4 -20   4    0.71    0.33
   4 -20   5    0.01    0.31
   4 -20   6    2.61    0.35
   4 -20   7    0.45    0.31
   4 -20   8    0.01    0.31
   4 -20   9    0.00    0.31
   4 -19   0    0.33    0.34
   4 -19   1    1.14    0.33
   4 -19   2    0.75    0.33
   4 -19   3    1.64    0.34
   4 -19   4    0.00    0.31
   4 -19   5    0.01    0.31
   4 -19   6    1.46    0.32
   4 -19   7    0.00    0.30
   4 -19   8    0.21    0.30
   4 -19   9    0.61    0.26
   4 -19  10    0.00    0.26
   4 -19  11    0.00    0.26
   4 -18   0    2.84    0.35
   4 -18   1    2.58    0.36
   4 -18   2    0.62    0.32
   4 -18   3    1.22    0.32
   4 -18   4    0.39    0.30
   4 -18   5    0.30    0.30
   4 -18   6    4.34    0.34
   4 -18   7    0.12    0.26
   4 -18   8    9.75    0.39
   4 -18   9    1.37    0.26
   4 -18  10    0.22    0.28
   4 -18  11    0.41    0.51
   4 -18  12    0.44    0.34
   4 -18  13    0.64    0.34
   4 -17   0    0.10    0.31
   4 -17   1    1.11    0.33
   4 -17   2    0.29    0.31
   4 -17   3    0.00    0.30
   4 -17   4    0.02    0.29
   4 -17   5    2.30    0.31
   4 -17   6    8.31    0.56
   4 -17   7    0.06    0.28
   4 -17   8    0.01    0.24
   4 -17   9    2.95    0.26
   4 -17  10    1.16    0.24
   4 -17  11    2.08    0.26
   4 -17  12    0.43    0.70
   4 -17  13    0.00    0.31
   4 -17  14    0.79    0.32
   4 -17  15    2.37    0.34
   4 -16   0    1.28    0.31
   4 -16   1    1.25    0.32
   4 -16   2    0.38    0.30
   4 -16   3    5.90    0.38
   4 -16   4   21.33    0.64
   4 -16   5   19.53    0.60
   4 -16   6    3.70    0.32
   4 -16   7    0.06    0.27
   4 -16   8    0.71    0.39
   4 -16   9   15.34    0.40
   4 -16  10    0.58    0.26
   4 -16  11    3.38    0.68
   4 -16  12    2.11    0.59
   4 -16  13    8.81    0.48
   4 -16  14    1.58    0.32
   4 -16  15    0.05    0.30
   4 -16  16    4.17    0.33
   4 -16  17    0.03    0.44
   4 -15   0    8.31    0.40
   4 -15   1    3.15    0.31
   4 -15   2    1.55    0.31
   4 -15   3    6.28    0.33
   4 -15   4   11.16    0.43
   4 -15   5   15.53    0.50
   4 -15   6   14.83    0.49
   4 -15   7   27.40    0.81
   4 -15   8    8.35    0.36
   4 -15   9    0.90    0.26
   4 -15  10    2.62    0.23
   4 -15  11    2.29    0.25
   4 -15  12    5.39    0.38
   4 -15  13    0.17    0.29
   4 -15  14    4.32    0.33
   4 -15  15    0.04    0.28
   4 -15  16    2.51    0.30
   4 -15  17    0.40    0.33
   4 -15  18    0.00    0.28
   4 -14   0    5.07    0.33
   4 -14   1    4.26    0.29
   4 -14   2    4.34    0.30
   4 -14   3    2.18    0.27
   4 -14   4    8.37    0.38
   4 -14   5    2.69    0.40
   4 -14   6    0.35    0.24
   4 -14   7   14.64    0.50
   4 -14   8   50.06    1.15
   4 -14   9    2.32    0.25
   4 -14  10    0.68    0.23
   4 -14  11    0.03    0.20
   4 -14  12    3.33    0.36
   4 -14  13    0.71    0.27
   4 -14  14    4.77    0.35
   4 -14  15    0.42    0.26
   4 -14  16    0.66    0.27
   4 -14  17    2.39    0.29
   4 -14  18    0.32    0.35
   4 -14  19    0.42    0.26
   4 -13   0    4.02    0.27
   4 -13   1    3.41    0.28
   4 -13   2    0.04    0.31
   4 -13   3    8.99    0.42
   4 -13   4    3.82    0.27
   4 -13   5   21.51    1.08
   4 -13   6    1.40    0.22
   4 -13   7    4.36    0.33
   4 -13   8    8.29    0.35
   4 -13   9    3.24    0.25
   4 -13  10    0.00    0.20
   4 -13  11    2.82    0.22
   4 -13  12    0.32    0.25
   4 -13  13    1.66    0.25
   4 -13  14    0.27    0.34
   4 -13  15    4.01    0.29
   4 -13  16    0.08    0.24
   4 -13  17    0.33    0.24
   4 -13  18    4.75    0.32
   4 -13  19    0.92    0.37
   4 -13  20    3.54    0.41
   4 -12   0    1.94    0.16
   4 -12   1    0.42    0.23
   4 -12   2    0.25    0.33
   4 -12   3    3.03    0.23
   4 -12   4    4.07    0.45
   4 -12   5    5.15    0.24
   4 -12   6   10.10    0.32
   4 -12   7    9.18    0.35
   4 -12   8    4.16    0.30
   4 -12   9    7.20    0.31
   4 -12  10    0.03    0.17
   4 -12  11    0.25    0.28
   4 -12  12    3.15    0.37
   4 -12  13    0.11    0.22
   4 -12  14    1.69    0.28
   4 -12  15    0.24    0.22
   4 -12  16    1.22    0.23
   4 -12  17    0.14    0.34
   4 -12  18    0.00    0.33
   4 -12  19    0.21    0.35
   4 -12  20    0.13    0.36
   4 -12  21    0.17    0.37
   4 -11   0    0.98    0.14
   4 -11   1    2.07    0.29
   4 -11   2    0.88    0.22
   4 -11   3   11.39    0.36
   4 -11   4    4.17    0.25
   4 -11   5   21.18    0.47
   4 -11   6    1.37    0.18
   4 -11   7    6.27    0.21
   4 -11   8    0.20    0.16
   4 -11   9    2.13    0.24
   4 -11  10    0.09    0.15
   4 -11  11    0.37    0.14
   4 -11  12    0.08    0.27
   4 -11  13    2.84    0.21
   4 -11  14    0.03    0.20
   4 -11  15    0.18    0.30
   4 -11  16    0.29    0.31
   4 -11  17    1.81    0.33
   4 -11  18    0.48    0.32
   4 -11  19    0.08    0.32
   4 -11  20    1.07    0.36
   4 -11  21    0.00    0.35
   4 -11  22    0.58    0.37
   4 -10   0    6.87    0.23
   4 -10   1    0.00    0.12
   4 -10   2    5.27    0.28
   4 -10   3    3.82    0.22
   4 -10   4   20.23    0.84
   4 -10   5    8.64    0.28
   4 -10   6   50.85    1.80
   4 -10   7    1.58    0.16
   4 -10   8    3.18    0.23
   4 -10   9    3.85    0.23
   4 -10  10    3.42    0.21
   4 -10  11   12.88    0.31
   4 -10  12    1.58    0.27
   4 -10  13    2.64    0.19
   4 -10  14    7.64    0.43
   4 -10  15    4.88    0.42
   4 -10  16   14.05    0.59
   4 -10  17    1.41    0.29
   4 -10  18    5.79    0.46
   4 -10  19    2.02    0.34
   4 -10  20    3.77    0.37
   4 -10  21    4.50    0.42
   4 -10  22    0.38    0.36
   4 -10  23    2.90    0.41
   4  -9   0   28.34    0.56
   4  -9   1    6.64    0.22
   4  -9   2    3.02    0.21
   4  -9   3    1.39    0.19
   4  -9   4    9.79    0.33
   4  -9   5    4.44    0.18
   4  -9   6   10.51    0.28
   4  -9   7    1.44    0.13
   4  -9   8    2.94    0.45
   4  -9   9    0.01    0.10
   4  -9  10    1.61    0.22
   4  -9  11    1.29    0.23
   4  -9  12    2.90    0.29
   4  -9  14   14.52    0.53
   4  -9  15    0.02    0.23
   4  -9  16    1.23    0.25
   4  -9  17    7.83    0.42
   4  -9  18    0.25    0.28
   4  -9  19    0.62    0.31
   4  -9  20    4.05    0.38
   4  -9  21    0.05    0.33
   4  -9  22    0.33    0.36
   4  -9  23    2.92    0.41
   4  -9  24    0.64    0.40
   4  -8   0    0.30    0.17
   4  -8   1    2.97    0.19
   4  -8   2   19.08    0.50
   4  -8   3    6.78    0.28
   4  -8   4   49.09    1.06
   4  -8   5   21.73    0.50
   4  -8   6   63.72    1.06
   4  -8   7   22.68    0.36
   4  -8   8    4.09    0.38
   4  -8   9    8.76    0.37
   4  -8  10    0.60    0.17
   4  -8  11    0.89    0.17
   4  -8  15    0.07    0.20
   4  -8  16    6.24    0.35
   4  -8  17    0.02    0.24
   4  -8  18    0.05    0.26
   4  -8  19    3.76    0.34
   4  -8  20    0.15    0.31
   4  -8  21    6.28    0.53
   4  -8  22    0.30    0.36
   4  -8  23    0.47    0.39
   4  -8  24    1.78    0.43
   4  -7   0    3.24    0.20
   4  -7   1    7.16    0.21
   4  -7   2    4.80    0.27
   4  -7   3    7.41    0.49
   4  -7   4    8.70    0.30
   4  -7   5    1.11    0.16
   4  -7   6    2.67    0.10
   4  -7   7    6.63    0.34
   4  -7   8   22.02    0.74
   4  -7   9   17.79    0.68
   4  -7  16    2.70    0.24
   4  -7  17    0.45    0.24
   4  -7  18    0.14    0.26
   4  -7  19    1.19    0.31
   4  -7  20    1.36    0.33
   4  -7  21    0.42    0.35
   4  -7  22    3.08    0.43
   4  -7  23    1.27    0.40
   4  -7  24    7.60    0.61
   4  -7  25    0.61    0.44
   4  -6   0    0.77    0.15
   4  -6   1    4.01    0.19
   4  -6   2    2.93    0.29
   4  -6   3   12.83    0.38
   4  -6   4   46.85    0.95
   4  -6   5   65.21    1.04
   4  -6   6   89.60    1.48
   4  -6   7   14.18    0.52
   4  -6   8    1.01    0.18
   4  -6  16    0.28    0.20
   4  -6  17    0.11    0.23
   4  -6  19    0.02    0.30
   4  -6  20    0.09    0.33
   4  -6  21    2.51    0.41
   4  -6  22    0.00    0.38
   4  -6  23    0.08    0.40
   4  -6  24    0.44    0.42
   4  -6  25    0.00    0.43
   4  -5   0    5.04    0.29
   4  -5   1    1.85    0.15
   4  -5   2   19.48    0.39
   4  -5   3    6.41    0.31
   4  -5   4   80.28    1.73
   4  -5   5    8.89    0.24
   4  -5   6    1.48    0.24
   4  -5   7    4.39    0.22
   4  -5  16    1.07    0.22
   4  -5  17    2.73    0.38
   4  -5  18    1.33    0.30
   4  -5  19    0.88    0.31
   4  -5  20    0.66    0.34
   4  -5  21    0.35    0.36
   4  -5  22    8.57    0.64
   4  -5  23    0.84    0.41
   4  -5  24    3.25    0.45
   4  -5  25    0.02    0.44
   4  -5  26    2.14    0.49
   4  -4   0   20.52    0.41
   4  -4   1   14.44    0.47
   4  -4   2    4.16    0.14
   4  -4   3   10.30    0.84
   4  -4   4   25.57    0.63
   4  -4   5    9.07    0.25
   4  -4   6    7.91    0.45
   4  -4   7    7.21    0.38
   4  -4  15    0.01    0.20
   4  -4  16   16.65    0.68
   4  -4  17    0.26    0.27
   4  -4  18    7.62    0.46
   4  -4  19    0.02    0.33
   4  -4  20    0.16    0.36
   4  -4  21    0.15    0.37
   4  -4  22    1.05    0.41
   4  -4  23    0.24    0.42
   4  -4  24    0.02    0.45
   4  -4  25    0.34    0.47
   4  -4  26    0.00    0.48
   4  -3   0    7.67    0.28
   4  -3   1   23.66    0.43
   4  -3   2    2.96    0.16
   4  -3   3    0.02    0.26
   4  -3   4    1.08    0.20
   4  -3   5   11.47    0.26
   4  -3   6   20.97    0.60
   4  -3   7    1.70    0.18
   4  -3  13   43.42    0.98
   4  -3  14    0.37    0.20
   4  -3  15    7.52    0.44
   4  -3  16    0.26    0.25
   4  -3  17    0.13    0.14
   4  -3  18    8.21    0.80
   4  -3  19    6.28    0.28
   4  -3  20   17.11    0.39
   4  -3  21    0.66    0.40
   4  -3  22    0.84    0.42
   4  -3  23    3.05    0.46
   4  -3  24    0.94    0.46
   4  -3  25    3.16    0.53
   4  -3  26    0.70    0.49
   4  -3  27    1.07    0.52
   4  -2   0    2.85    0.57
   4  -2   1    5.09    0.14
   4  -2   2    1.89    0.19
   4  -2   3    0.15    0.16
   4  -2   4   12.69    0.46
   4  -2   5    2.66    0.30
   4  -2   6    0.01    0.40
   4  -2   7   37.82    0.66
   4  -2   8    8.22    0.34
   4  -2   9   54.01    1.40
   4  -2  10    0.50    0.22
   4  -2  11    5.45    0.21
   4  -2  12    0.52    0.14
   4  -2  13    1.65    0.23
   4  -2  14   24.21    0.53
   4  -2  15    8.59    0.18
   4  -2  16   36.48    0.77
   4  -2  17    0.02    0.16
   4  -2  18    0.34    0.46
   4  -2  19    1.84    0.23
   4  -2  20    3.25    0.27
   4  -2  21    5.40    0.28
   4  -2  22    0.71    0.25
   4  -2  23    3.09    0.36
   4  -2  24    0.24    0.28
   4  -2  25    0.01    0.48
   4  -2  26    0.43    0.51
   4  -2  27    0.00    0.50
   4  -1   0   13.83    0.22
   4  -1   1   28.22    0.55
   4  -1   2    0.06    0.12
   4  -1   3    4.29    0.39
   4  -1   4    0.44    0.15
   4  -1   5   13.05    0.59
   4  -1   6    1.08    0.16
   4  -1   7   21.68    0.41
   4  -1   8    6.15    0.43
   4  -1   9    1.15    0.18
   4  -1  10   50.49    1.29
   4  -1  11    5.09    0.27
   4  -1  12    7.26    0.20
   4  -1  13   31.10    0.42
   4  -1  14    0.02    0.09
   4  -1  15    0.93    0.26
   4  -1  16    0.06    0.16
   4  -1  17    5.13    0.50
   4  -1  18    0.32    0.39
   4  -1  19    1.46    0.22
   4  -1  20   23.48    0.49
   4  -1  21    0.41    0.25
   4  -1  22    4.99    0.44
   4  -1  23    0.78    0.28
   4  -1  24    0.26    0.29
   4  -1  25    1.85    0.32
   4  -1  26    0.65    0.31
   4  -1  27    0.18    0.53
   4   0   0    2.17    0.12
   4   0   1    0.48    0.14
   4   0   2    8.91    0.25
   4   0   3    1.32    0.21
   4   0   4    0.51    0.11
   4   0   5    7.25    0.35
   4   0   6    1.24    0.11
   4   0   7   48.46    0.58
   4   0   8    0.54    0.11
   4   0   9  126.95    1.96
   4   0  10    2.39    0.15
   4   0  11   10.77    0.16
   4   0  12   25.26    0.37
   4   0  13    2.76    0.14
   4   0  14   29.20    0.59
   4   0  15    0.24    0.17
   4   0  16    7.96    0.32
   4   0  17    5.51    0.22
   4   0  18    0.11    0.20
   4   0  19   11.68    0.44
   4   0  20   13.99    0.92
   4   0  21    1.39    0.28
   4   0  22    2.85    0.31
   4   0  23   24.77    0.68
   4   0  24    9.48    0.43
   4   0  25    0.23    0.30
   4   0  26    4.68    0.37
   4   0  27    0.03    0.33
   4   1   0    8.69    0.37
   4   1   1    5.67    0.20
   4   1   2    0.02    0.17
   4   1   3   66.25    1.17
   4   1   4    9.48    0.48
   4   1   5    0.16    0.09
   4   1   6    8.52    0.18
   4   1   7    3.70    0.29
   4   1   8   16.01    0.46
   4   1   9    9.28    0.71
   4   1  10    8.49    0.34
   4   1  11   15.27    0.34
   4   1  12    7.11    0.24
   4   1  13    0.94    0.15
   4   1  14    0.01    0.15
   4   1  15    1.59    0.43
   4   1  16    1.20    0.22
   4   1  17    2.67    0.23
   4   1  18    0.08    0.21
   4   1  19    0.90    0.24
   4   1  20    0.24    0.51
   4   1  21    3.05    0.46
   4   1  22    0.05    0.28
   4   1  23    0.11    0.29
   4   1  24    1.85    0.32
   4   1  25    4.49    0.35
   4   1  26    0.00    0.32
   4   1  27    3.94    0.42
   4   2   0    7.81    0.30
   4   2   1    0.95    0.22
   4   2   2  196.80    3.15
   4   2   3   11.58    0.48
   4   2   4    5.98    0.18
   4   2   5   30.83    0.70
   4   2   6    0.11    0.11
   4   2   7    7.17    0.19
   4   2   8    0.46    0.21
   4   2   9   16.49    0.44
   4   2  10    0.25    0.17
   4   2  11   18.70    0.39
   4   2  12   42.84    0.64
   4   2  13    0.88    0.31
   4   2  14   22.03    0.50
   4   2  15    2.02    0.25
   4   2  16    1.36    0.53
   4   2  17    8.00    0.34
   4   2  18    2.72    0.26
   4   2  19   19.20    0.67
   4   2  20    1.35    0.26
   4   2  21   15.83    0.53
   4   2  22    0.95    0.30
   4   2  23    2.31    0.32
   4   2  24    3.12    0.33
   4   2  25    7.95    0.44
   4   2  26    0.19    0.33
   4   2  27    0.01    0.41
   4   2  28    1.66    0.45
   4   3   0    0.35    0.21
   4   3   1   11.98    0.26
   4   3   2    2.26    0.13
   4   3   3    2.61    0.14
   4   3   4   18.75    0.24
   4   3   5   23.35    0.36
   4   3   6    2.87    0.11
   4   3   7    3.05    0.15
   4   3   8   31.74    0.71
   4   3   9    7.48    0.22
   4   3  10    0.70    0.12
   4   3  11    8.44    0.32
   4   3  12    0.12    0.18
   4   3  13    0.25    0.18
   4   3  14    0.45    0.21
   4   3  15   18.57    1.49
   4   3  16    1.05    0.23
   4   3  17   22.64    0.55
   4   3  18   12.57    0.40
   4   3  19    5.00    0.40
   4   3  20    5.40    0.52
   4   3  21    2.43    0.29
   4   3  22   21.84    0.61
   4   3  23    0.06    0.31
   4   3  24    0.11    0.32
   4   3  25    6.31    0.52
   4   3  26    1.92    0.44
   4   3  27    0.17    0.44
   4   3  28    0.00    0.44
   4   4   0    3.59    0.24
   4   4   1    0.03    0.17
   4   4   2   31.64    0.58
   4   4   3    1.47    0.30
   4   4   4    3.05    0.16
   4   4   5    0.06    0.18
   4   4   6    0.54    0.18
   4   4   7   26.18    0.34
   4   4   8    6.30    0.22
   4   4   9    1.53    0.17
   4   4  10    2.94    0.16
   4   4  11    5.39    0.19
   4   4  12    8.95    0.23
   4   4  13    6.59    0.17
   4   4  14    1.33    0.25
   4   4  15    7.57    0.36
   4   4  16    8.89    0.38
   4   4  17    1.92    0.24
   4   4  18    1.11    0.63
   4   4  19    0.33    0.26
   4   4  20    0.32    0.28
   4   4  21    1.90    0.30
   4   4  22    1.90    0.34
   4   4  23    3.06    0.35
   4   4  24    0.29    0.40
   4   4  25    1.68    0.43
   4   4  26    0.00    0.43
   4   4  27    1.05    0.45
   4   4  28    0.00    0.44
   4   5   0   22.34    0.91
   4   5   1  166.07    3.48
   4   5   2   15.16    0.21
   4   5   3    0.00    0.15
   4   5   4   18.62    0.24
   4   5   5   40.47    0.77
   4   5   6  142.11    2.09
   4   5   7    0.81    0.16
   4   5   8   15.56    0.42
   4   5   9    0.73    0.16
   4   5  10    1.23    0.16
   4   5  11   31.39    0.53
   4   5  12    6.83    0.23
   4   5  13    0.82    0.13
   4   5  14    0.07    0.14
   4   5  15    1.04    0.15
   4   5  16    0.65    0.25
   4   5  17    1.25    0.28
   4   5  18    6.45    0.33
   4   5  19    0.03    0.27
   4   5  20    2.39    0.60
   4   5  21    1.31    0.30
   4   5  22    0.02    0.31
   4   5  23    5.34    0.51
   4   5  24    0.89    0.42
   4   5  25    8.27    0.60
   4   5  26    0.02    0.42
   4   5  27    0.44    0.45
   4   6   0    0.94    0.29
   4   6   1    1.84    0.30
   4   6   2    0.12    0.16
   4   6   3    1.13    0.50
   4   6   4   36.87    0.53
   4   6   5    0.53    0.19
   4   6   6   11.61    0.34
   4   6   7   10.10    0.39
   4   6   8    8.43    0.30
   4   6   9   12.49    0.31
   4   6  10    2.91    0.32
   4   6  11    6.42    0.24
   4   6  12    0.11    0.15
   4   6  13    1.09    0.16
   4   6  14    2.48    0.16
   4   6  15    7.45    0.26
   4   6  16   20.00    0.48
   4   6  17    0.44    0.26
   4   6  18    5.31    0.30
   4   6  19    9.04    0.43
   4   6  20    0.56    0.31
   4   6  21    0.05    0.30
   4   6  22    0.20    0.41
   4   6  23    1.48    0.44
   4   6  24    2.90    0.48
   4   6  25    0.02    0.43
   4   6  26    4.15    0.50
   4   6  27    0.42    0.45
   4   7   0    2.74    0.19
   4   7   1   34.22    0.57
   4   7   2   18.36    0.37
   4   7   3    4.30    0.18
   4   7   4   28.89    0.44
   4   7   5    0.90    0.20
   4   7   6  100.42    1.65
   4   7   7    2.67    0.17
   4   7   8   27.48    0.49
   4   7   9    8.58    0.26
   4   7  10    8.62    0.27
   4   7  11    1.59    0.17
   4   7  12    0.00    0.15
   4   7  13    5.10    0.39
   4   7  14    4.39    0.22
   4   7  15    0.02    0.17
   4   7  16    8.29    0.29
   4   7  17   16.03    0.58
   4   7  18    0.08    0.38
   4   7  19    0.13    0.31
   4   7  20    2.64    0.43
   4   7  21    0.24    0.42
   4   7  22    0.29    0.41
   4   7  23   11.88    0.70
   4   7  24    3.00    0.48
   4   7  25    0.93    0.45
   4   7  26    2.31    0.50
   4   7  27    0.06    0.47
   4   8   0    1.53    0.18
   4   8   1   36.48    0.78
   4   8   2   49.56    0.63
   4   8   3   22.62    0.51
   4   8   4    0.94    0.18
   4   8   5   11.22    0.24
   4   8   6    5.93    0.33
   4   8   7  103.77    1.42
   4   8   8    5.68    0.23
   4   8   9    4.27    0.23
   4   8  10    2.06    0.17
   4   8  11    0.06    0.16
   4   8  12    3.85    0.28
   4   8  13    4.38    0.22
   4   8  14   35.62    0.55
   4   8  15    0.06    0.18
   4   8  16    1.52    0.22
   4   8  17    1.31    0.26
   4   8  18    0.37    0.31
   4   8  19    0.97    0.39
   4   8  20    1.13    0.43
   4   8  21    1.19    0.42
   4   8  22    5.52    0.48
   4   8  23    0.04    0.43
   4   8  24   12.35    0.73
   4   8  25    0.00    0.45
   4   8  26    7.55    0.60
   4   8  27    0.00    0.47
   4   9   0   19.81    0.28
   4   9   1    0.02    0.18
   4   9   2    2.76    0.18
   4   9   3    0.02    0.19
   4   9   4   12.79    0.41
   4   9   5    7.06    0.22
   4   9   6   10.75    0.29
   4   9   7    8.59    0.25
   4   9   8    7.08    0.28
   4   9   9    0.44    0.17
   4   9  10    1.64    0.18
   4   9  11    1.67    0.22
   4   9  12    1.80    0.20
   4   9  13    0.08    0.20
   4   9  14    9.57    0.32
   4   9  15    5.55    0.22
   4   9  16    4.94    0.41
   4   9  17    0.21    0.24
   4   9  18    0.10    0.39
   4   9  19    0.22    0.38
   4   9  20    0.02    0.40
   4   9  21    0.51    0.43
   4   9  22    0.00    0.40
   4   9  23    0.56    0.44
   4   9  24    1.30    0.45
   4   9  25    0.42    0.45
   4   9  26    0.21    0.47
   4   9  27    2.67    0.52
   4  10   0   30.36    0.43
   4  10   1    1.00    0.27
   4  10   2    3.38    0.24
   4  10   3    2.64    0.33
   4  10   4    0.94    0.17
   4  10   5   15.02    0.32
   4  10   6    0.00    0.16
   4  10   7    9.66    0.38
   4  10   8    0.16    0.17
   4  10   9    1.76    0.19
   4  10  10    0.74    0.17
   4  10  11    0.00    0.22
   4  10  12    1.52    0.24
   4  10  13   10.87    0.41
   4  10  14   15.75    0.34
   4  10  15   22.24    0.60
   4  10  16    1.00    0.24
   4  10  17    0.01    0.24
   4  10  18    2.21    0.45
   4  10  19    1.17    0.43
   4  10  20    0.00    0.41
   4  10  21    1.77    0.44
   4  10  22    5.81    0.51
   4  10  23    0.29    0.45
   4  10  24    7.82    0.59
   4  10  25    0.54    0.48
   4  10  26    0.24    0.49
   4  11   0    0.32    0.17
   4  11   1    0.94    0.22
   4  11   2    5.53    0.30
   4  11   3    3.04    0.22
   4  11   4    2.57    0.21
   4  11   5    0.01    0.17
   4  11   6   10.41    0.30
   4  11   7    0.53    0.17
   4  11   8   13.55    0.52
   4  11   9    0.23    0.18
   4  11  10    1.57    0.21
   4  11  11    3.77    0.21
   4  11  12    2.87    0.26
   4  11  13   16.51    0.55
   4  11  14    0.19    0.24
   4  11  15   13.78    0.61
   4  11  16    0.64    0.40
   4  11  17    0.61    0.26
   4  11  18    0.00    0.27
   4  11  19    0.07    0.41
   4  11  20    1.27    0.45
   4  11  21    0.49    0.45
   4  11  22    5.27    0.52
   4  11  23    4.16    0.51
   4  11  24    0.51    0.46
   4  11  25    0.53    0.47
   4  11  26    0.27    0.48
   4  12   0    1.69    0.18
   4  12   1    7.31    0.22
   4  12   2    1.17    0.18
   4  12   3    1.65    0.19
   4  12   4    0.01    0.17
   4  12   5   30.37    0.86
   4  12   6    1.42    0.18
   4  12   7    1.59    0.19
   4  12   8    9.18    0.32
   4  12   9    4.56    0.27
   4  12  10   12.37    0.39
   4  12  11    3.00    0.27
   4  12  12    6.15    0.56
   4  12  13    1.86    0.26
   4  12  14    0.01    0.25
   4  12  15   10.45    0.45
   4  12  16    5.11    0.30
   4  12  17    0.96    0.27
   4  12  18    1.18    0.29
   4  12  19    0.86    0.44
   4  12  20    0.03    0.43
   4  12  21    0.05    0.42
   4  12  22    1.89    0.47
   4  12  23    0.11    0.44
   4  12  24    0.00    0.47
   4  12  25    0.00    0.46
   4  13   0   10.93    0.38
   4  13   1   25.49    0.45
   4  13   2    0.23    0.20
   4  13   3    3.41    0.28
   4  13   4    2.09    0.22
   4  13   5    0.31    0.20
   4  13   6   13.06    1.18
   4  13   7    4.37    0.30
   4  13   8   16.50    0.44
   4  13   9    6.09    0.39
   4  13  10    0.11    0.24
   4  13  11   30.26    0.63
   4  13  12    2.86    0.65
   4  13  13   28.18    0.74
   4  13  14    2.58    0.29
   4  13  15    1.34    0.47
   4  13  16    0.53    0.29
   4  13  17    0.50    0.37
   4  13  18    0.65    0.28
   4  13  19    0.04    0.43
   4  13  20    1.33    0.47
   4  13  21    5.07    0.54
   4  13  22    1.61    0.47
   4  13  23    4.99    0.55
   4  13  24    0.50    0.46
   4  13  25    0.57    0.47
   4  14   0    0.12    0.21
   4  14   1    2.03    0.22
   4  14   2    0.67    0.22
   4  14   3    6.76    0.28
   4  14   4    0.36    0.30
   4  14   5    0.29    0.24
   4  14   6    2.68    0.29
   4  14   7    0.14    0.24
   4  14   8    6.57    0.39
   4  14   9    2.24    0.28
   4  14  10    1.40    0.27
   4  14  11    1.43    0.28
   4  14  12    0.93    0.27
   4  14  13    1.95    0.31
   4  14  14    1.65    0.31
   4  14  15    0.46    0.30
   4  14  16    0.00    0.32
   4  14  17    1.26    0.31
   4  14  18    2.13    0.31
   4  14  19    1.82    0.31
   4  14  20    0.02    0.44
   4  14  21    0.47    0.46
   4  14  22    0.20    0.47
   4  14  23    0.00    0.46
   4  14  24    0.14    0.46
   4  15   0    0.69    0.22
   4  15   1    5.72    0.47
   4  15   2    6.13    0.49
   4  15   3    0.03    0.25
   4  15   4    5.39    0.63
   4  15   5    0.14    0.25
   4  15   6    5.16    0.39
   4  15   7    0.06    0.53
   4  15   8    5.64    0.34
   4  15   9   11.48    0.70
   4  15  10    3.95    0.31
   4  15  11    4.74    0.61
   4  15  12    0.80    0.29
   4  15  13    2.10    0.34
   4  15  14    0.23    0.29
   4  15  15    0.03    0.30
   4  15  16    4.72    0.37
   4  15  17    0.03    0.38
   4  15  18    3.39    0.49
   4  15  19    4.54    0.40
   4  15  20    0.07    0.45
   4  15  21    4.62    0.53
   4  15  22    0.00    0.45
   4  15  23    0.00    0.46
   4  16   0    4.39    0.35
   4  16   1    7.70    0.37
   4  16   2    0.01    0.26
   4  16   3    4.13    0.99
   4  16   4    0.14    0.33
   4  16   5    0.68    0.33
   4  16   6    0.88    0.28
   4  16   7    7.90    0.39
   4  16   8    0.00    0.36
   4  16   9    0.79    0.38
   4  16  10    0.17    0.32
   4  16  11    0.20    0.30
   4  16  12    7.64    0.36
   4  16  13    0.51    0.31
   4  16  14   14.55    0.54
   4  16  15    4.63    0.35
   4  16  16    0.17    0.31
   4  16  17    1.03    0.34
   4  16  18    0.12    0.31
   4  16  19    8.18    0.86
   4  16  20    0.01    0.46
   4  16  21    0.38    0.47
   4  16  22    1.04    0.49
   4  17   0    5.11    0.33
   4  17   1    0.71    0.27
   4  17   2   10.55    0.44
   4  17   3    0.08    0.27
   4  17   4    3.84    0.31
   4  17   5    0.04    0.28
   4  17   6    0.15    0.36
   4  17   7    1.62    0.31
   4  17   8    0.44    0.45
   4  17   9    3.49    0.35
   4  17  10    1.84    0.80
   4  17  11    0.05    0.30
   4  17  12    0.02    0.30
   4  17  13    0.05    0.54
   4  17  14    2.40    0.34
   4  17  15    0.88    0.32
   4  17  16    8.26    0.49
   4  17  17    1.04    0.34
   4  17  18    0.24    0.32
   4  17  19    4.65    0.49
   4  17  20    2.98    0.51
   4  17  21    1.75    0.50
   4  18   0    0.43    0.29
   4  18   1    1.49    0.30
   4  18   2   12.12    0.46
   4  18   3    3.84    0.35
   4  18   4    5.89    0.55
   4  18   5    0.20    0.51
   4  18   6    3.19    0.33
   4  18   7    0.07    0.30
   4  18   8    0.09    0.31
   4  18   9    2.61    0.51
   4  18  10    0.00    0.31
   4  18  11    0.16    0.31
   4  18  12    0.12    0.31
   4  18  13    0.10    0.46
   4  18  14    1.18    0.68
   4  18  15   10.36    0.61
   4  18  16    0.02    0.32
   4  18  17   14.02    0.56
   4  18  18    0.87    0.40
   4  18  19    1.21    0.35
   4  18  20    0.00    0.46
   4  19   0    4.07    0.33
   4  19   1    4.18    0.36
   4  19   2    0.01    0.29
   4  19   3    4.18    0.61
   4  19   4    0.84    0.55
   4  19   5    0.44    0.29
   4  19   6    0.33    0.30
   4  19   7    0.04    0.32
   4  19   8    0.09    0.31
   4  19   9    1.78    0.36
   4  19  10    0.73    0.63
   4  19  11    0.20    0.32
   4  19  12    0.05    0.31
   4  19  13    4.26    0.73
   4  19  14    0.14    0.47
   4  19  15    0.00    0.34
   4  19  16    0.01    0.34
   4  19  17    0.35    0.58
   4  19  18    5.29    0.41
   4  19  19    1.09    0.35
   4  20   0    0.62    0.41
   4  20   1    0.44    0.29
   4  20   2    0.98    0.31
   4  20   3    4.31    0.63
   4  20   4    0.00    0.39
   4  20   5    0.33    0.31
   4  20   6    0.11    0.31
   4  20   7    2.03    0.61
   4  20   8    1.97    0.33
   4  20   9    0.28    0.33
   4  20  10    7.10    0.44
   4  20  11    0.72    0.33
   4  20  12    3.15    0.36
   4  20  13    3.44    0.39
   4  20  14    1.22    0.35
   4  20  15    3.73    0.77
   4  20  16    1.67    0.36
   4  20  17    5.58    1.15
   4  21   0    0.67    0.46
   4  21   1    1.16    0.47
   4  21   2    1.15    0.31
   4  21   3    1.90    0.33
   4  21   4    5.97    0.36
   4  21   5    1.18    0.32
   4  21   6    2.04    0.43
   4  21   7    0.88    0.49
   4  21   8    0.18    0.32
   4  21   9    1.49    0.35
   4  21  10    3.02    0.37
   4  21  11    3.27    0.38
   4  21  12    0.03    0.37
   4  21  13    5.25    0.41
   4  21  14    0.79    0.36
   4  21  15    0.26    0.35
   4  22   0    0.23    0.47
   4  22   1    1.20    0.48
   4  22   2    0.24    0.47
   4  22   3    0.41    0.48
   4  22   4    1.13    0.32
   4  22   5    0.73    0.32
   4  22   6    0.03    0.33
   4  22   7    0.03    0.32
   4  22   8    0.51    0.74
   4  22   9    0.00    0.40
   4  22  10    0.01    0.33
   4  22  11    0.27    0.34
   4  22  12    0.48    0.48
   4  23   0    1.42    0.50
   4  23   1    4.94    0.57
   4  23   2    5.87    0.58
   4  23   3    0.36    0.48
   4  23   4    4.92    0.57
   4  23   5    0.97    0.48
   4  23   6    1.66    0.35
   4  23   7    0.35    0.33
   4  23   8    2.30    0.36
   5 -20   0    0.03    0.34
   5 -20   1    1.84    0.37
   5 -20   2    0.02    0.33
   5 -20   3    0.00    0.33
   5 -20   4    0.71    0.33
   5 -20   5    0.40    0.33
   5 -20   6    1.61    0.34
   5 -19   0    0.62    0.35
   5 -19   1    6.55    0.42
   5 -19   2    0.00    0.33
   5 -19   3    0.01    0.53
   5 -19   4    0.70    0.33
   5 -19   5    0.29    0.32
   5 -19   6    6.03    0.38
   5 -19   7    1.42    0.44
   5 -19   8   10.43    0.48
   5 -19   9    0.16    0.26
   5 -19  10    1.28    0.38
   5 -18   0    1.42    0.36
   5 -18   1    0.00    0.33
   5 -18   2    5.14    0.58
   5 -18   3    0.00    0.32
   5 -18   4    2.95    0.35
   5 -18   5    0.31    0.32
   5 -18   6    1.47    0.32
   5 -18   7    2.25    0.32
   5 -18   8    3.64    0.34
   5 -18   9    6.26    0.40
   5 -18  10    4.95    0.44
   5 -18  11    0.33    0.35
   5 -18  12    0.17    0.34
   5 -17   0    0.03    0.32
   5 -17   1    0.96    0.33
   5 -17   2    0.68    0.39
   5 -17   3    1.90    0.32
   5 -17   4    0.62    0.37
   5 -17   5    4.28    0.35
   5 -17   6    0.01    0.29
   5 -17   7    5.39    0.35
   5 -17   8    0.25    0.43
   5 -17   9    1.06    0.29
   5 -17  10    7.78    0.36
   5 -17  11    1.36    0.34
   5 -17  12    0.47    0.33
   5 -17  13    0.46    0.32
   5 -17  14    1.35    0.32
   5 -16   0    1.23    0.32
   5 -16   1    0.01    0.30
   5 -16   2    0.00    0.30
   5 -16   3    8.48    0.43
   5 -16   4    0.96    0.30
   5 -16   5    7.58    0.67
   5 -16   6    2.38    0.30
   5 -16   7    4.21    0.43
   5 -16   8    0.58    0.27
   5 -16   9    6.17    0.42
   5 -16  10    0.64    0.43
   5 -16  11    3.36    0.36
   5 -16  12    0.05    0.31
   5 -16  13    0.20    0.29
   5 -16  14    0.03    0.30
   5 -16  15    1.02    0.30
   5 -16  16    0.00    0.28
   5 -15   0    0.17    0.40
   5 -15   1    0.05    0.29
   5 -15   2    0.51    0.29
   5 -15   3    0.10    0.28
   5 -15   4    0.03    0.28
   5 -15   5    4.57    0.32
   5 -15   6    0.03    0.26
   5 -15   7    2.74    0.28
   5 -15   8    6.45    0.37
   5 -15   9    0.00    0.30
   5 -15  10    0.71    0.25
   5 -15  11    2.75    0.43
   5 -15  12    0.19    0.30
   5 -15  13    1.59    0.30
   5 -15  14    0.02    0.38
   5 -15  15    0.38    0.27
   5 -15  16    0.02    0.26
   5 -15  17    0.00    0.26
   5 -14   0    1.91    0.30
   5 -14   1    0.01    0.28
   5 -14   2    3.39    0.30
   5 -14   3    1.26    0.28
   5 -14   4    1.76    0.41
   5 -14   5    5.43    0.36
   5 -14   6   40.28    0.96
   5 -14   7    6.54    0.34
   5 -14   8   14.63    0.44
   5 -14   9    5.42    0.28
   5 -14  10    1.26    0.30
   5 -14  11    0.00    0.38
   5 -14  12    0.02    0.36
   5 -14  13    0.64    0.27
   5 -14  14    0.01    0.29
   5 -14  15    0.05    0.25
   5 -14  16    0.00    0.24
   5 -14  17    0.01    0.24
   5 -14  18    0.39    0.24
   5 -13   0    1.42    0.28
   5 -13   1    2.77    0.29
   5 -13   2    1.62    0.27
   5 -13   3    2.28    0.27
   5 -13   4    1.10    0.25
   5 -13   5    0.09    0.27
   5 -13   6    0.01    0.30
   5 -13   7    7.54    0.32
   5 -13   8   35.91    1.05
   5 -13   9    0.11    0.22
   5 -13  10   12.99    0.40
   5 -13  11   12.34    0.62
   5 -13  12    0.77    0.35
   5 -13  13   11.15    0.63
   5 -13  14    1.68    0.25
   5 -13  15    5.78    0.35
   5 -13  16    0.01    0.22
   5 -13  17    1.01    0.23
   5 -13  18    0.53    0.22
   5 -13  19    0.08    0.21
   5 -13  20    0.02    0.21
   5 -12   0    0.60    0.26
   5 -12   1    2.54    0.34
   5 -12   2    0.77    0.41
   5 -12   3    0.00    0.22
   5 -12   4    8.71    0.52
   5 -12   5    0.70    0.29
   5 -12   6    1.35    0.23
   5 -12   7    0.68    0.41
   5 -12   8    0.22    0.26
   5 -12   9    9.42    0.33
   5 -12  10    0.93    0.29
   5 -12  11    2.38    0.35
   5 -12  12    0.02    0.31
   5 -12  13    0.03    0.30
   5 -12  14    3.58    0.28
   5 -12  15    0.93    0.22
   5 -12  16    3.36    0.31
   5 -12  17    0.08    0.26
   5 -12  18    0.03    0.40
   5 -12  19    0.30    0.29
   5 -12  20    0.18    0.20
   5 -12  21    0.30    0.30
   5 -11   0    0.11    0.23
   5 -11   1    8.71    0.38
   5 -11   2    0.82    0.39
   5 -11   3    1.39    0.42
   5 -11   4    1.05    0.21
   5 -11   5    2.12    0.21
   5 -11   6   10.04    0.37
   5 -11   7    0.23    0.18
   5 -11   8    5.70    0.39
   5 -11   9    1.40    0.35
   5 -11  10    8.13    0.28
   5 -11  11    6.30    0.43
   5 -11  12    0.09    0.28
   5 -11  13    5.57    0.44
   5 -11  14    0.28    0.25
   5 -11  15    4.79    0.27
   5 -11  16    0.17    0.18
   5 -11  17    4.39    0.39
   5 -11  18    4.63    0.26
   5 -11  19    0.67    0.27
   5 -11  20    0.46    0.28
   5 -11  21    0.05    0.29
   5 -10   0    5.76    0.20
   5 -10   1    0.11    0.23
   5 -10   2    2.51    0.30
   5 -10   3    2.98    0.48
   5 -10   4    3.26    0.21
   5 -10   5    0.60    0.18
   5 -10   6    4.61    0.30
   5 -10   7    0.39    0.26
   5 -10   8    0.17    0.15
   5 -10   9    0.83    0.15
   5 -10  10    0.03    0.22
   5 -10  11    5.86    0.42
   5 -10  12    0.14    0.24
   5 -10  13    0.04    0.23
   5 -10  14    1.13    0.23
   5 -10  15    0.39    0.16
   5 -10  16    5.85    0.26
   5 -10  17    3.65    0.34
   5 -10  18    1.65    0.25
   5 -10  19    1.83    0.26
   5 -10  20    2.33    0.30
   5 -10  21    3.39    0.32
   5 -10  22    0.32    0.30
   5  -9   0   12.96    0.28
   5  -9   1    0.17    0.14
   5  -9   2    1.54    0.47
   5  -9   3    1.06    0.21
   5  -9   4    3.09    0.30
   5  -9   5   29.23    0.97
   5  -9   6   24.92    1.15
   5  -9   7   18.11    0.46
   5  -9   8    9.34    0.28
   5  -9   9    4.43    0.48
   5  -9  10    2.27    0.26
   5  -9  11    0.41    0.22
   5  -9  12    0.88    0.21
   5  -9  13    0.12    0.19
   5  -9  20    0.33    0.25
   5  -9  21    0.70    0.29
   5  -9  22    1.31    0.32
   5  -9  23    0.40    0.33
   5  -8   0    8.48    0.27
   5  -8   1    2.66    0.22
   5  -8   2   16.10    0.47
   5  -8   3    0.50    0.18
   5  -8   4   34.90    0.60
   5  -8   5   12.91    0.36
   5  -8   6   28.92    0.73
   5  -8   7   10.97    0.39
   5  -8   8    0.53    0.14
   5  -8   9    0.47    0.23
   5  -8  10    0.15    0.20
   5  -8  11    1.75    0.21
   5  -8  20    0.50    0.27
   5  -8  21    2.53    0.31
   5  -8  22    0.35    0.31
   5  -8  23    0.66    0.34
   5  -8  24    0.01    0.34
   5  -7   0   17.51    0.33
   5  -7   1   29.59    0.44
   5  -7   2    4.01    0.24
   5  -7   3    2.23    0.25
   5  -7   4    3.21    0.20
   5  -7   5    0.05    0.17
   5  -7   6    3.82    0.21
   5  -7   7    9.30    0.17
   5  -7   8    0.93    0.10
   5  -7   9   10.75    0.50
   5  -7  10    0.73    0.19
   5  -7  20    2.68    0.31
   5  -7  21    1.19    0.31
   5  -7  22    1.24    0.33
   5  -7  23    0.26    0.34
   5  -7  24    0.00    0.36
   5  -6   0    0.07    0.15
   5  -6   1    0.99    0.17
   5  -6   2    0.00    0.26
   5  -6   3   24.40    0.51
   5  -6   4    0.04    0.17
   5  -6   5   29.84    0.64
   5  -6   6    6.39    0.28
   5  -6   7    0.51    0.12
   5  -6   8    0.00    0.22
   5  -6   9    7.12    0.36
   5  -6  10   10.23    0.42
   5  -6  19    0.49    0.26
   5  -6  20    0.36    0.29
   5  -6  21    0.51    0.31
   5  -6  22    4.23    0.39
   5  -6  23    2.37    0.39
   5  -6  24    2.33    0.41
   5  -6  25    0.32    0.41
   5  -5   0   23.90    0.53
   5  -5   1   28.60    0.42
   5  -5   2    9.99    0.27
   5  -5   3   38.39    0.98
   5  -5   4   66.51    1.15
   5  -5   5    4.39    0.24
   5  -5   6   33.39    0.61
   5  -5   7    0.35    0.13
   5  -5   8    2.44    0.23
   5  -5   9    0.06    0.18
   5  -5  17    2.64    0.23
   5  -5  18    3.73    0.28
   5  -5  19    1.21    0.29
   5  -5  20    7.25    0.51
   5  -5  21    7.87    0.53
   5  -5  22    1.95    0.37
   5  -5  23    3.15    0.44
   5  -5  24    0.00    0.39
   5  -5  25    2.84    0.44
   5  -4   0   11.47    0.35
   5  -4   1    6.74    0.29
   5  -4   2    6.22    0.18
   5  -4   3    1.95    0.26
   5  -4   4   12.79    0.46
   5  -4   5   16.29    0.32
   5  -4   6    0.03    0.16
   5  -4   7   19.44    0.37
   5  -4   8    0.01    0.22
   5  -4   9    8.68    0.35
   5  -4  10   13.96    0.50
   5  -4  15    0.48    0.13
   5  -4  16   15.61    0.39
   5  -4  17    0.00    0.25
   5  -4  18    0.44    0.28
   5  -4  19    1.46    0.31
   5  -4  20    0.29    0.33
   5  -4  21    1.33    0.38
   5  -4  22    0.02    0.37
   5  -4  23    0.48    0.40
   5  -4  24    0.06    0.40
   5  -4  25    1.09    0.43
   5  -4  26    0.20    0.44
   5  -3   0    0.10    0.16
   5  -3   1   11.28    0.19
   5  -3   2    0.03    0.14
   5  -3   3    4.38    0.20
   5  -3   4    3.88    0.18
   5  -3   5    3.51    0.28
   5  -3   6   52.96    1.21
   5  -3   7    0.65    0.11
   5  -3   8    1.22    0.23
   5  -3   9   16.02    0.54
   5  -3  10   35.71    0.78
   5  -3  11   35.55    0.89
   5  -3  12    0.18    0.12
   5  -3  13    2.87    0.22
   5  -3  14    0.04    0.19
   5  -3  15    0.85    0.16
   5  -3  16    1.59    0.19
   5  -3  17    2.20    0.29
   5  -3  18    1.00    0.32
   5  -3  19    0.12    0.32
   5  -3  20    4.31    0.54
   5  -3  21    4.95    0.43
   5  -3  22    2.88    0.41
   5  -3  23    8.04    0.62
   5  -3  24    1.62    0.45
   5  -3  25    5.50    0.51
   5  -3  26    3.22    0.50
   5  -2   0    0.85    0.25
   5  -2   1    3.78    0.27
   5  -2   2    1.18    0.25
   5  -2   3    9.48    0.61
   5  -2   4    3.42    0.37
   5  -2   5    2.08    0.17
   5  -2   6    3.75    0.20
   5  -2   7    0.12    0.11
   5  -2   8    4.05    0.12
   5  -2   9   11.32    0.60
   5  -2  10    0.66    0.17
   5  -2  11    1.98    0.18
   5  -2  12   11.39    1.18
   5  -2  13    1.80    0.25
   5  -2  14   21.04    0.47
   5  -2  15    0.24    0.10
   5  -2  16    3.37    0.27
   5  -2  17    2.66    0.23
   5  -2  18    0.34    0.18
   5  -2  19    6.07    0.36
   5  -2  20    0.67    0.37
   5  -2  21    2.05    0.43
   5  -2  22   10.99    0.66
   5  -2  23    0.18    0.43
   5  -2  24    5.00    0.54
   5  -2  25    0.11    0.45
   5  -2  26    2.21    0.50
   5  -1   0    2.85    0.18
   5  -1   1    4.71    0.16
   5  -1   2    6.02    0.34
   5  -1   3    9.66    0.19
   5  -1   4   14.15    0.70
   5  -1   5    1.92    0.24
   5  -1   6   20.49    0.60
   5  -1   7    1.19    0.22
   5  -1   8    1.99    0.19
   5  -1   9   29.37    0.34
   5  -1  10    0.45    0.09
   5  -1  11    9.04    0.19
   5  -1  12    1.64    0.20
   5  -1  13    0.61    0.14
   5  -1  14    5.33    0.63
   5  -1  15    2.61    0.19
   5  -1  16    4.97    0.24
   5  -1  17    2.59    0.23
   5  -1  18    0.71    0.19
   5  -1  19    2.78    0.24
   5  -1  20    0.12    0.22
   5  -1  21    0.01    0.23
   5  -1  22    1.47    0.27
   5  -1  23    0.82    0.44
   5  -1  24    1.45    0.47
   5  -1  25    0.47    0.48
   5  -1  26    2.91    0.53
   5  -1  27    1.18    0.51
   5   0   0   13.72    0.39
   5   0   1    1.83    0.16
   5   0   2   10.17    0.29
   5   0   3    3.31    0.27
   5   0   4    4.45    0.15
   5   0   5    3.68    0.11
   5   0   6    0.86    0.21
   5   0   7    2.06    0.23
   5   0   8   11.45    0.51
   5   0   9   41.98    0.65
   5   0  10    9.98    0.25
   5   0  11   16.49    0.38
   5   0  12   29.10    0.65
   5   0  13    3.56    0.28
   5   0  14   13.51    0.47
   5   0  15   13.19    0.26
   5   0  16    2.71    0.21
   5   0  17    6.64    0.31
   5   0  18    1.52    0.22
   5   0  19    7.95    0.30
   5   0  20    0.00    0.23
   5   0  21    1.19    0.27
   5   0  22    1.82    0.63
   5   0  23    2.79    0.30
   5   0  24   10.00    0.45
   5   0  25    0.13    0.30
   5   0  26    0.00    0.50
   5   0  27    1.20    0.53
   5   1   0    0.98    0.16
   5   1   1    2.16    0.46
   5   1   2    9.23    0.41
   5   1   3    3.25    0.16
   5   1   4    1.21    0.14
   5   1   5    1.19    0.22
   5   1   6    0.06    0.39
   5   1   7    0.02    0.18
   5   1   8   21.21    0.44
   5   1   9    0.57    0.16
   5   1  10    3.37    0.20
   5   1  11   11.62    0.25
   5   1  12    0.11    0.15
   5   1  13    0.21    0.21
   5   1  14    1.82    0.16
   5   1  15    1.40    0.16
   5   1  16    0.40    0.20
   5   1  17    0.02    0.20
   5   1  18    2.86    0.29
   5   1  19    3.98    0.35
   5   1  20    1.56    0.27
   5   1  21    1.01    0.27
   5   1  22    5.36    0.75
   5   1  23    1.09    0.51
   5   1  24    1.00    0.30
   5   1  25    6.28    0.44
   5   1  26    0.86    0.32
   5   1  27    4.27    0.38
   5   2   0   10.26    0.59
   5   2   1   14.70    0.19
   5   2   2   52.71    0.81
   5   2   3   49.98    1.07
   5   2   4    0.01    0.17
   5   2   5    0.19    0.39
   5   2   6    1.45    0.34
   5   2   7    1.40    0.14
   5   2   8   26.17    0.51
   5   2   9    2.36    0.18
   5   2  10   74.25    1.13
   5   2  11    1.19    0.16
   5   2  12   16.85    0.38
   5   2  13    5.64    0.33
   5   2  14   15.01    0.96
   5   2  15   18.20    1.36
   5   2  16    2.14    0.22
   5   2  17    5.75    0.36
   5   2  18    0.15    0.24
   5   2  19    0.88    0.25
   5   2  20    1.44    0.28
   5   2  21    0.32    0.27
   5   2  22    1.90    0.31
   5   2  23    0.27    0.29
   5   2  24    0.99    0.32
   5   2  25    0.12    0.32
   5   2  26    7.03    0.41
   5   2  27    2.86    0.46
   5   3   0    2.16    0.17
   5   3   1   28.37    0.51
   5   3   2    8.10    0.35
   5   3   3    8.64    0.54
   5   3   4    0.14    0.32
   5   3   5   11.46    0.58
   5   3   6    3.12    0.18
   5   3   7    9.95    0.25
   5   3   8   28.78    0.48
   5   3   9    4.60    0.16
   5   3  10    0.94    0.22
   5   3  11   29.06    0.51
   5   3  12    0.04    0.17
   5   3  13    4.27    0.29
   5   3  14   11.69    0.38
   5   3  15    5.20    0.61
   5   3  16    7.62    0.24
   5   3  17    0.16    0.23
   5   3  18   22.08    0.62
   5   3  19    3.25    0.56
   5   3  20    1.50    0.27
   5   3  21    1.01    0.36
   5   3  22    0.46    0.29
   5   3  23    4.83    0.34
   5   3  24    0.66    0.31
   5   3  25    5.51    0.38
   5   3  26    0.48    0.41
   5   3  27    1.28    0.44
   5   4   0    0.00    0.19
   5   4   1   12.93    0.39
   5   4   2    0.19    0.26
   5   4   3    0.10    0.24
   5   4   4   17.20    0.38
   5   4   5    1.53    0.17
   5   4   6   20.41    0.82
   5   4   7   20.64    0.31
   5   4   8   23.56    0.83
   5   4   9   29.56    0.40
   5   4  10   12.81    0.27
   5   4  11    1.19    0.12
   5   4  12    0.02    0.11
   5   4  13    0.87    0.20
   5   4  14    4.64    0.68
   5   4  15    0.58    0.21
   5   4  16    0.73    0.23
   5   4  17    0.17    0.24
   5   4  18    4.31    0.28
   5   4  19    0.29    0.27
   5   4  20    1.29    0.32
   5   4  21    0.60    0.30
   5   4  22    0.69    0.47
   5   4  23    0.11    0.31
   5   4  24    1.46    0.37
   5   4  25    0.37    0.42
   5   4  26    8.73    0.62
   5   4  27    1.56    0.46
   5   5   0    2.38    0.60
   5   5   1    0.02    0.22
   5   5   2   27.95    0.35
   5   5   3    5.36    0.20
   5   5   4    8.64    0.24
   5   5   5   13.94    0.33
   5   5   6   24.46    0.36
   5   5   7    2.19    0.26
   5   5   8    2.70    0.16
   5   5   9   58.95    0.89
   5   5  10    1.54    0.20
   5   5  11    1.80    0.14
   5   5  12    1.80    0.14
   5   5  13    0.95    0.15
   5   5  14    0.76    0.15
   5   5  15    0.00    0.20
   5   5  16   28.19    0.67
   5   5  17    0.30    0.25
   5   5  18    8.70    0.43
   5   5  19    3.06    0.29
   5   5  20    0.73    0.30
   5   5  21    1.30    0.31
   5   5  22    8.53    0.44
   5   5  23    8.46    0.44
   5   5  24    0.44    0.42
   5   5  25    0.00    0.43
   5   5  26    2.36    0.47
   5   5  27    0.60    0.45
   5   6   0   14.16    0.44
   5   6   1   14.50    0.55
   5   6   2   19.70    0.52
   5   6   3    3.69    0.20
   5   6   4   23.16    0.46
   5   6   5    7.26    0.55
   5   6   6    1.47    0.22
   5   6   7    0.01    0.16
   5   6   8    0.98    0.17
   5   6   9    3.89    0.20
   5   6  10    1.44    0.16
   5   6  11    0.49    0.16
   5   6  12    0.47    0.14
   5   6  13    0.38    0.14
   5   6  14    0.62    0.14
   5   6  15    2.78    0.46
   5   6  16    1.33    0.27
   5   6  17   12.08    0.44
   5   6  18    3.82    0.29
   5   6  19    0.02    0.35
   5   6  20    0.12    0.30
   5   6  21    0.62    0.31
   5   6  22    1.83    0.43
   5   6  23    0.67    0.42
   5   6  24    6.72    0.54
   5   6  25    0.60    0.44
   5   6  26    3.02    0.49
   5   6  27    0.49    0.47
   5   7   0    0.72    0.21
   5   7   1    7.89    0.30
   5   7   2    0.61    0.19
   5   7   3    0.54    0.20
   5   7   4   14.88    0.30
   5   7   5    2.94    0.19
   5   7   6    7.34    0.30
   5   7   7    2.49    0.18
   5   7   8    0.00    0.16
   5   7   9   11.19    0.30
   5   7  10    0.31    0.16
   5   7  11    0.03    0.16
   5   7  12    0.56    0.15
   5   7  13    3.41    0.18
   5   7  14    0.11    0.15
   5   7  15    0.01    0.17
   5   7  16   20.60    0.60
   5   7  17    0.11    0.28
   5   7  18    1.06    0.29
   5   7  19    0.64    0.29
   5   7  20    2.85    0.34
   5   7  21    1.11    0.41
   5   7  22    0.94    0.42
   5   7  23    6.00    0.52
   5   7  24    1.88    0.45
   5   7  25    2.56    0.47
   5   7  26    2.89    0.50
   5   7  27    1.34    0.47
   5   8   0    3.81    0.50
   5   8   1   15.90    0.42
   5   8   2    1.27    0.19
   5   8   3    2.13    0.24
   5   8   4   15.82    0.44
   5   8   5   63.20    1.03
   5   8   6    5.23    0.27
   5   8   7   13.61    0.33
   5   8   8    0.15    0.16
   5   8   9    0.39    0.16
   5   8  10    3.70    0.26
   5   8  11    0.35    0.16
   5   8  12   20.11    0.32
   5   8  13    0.64    0.23
   5   8  14    0.06    0.18
   5   8  15   20.44    0.42
   5   8  16    1.03    0.30
   5   8  17    8.22    0.44
   5   8  18    0.95    0.48
   5   8  19    3.61    0.43
   5   8  20    0.03    0.39
   5   8  21    3.25    0.46
   5   8  22    5.30    0.50
   5   8  23    4.92    0.51
   5   8  24    7.36    0.58
   5   8  25    4.47    0.52
   5   8  26    1.53    0.48
   5   9   0    0.28    0.19
   5   9   1   44.89    0.74
   5   9   2    1.22    0.18
   5   9   3    8.25    0.24
   5   9   4    2.39    0.30
   5   9   5   29.55    0.49
   5   9   6    3.51    0.21
   5   9   7    9.60    0.33
   5   9   8    2.93    0.23
   5   9   9    1.37    0.22
   5   9  10    0.62    0.17
   5   9  11    0.77    0.19
   5   9  12   13.98    0.32
   5   9  13   12.34    0.26
   5   9  14    5.45    0.23
   5   9  15   10.87    0.39
   5   9  16    0.01    0.22
   5   9  17    0.19    0.38
   5   9  18    0.34    0.40
   5   9  19    0.22    0.40
   5   9  20    0.29    0.41
   5   9  21    0.17    0.41
   5   9  22    0.11    0.42
   5   9  23    0.01    0.42
   5   9  24    4.18    0.51
   5   9  25    0.36    0.45
   5   9  26    1.13    0.48
   5  10   0   30.05    0.56
   5  10   1   23.52    0.48
   5  10   2    3.60    0.19
   5  10   3   48.79    0.67
   5  10   4    7.76    0.30
   5  10   5   32.46    0.53
   5  10   6    6.16    0.25
   5  10   7    2.92    0.20
   5  10   8   26.67    0.46
   5  10   9    0.26    0.17
   5  10  10   35.08    0.87
   5  10  11    0.56    0.22
   5  10  12    0.87    0.18
   5  10  13    3.73    0.25
   5  10  14    5.32    0.37
   5  10  15   18.08    0.47
   5  10  16    2.82    0.33
   5  10  17    0.38    0.39
   5  10  18    0.08    0.40
   5  10  19    3.82    0.48
   5  10  20    0.00    0.41
   5  10  21    1.39    0.43
   5  10  22    3.38    0.47
   5  10  23    2.83    0.49
   5  10  24    1.00    0.48
   5  10  25    1.87    0.48
   5  10  26    0.77    0.48
   5  11   0   18.05    0.92
   5  11   1    3.37    0.21
   5  11   2    2.70    0.19
   5  11   3    4.96    0.39
   5  11   4    0.11    0.17
   5  11   5    0.71    0.19
   5  11   6    3.89    0.23
   5  11   7    0.18    0.18
   5  11   8    3.14    0.32
   5  11   9    9.43    0.23
   5  11  10    0.60    0.21
   5  11  11   22.24    0.59
   5  11  12    2.06    0.23
   5  11  13    0.35    0.24
   5  11  14    0.45    0.30
   5  11  15    1.30    0.43
   5  11  16    0.16    0.25
   5  11  17    2.28    0.29
   5  11  18    0.82    0.41
   5  11  19    0.38    0.42
   5  11  20    0.74    0.43
   5  11  21    3.89    0.50
   5  11  22    0.00    0.44
   5  11  23    6.73    0.56
   5  11  24    0.03    0.44
   5  11  25    1.34    0.48
   5  12   0    0.15    0.26
   5  12   1    2.07    0.22
   5  12   2    3.36    0.24
   5  12   3    2.77    0.21
   5  12   4    0.16    0.21
   5  12   5    2.55    0.25
   5  12   6    0.97    0.23
   5  12   7    0.27    0.25
   5  12   8    0.91    0.21
   5  12   9    0.20    0.23
   5  12  10   25.32    0.80
   5  12  11    4.63    0.26
   5  12  12    0.56    0.25
   5  12  13    4.55    0.32
   5  12  14    0.37    0.26
   5  12  15    0.15    0.26
   5  12  16    1.48    0.28
   5  12  17    0.04    0.27
   5  12  18    5.99    0.55
   5  12  19    1.99    0.47
   5  12  20    3.64    0.49
   5  12  21    0.89    0.45
   5  12  22    0.00    0.44
   5  12  23    0.70    0.46
   5  12  24    0.48    0.48
   5  12  25    0.00    0.46
   5  13   0    0.37    0.21
   5  13   1    1.03    0.22
   5  13   2    9.60    0.37
   5  13   3    3.72    0.28
   5  13   4   13.63    0.43
   5  13   5    0.32    0.28
   5  13   6    2.72    0.25
   5  13   7    0.32    0.25
   5  13   8    1.48    0.26
   5  13   9   13.88    0.43
   5  13  10    0.02    0.27
   5  13  11   28.55    0.91
   5  13  12    1.03    0.58
   5  13  13   10.12    0.57
   5  13  14    9.05    0.46
   5  13  15    1.08    0.29
   5  13  16   10.53    0.88
   5  13  17    1.01    0.30
   5  13  18    1.21    0.46
   5  13  19    1.22    0.45
   5  13  20    1.89    0.48
   5  13  21    1.01    0.46
   5  13  22    0.30    0.45
   5  13  23    3.10    0.51
   5  13  24    0.21    0.47
   5  14   0    0.09    0.27
   5  14   1   23.24    0.73
   5  14   2    6.06    0.38
   5  14   3    0.29    0.25
   5  14   4    5.05    0.29
   5  14   5    2.97    0.30
   5  14   6    2.07    0.29
   5  14   7    0.00    0.34
   5  14   8    2.63    0.28
   5  14   9    0.96    0.28
   5  14  10    5.47    0.41
   5  14  11    6.25    0.34
   5  14  12    0.51    0.29
   5  14  13    5.58    0.37
   5  14  14    0.00    0.29
   5  14  15    1.23    0.29
   5  14  16    0.12    0.29
   5  14  17   15.58    0.49
   5  14  18    9.67    0.65
   5  14  19   10.36    0.68
   5  14  20    0.00    0.43
   5  14  21    0.31    0.46
   5  14  22    3.56    0.52
   5  14  23    1.38    0.49
   5  15   0    9.23    0.40
   5  15   1    1.99    0.27
   5  15   2    8.17    0.42
   5  15   3    3.87    0.31
   5  15   4    1.73    0.40
   5  15   5    0.03    0.28
   5  15   6    3.12    0.30
   5  15   7    0.22    0.28
   5  15   8    1.75    0.29
   5  15   9    0.29    0.28
   5  15  10    0.61    0.28
   5  15  11    0.36    0.28
   5  15  12    2.36    0.30
   5  15  13    0.45    0.31
   5  15  14   17.53    0.67
   5  15  15    0.07    0.30
   5  15  16    6.32    0.35
   5  15  17    4.06    0.45
   5  15  18    2.05    0.33
   5  15  19   11.11    0.70
   5  15  20    3.86    0.52
   5  15  21    4.89    0.55
   5  15  22    0.74    0.48
   5  15  23    0.00    0.46
   5  16   0    3.02    0.28
   5  16   1    0.85    0.28
   5  16   2    1.67    0.29
   5  16   3    4.19    0.34
   5  16   4    1.82    0.30
   5  16   5    2.00    0.30
   5  16   6    3.84    0.33
   5  16   7   11.15    0.49
   5  16   8    2.60    0.31
   5  16   9    4.50    0.35
   5  16  10    0.71    0.30
   5  16  11    0.62    0.31
   5  16  12    7.06    0.43
   5  16  13    6.03    0.36
   5  16  14    1.03    0.31
   5  16  15   15.07    0.55
   5  16  16    0.17    0.34
   5  16  17   20.53    0.59
   5  16  18    1.13    0.33
   5  16  19    5.50    0.56
   5  16  20    2.75    0.51
   5  16  21    0.35    0.47
   5  16  22    2.11    0.50
   5  17   0    3.48    0.53
   5  17   1    0.27    0.30
   5  17   2    0.00    0.28
   5  17   3    0.32    0.29
   5  17   4    0.96    0.30
   5  17   5   10.01    0.46
   5  17   6    0.67    0.30
   5  17   7   10.87    0.49
   5  17   8    2.35    0.49
   5  17   9    0.05    0.59
   5  17  10    2.54    0.34
   5  17  11    0.36    0.30
   5  17  12    0.43    0.38
   5  17  13    0.65    0.32
   5  17  14    1.55    0.34
   5  17  15    0.18    0.35
   5  17  16    1.84    0.34
   5  17  17    2.20    0.56
   5  17  18    0.01    0.32
   5  17  19    0.20    0.47
   5  17  20    0.87    0.49
   5  17  21    0.02    0.47
   5  18   0    0.00    0.28
   5  18   1    4.19    0.61
   5  18   2    0.26    0.29
   5  18   3    0.71    0.31
   5  18   4    3.48    0.34
   5  18   5    2.17    0.32
   5  18   6    0.74    0.31
   5  18   7    2.10    0.34
   5  18   8    0.34    0.31
   5  18   9    2.21    0.33
   5  18  10    0.10    0.31
   5  18  11    0.86    0.33
   5  18  12    0.61    0.43
   5  18  13    4.56    0.35
   5  18  14    0.42    0.31
   5  18  15    5.68    0.41
   5  18  16    0.01    0.32
   5  18  17    0.28    0.33
   5  18  18    2.42    0.76
   5  18  19    0.01    0.47
   5  19   0    3.72    0.39
   5  19   1    1.60    0.32
   5  19   2    0.08    0.32
   5  19   3    3.35    0.46
   5  19   4    1.41    0.32
   5  19   5    0.57    0.31
   5  19   6    0.03    0.31
   5  19   7    0.04    0.31
   5  19   8    0.38    0.33
   5  19   9    0.44    0.32
   5  19  10    3.66    0.48
   5  19  11    0.06    0.32
   5  19  12    0.65    0.33
   5  19  13    0.31    0.34
   5  19  14    1.27    0.46
   5  19  15    3.78    0.38
   5  19  16    0.91    0.35
   5  19  17    0.25    0.34
   5  19  18    0.56    0.57
   5  20   0    0.71    0.30
   5  20   1    4.77    0.36
   5  20   2    0.08    0.30
   5  20   3    9.72    0.54
   5  20   4    1.07    0.33
   5  20   5    0.05    0.31
   5  20   6    3.08    0.47
   5  20   7    0.03    0.31
   5  20   8    0.41    0.32
   5  20   9    0.57    0.33
   5  20  10    1.13    0.34
   5  20  11    0.02    0.33
   5  20  12    0.12    0.42
   5  20  13    3.48    0.37
   5  20  14    0.01    0.33
   5  20  15    1.28    0.36
   5  20  16    1.31    0.35
   5  21   0    0.53    0.47
   5  21   1    0.17    0.32
   5  21   2    1.32    0.32
   5  21   3    0.81    0.58
   5  21   4    5.74    0.41
   5  21   5    1.61    0.58
   5  21   6    2.61    0.34
   5  21   7    3.09    0.36
   5  21   8    0.18    0.33
   5  21   9    0.71    0.46
   5  21  10    0.01    0.33
   5  21  11    0.78    0.35
   5  21  12    0.05    0.34
   5  21  13    0.00    0.33
   5  21  14    5.08    0.40
   5  22   0    0.53    0.48
   5  22   1    0.96    0.48
   5  22   2    0.19    0.48
   5  22   3    0.00    0.35
   5  22   4    0.94    0.34
   5  22   5    1.19    0.34
   5  22   6    0.01    0.32
   5  22   7    0.16    0.33
   5  22   8    0.04    0.36
   5  22   9    0.21    0.34
   5  22  10    0.00    0.34
   5  22  11    1.00    0.36
   6 -19   0    0.00    0.35
   6 -19   1    1.65    0.36
   6 -19   2    0.04    0.34
   6 -19   3    0.23    0.34
   6 -19   4    1.20    0.59
   6 -19   5    0.00    0.36
   6 -19   6    0.32    0.42
   6 -19   7    0.40    0.32
   6 -18   0    4.45    0.40
   6 -18   1    0.24    0.34
   6 -18   2    2.98    0.37
   6 -18   3    1.85    0.36
   6 -18   4    0.81    0.33
   6 -18   5    1.93    0.33
   6 -18   6    0.01    0.32
   6 -18   7    7.81    0.46
   6 -18   8    3.98    0.35
   6 -18   9    4.16    0.35
   6 -18  10    0.00    0.49
   6 -17   0    0.03    0.33
   6 -17   1    0.84    0.33
   6 -17   2    0.01    0.31
   6 -17   3    1.36    0.33
   6 -17   4    0.14    0.31
   6 -17   5    0.02    0.29
   6 -17   6    1.02    0.31
   6 -17   7    0.52    0.29
   6 -17   8    0.72    0.30
   6 -17   9    0.01    0.41
   6 -17  10    9.72    0.74
   6 -17  11    2.58    0.52
   6 -17  12    2.84    0.50
   6 -16   0    2.26    0.34
   6 -16   1    1.08    0.32
   6 -16   2    5.07    0.37
   6 -16   3    2.05    0.33
   6 -16   4    0.85    0.31
   6 -16   5    2.99    0.31
   6 -16   6    0.45    0.49
   6 -16   7    1.05    0.29
   6 -16   8    2.72    0.37
   6 -16   9    3.21    0.54
   6 -16  10    5.92    0.68
   6 -16  11    0.24    0.44
   6 -16  12    1.12    0.44
   6 -16  13    0.08    0.30
   6 -16  14    0.01    0.30
   6 -15   0    2.81    0.37
   6 -15   1    8.34    0.47
   6 -15   2    0.03    0.29
   6 -15   3    3.90    0.34
   6 -15   4    1.72    0.40
   6 -15   5    0.69    0.29
   6 -15   6    7.87    0.41
   6 -15   7    0.45    0.27
   6 -15   8    3.55    0.31
   6 -15   9    0.05    0.38
   6 -15  10    0.87    0.44
   6 -15  11    2.08    0.46
   6 -15  12    0.01    0.41
   6 -15  13    2.38    0.42
   6 -15  14    0.12    0.36
   6 -15  15    2.19    0.29
   6 -15  16    0.03    0.26
   6 -14   0    0.02    0.29
   6 -14   1    0.68    0.29
   6 -14   2    1.44    0.29
   6 -14   3    0.01    0.27
   6 -14   4    0.03    0.27
   6 -14   5    2.59    0.29
   6 -14   6    3.51    0.29
   6 -14   7    4.78    0.40
   6 -14   8    6.29    0.40
   6 -14   9    0.03    0.24
   6 -14  10    6.39    0.62
   6 -14  11    0.68    0.40
   6 -14  12    0.50    0.39
   6 -14  13    0.19    0.37
   6 -14  14    0.24    0.35
   6 -14  15    3.54    0.28
   6 -14  16    1.60    0.25
   6 -14  17    0.01    0.23
   6 -13   0    1.03    0.29
   6 -13   1    1.04    0.28
   6 -13   2    0.07    0.34
   6 -13   3    6.90    0.69
   6 -13   4    7.77    0.55
   6 -13   5    5.26    0.35
   6 -13   6    1.06    0.25
   6 -13   7    3.94    0.46
   6 -13   8   28.84    0.70
   6 -13   9    4.02    0.26
   6 -13  10    3.57    0.43
   6 -13  11    2.05    0.41
   6 -13  12    0.31    0.36
   6 -13  13    3.21    0.38
   6 -13  14    0.02    0.32
   6 -13  15    0.01    0.31
   6 -13  16    1.77    0.32
   6 -13  17    0.86    0.22
   6 -13  18    2.22    0.21
   6 -12   0    2.50    0.29
   6 -12   1   12.50    0.45
   6 -12   2    1.86    0.47
   6 -12   3    0.04    0.24
   6 -12   4    2.22    0.26
   6 -12   5    1.38    0.24
   6 -12   6    2.47    0.38
   6 -12   7    8.06    0.36
   6 -12   8    0.05    0.21
   6 -12   9    0.66    0.21
   6 -12  10    4.48    0.41
   6 -12  11    2.27    0.38
   6 -12  12    0.80    0.35
   6 -12  13    0.06    0.32
   6 -12  14    1.18    0.31
   6 -12  15    0.02    0.28
   6 -12  16    0.81    0.20
   6 -12  17    0.00    0.18
   6 -12  18    0.44    0.48
   6 -12  19    1.58    0.26
   6 -11   0    0.46    0.28
   6 -11   1    0.00    0.27
   6 -11   2    0.19    0.24
   6 -11   3    0.14    0.23
   6 -11   4    1.82    0.48
   6 -11   5    1.58    0.27
   6 -11   6    2.43    0.23
   6 -11   7   26.17    0.66
   6 -11   8    1.26    0.23
   6 -11   9    5.84    0.26
   6 -11  10    4.86    0.24
   6 -11  11    2.03    0.36
   6 -11  12    1.46    0.32
   6 -11  13    0.57    0.30
   6 -11  14    0.09    0.27
   6 -11  15    0.15    0.25
   6 -11  16    2.93    0.26
   6 -11  17    0.23    0.22
   6 -10   0    4.28    0.37
   6 -10   1    3.11    0.27
   6 -10   2    4.62    0.26
   6 -10   3    1.73    0.22
   6 -10   4    2.03    0.21
   6 -10   5    4.88    0.28
   6 -10   6    0.69    0.21
   6 -10   7    0.89    0.27
   6 -10   8    4.58    0.34
   6 -10   9    0.83    0.17
   6 -10  10    6.99    0.24
   6 -10  11    0.01    0.30
   6 -10  12    9.13    0.52
   6 -10  13    1.06    0.27
   6 -10  14    0.05    0.24
   6 -10  15    2.53    0.26
   6  -9   0    3.21    0.32
   6  -9   1    3.22    0.28
   6  -9   2    0.72    0.22
   6  -9   3    2.21    0.21
   6  -9   4    1.19    0.21
   6  -9   5    1.57    0.21
   6  -9   6   12.06    0.36
   6  -9   7   10.80    0.38
   6  -9   8    0.29    0.16
   6  -9   9    0.01    0.15
   6  -9  10    0.32    0.14
   6  -9  11    0.56    0.27
   6  -9  12    0.16    0.25
   6  -9  13    4.32    0.37
   6  -9  14    4.86    0.34
   6  -8   0    8.57    0.28
   6  -8   1    1.04    0.22
   6  -8   2    1.94    0.47
   6  -8   3    3.02    0.37
   6  -8   4    5.84    0.52
   6  -8   5    8.33    0.56
   6  -8   6   19.61    0.55
   6  -8   7    5.55    0.27
   6  -8   8   13.33    0.38
   6  -8   9    0.36    0.14
   6  -8  10    7.72    0.22
   6  -8  11    0.53    0.25
   6  -8  12   14.09    0.60
   6  -8  13    3.49    0.24
   6  -7   0    1.02    0.15
   6  -7   1    1.36    0.18
   6  -7   2    0.08    0.20
   6  -7   3    2.78    0.20
   6  -7   4    7.10    0.30
   6  -7   5    0.87    0.46
   6  -7   6   10.98    0.29
   6  -7   7    0.39    0.15
   6  -7   8    4.54    0.22
   6  -7   9    1.16    0.21
   6  -7  10    0.68    0.25
   6  -7  11   12.50    0.48
   6  -7  12    3.15    0.31
   6  -7  22    0.51    0.27
   6  -7  23    0.88    0.29
   6  -7  24    0.01    0.30
   6  -6   0    1.67    0.20
   6  -6   1    9.87    0.27
   6  -6   2    2.75    0.11
   6  -6   3   22.66    1.25
   6  -6   4    0.22    0.20
   6  -6   5    0.00    0.17
   6  -6   6    0.72    0.15
   6  -6   7    0.22    0.21
   6  -6   8    3.11    0.19
   6  -6   9    5.23    0.19
   6  -6  10    1.06    0.23
   6  -6  11    0.11    0.21
   6  -6  12    0.67    0.20
   6  -6  20    3.59    0.29
   6  -6  21    0.04    0.27
   6  -6  22    0.04    0.29
   6  -6  23    0.40    0.31
   6  -6  24    0.16    0.33
   6  -5   0    3.91    0.18
   6  -5   1    0.40    0.14
   6  -5   2    0.24    0.12
   6  -5   3    0.00    0.22
   6  -5   4   23.76    0.68
   6  -5   5    0.96    0.17
   6  -5   6   42.18    0.77
   6  -5   7    4.73    0.18
   6  -5   8    0.00    0.11
   6  -5   9    8.42    0.19
   6  -5  10    0.04    0.22
   6  -5  11    8.68    0.38
   6  -5  12    0.30    0.19
   6  -5  13    6.03    0.33
   6  -5  18    1.81    0.25
   6  -5  19    2.24    0.28
   6  -5  20    8.90    0.46
   6  -5  21    2.35    0.33
   6  -5  22    0.88    0.32
   6  -5  23    0.66    0.34
   6  -5  24    1.47    0.37
   6  -5  25    0.69    0.38
   6  -4   0   13.72    0.25
   6  -4   1    6.89    0.18
   6  -4   2    1.87    0.21
   6  -4   3    0.85    0.21
   6  -4   4    3.38    0.19
   6  -4   5    1.39    0.20
   6  -4   6    2.89    0.17
   6  -4   7    4.00    0.17
   6  -4   8    2.63    0.13
   6  -4   9    2.25    0.12
   6  -4  10    0.13    0.11
   6  -4  11    0.15    0.22
   6  -4  12   20.76    0.68
   6  -4  13    0.91    0.22
   6  -4  14    0.96    0.15
   6  -4  15    0.11    0.15
   6  -4  16    2.02    0.18
   6  -4  17    0.55    0.17
   6  -4  18    0.00    0.18
   6  -4  19    5.78    0.46
   6  -4  20    2.83    0.34
   6  -4  21    0.00    0.31
   6  -4  22    0.16    0.34
   6  -4  23    0.25    0.36
   6  -4  24    0.62    0.39
   6  -4  25    0.03    0.39
   6  -3   0   11.40    0.35
   6  -3   1   18.45    0.47
   6  -3   2   10.35    0.24
   6  -3   3    3.46    0.12
   6  -3   4   25.66    0.89
   6  -3   5    2.04    0.24
   6  -3   6    0.30    0.33
   6  -3   7    3.98    0.20
   6  -3   8    0.00    0.15
   6  -3   9    0.62    0.16
   6  -3  10    2.96    0.12
   6  -3  11   15.71    0.44
   6  -3  12    0.01    0.22
   6  -3  13    5.46    0.24
   6  -3  14    3.63    0.25
   6  -3  15    0.07    0.17
   6  -3  16    6.11    0.24
   6  -3  17    0.00    0.19
   6  -3  18    1.80    0.29
   6  -3  19    5.06    0.37
   6  -3  20    0.02    0.32
   6  -3  21    5.72    0.51
   6  -3  22    2.88    0.41
   6  -3  23    1.00    0.38
   6  -3  24    3.96    0.45
   6  -3  25    0.01    0.40
   6  -2   0    3.29    0.17
   6  -2   1    1.13    0.25
   6  -2   2    0.02    0.22
   6  -2   3   10.48    0.26
   6  -2   4    4.78    0.22
   6  -2   5    3.68    0.29
   6  -2   6   10.13    0.34
   6  -2   7   18.27    0.42
   6  -2   8    0.00    0.15
   6  -2   9    3.07    0.17
   6  -2  10    6.22    0.19
   6  -2  11    9.53    0.17
   6  -2  12    2.24    0.11
   6  -2  13    0.04    0.11
   6  -2  14    0.37    0.12
   6  -2  15    0.38    0.12
   6  -2  16    0.13    0.13
   6  -2  17    3.57    0.23
   6  -2  18    0.05    0.22
   6  -2  19    8.39    0.57
   6  -2  20    5.27    0.42
   6  -2  21    1.23    0.37
   6  -2  22    2.90    0.43
   6  -2  23    1.73    0.42
   6  -2  24    0.16    0.42
   6  -2  25    1.73    0.45
   6  -2  26    1.74    0.47
   6  -1   0    1.25    0.18
   6  -1   1   12.82    0.22
   6  -1   2    8.58    0.26
   6  -1   3    0.91    0.23
   6  -1   4    0.00    0.13
   6  -1   5    9.43    0.37
   6  -1   6    0.88    0.18
   6  -1   7   24.92    0.55
   6  -1   8   10.28    0.31
   6  -1   9    0.00    0.15
   6  -1  10    0.02    0.15
   6  -1  11    6.76    0.17
   6  -1  12    9.01    0.26
   6  -1  13    0.20    0.20
   6  -1  14   11.20    0.34
   6  -1  15    6.89    0.19
   6  -1  16    0.03    0.15
   6  -1  17    0.07    0.16
   6  -1  18    0.67    0.27
   6  -1  19    1.03    0.21
   6  -1  20    3.70    0.43
   6  -1  21    4.65    0.48
   6  -1  22    0.19    0.40
   6  -1  23    2.23    0.44
   6  -1  24    1.66    0.46
   6  -1  25    0.82    0.46
   6  -1  26    1.11    0.47
   6   0   0    6.82    0.25
   6   0   1   28.34    0.70
   6   0   2    1.41    0.18
   6   0   3    0.41    0.16
   6   0   4    2.50    0.17
   6   0   5    7.51    0.51
   6   0   6    8.16    0.29
   6   0   7    3.12    0.21
   6   0   8   33.56    0.72
   6   0   9    8.44    0.35
   6   0  10   97.05    2.76
   6   0  11    0.00    0.14
   6   0  12    0.25    0.16
   6   0  13    9.84    0.25
   6   0  14    4.24    0.25
   6   0  15    1.86    0.36
   6   0  16    0.01    0.16
   6   0  17    3.79    0.19
   6   0  18    0.21    0.19
   6   0  19    0.16    0.22
   6   0  20   18.54    0.49
   6   0  21    0.31    0.25
   6   0  22    0.12    0.26
   6   0  23    1.02    0.46
   6   0  24    0.36    0.45
   6   0  25    0.94    0.47
   6   0  26    0.06    0.48
   6   1   0    0.01    0.23
   6   1   1    4.66    0.28
   6   1   2   11.80    0.40
   6   1   3    3.66    0.17
   6   1   4    8.87    0.18
   6   1   5    1.21    0.16
   6   1   6    6.94    0.21
   6   1   7    1.25    0.20
   6   1   8    2.66    0.25
   6   1   9    1.01    0.19
   6   1  10    6.22    0.49
   6   1  11   14.99    0.35
   6   1  12    0.04    0.18
   6   1  13    1.28    0.15
   6   1  14    1.71    0.17
   6   1  15    2.53    0.17
   6   1  16    1.80    0.21
   6   1  17    2.12    0.25
   6   1  18    7.37    0.46
   6   1  19    0.87    0.25
   6   1  20    4.51    0.81
   6   1  21    0.74    0.26
   6   1  22    1.13    0.28
   6   1  23    0.31    0.28
   6   1  24    0.49    0.29
   6   1  25    2.41    0.32
   6   1  26    0.01    0.50
   6   2   0    0.86    0.33
   6   2   1    3.30    0.19
   6   2   2    5.27    0.30
   6   2   3    1.09    0.26
   6   2   4    1.26    0.17
   6   2   5    0.01    0.19
   6   2   6    0.42    0.15
   6   2   7   23.76    0.54
   6   2   8   29.56    0.69
   6   2   9    8.20    0.26
   6   2  10   33.87    0.65
   6   2  11    4.92    0.29
   6   2  12    0.18    0.28
   6   2  13   15.17    0.83
   6   2  14    6.98    0.29
   6   2  15    5.46    0.30
   6   2  16    2.65    0.22
   6   2  17    0.00    0.19
   6   2  18    3.21    0.24
   6   2  19    5.69    0.80
   6   2  20   15.63    0.46
   6   2  21    0.46    0.28
   6   2  22   14.15    0.50
   6   2  23    2.36    0.32
   6   2  24    0.51    0.30
   6   2  25    1.06    0.32
   6   2  26    2.17    0.34
   6   2  27    1.08    0.34
   6   3   0    0.54    0.20
   6   3   1    2.34    0.22
   6   3   2    0.35    0.31
   6   3   3    1.75    0.19
   6   3   4    2.15    0.20
   6   3   5    3.23    0.19
   6   3   6    0.15    0.15
   6   3   7    6.91    0.19
   6   3   8    0.33    0.15
   6   3   9   19.27    0.33
   6   3  10    2.45    0.24
   6   3  11    1.87    0.21
   6   3  12    0.32    0.18
   6   3  13    3.30    0.39
   6   3  14    5.61    0.20
   6   3  15    0.24    0.18
   6   3  16    4.77    0.24
   6   3  17    0.71    0.37
   6   3  18    2.21    0.23
   6   3  19    5.77    0.40
   6   3  20    7.20    0.36
   6   3  21    0.61    0.29
   6   3  22    0.09    0.29
   6   3  23    1.89    0.50
   6   3  24    0.00    0.31
   6   3  25    0.12    0.32
   6   3  26    2.70    0.36
   6   3  27    1.33    0.44
   6   4   0   12.33    0.39
   6   4   1   19.61    0.33
   6   4   2    2.08    0.21
   6   4   3    2.37    0.19
   6   4   4    8.74    0.53
   6   4   5    0.39    0.22
   6   4   6    0.27    0.18
   6   4   7   10.84    0.25
   6   4   8   16.77    0.44
   6   4   9   12.81    0.23
   6   4  10    0.01    0.12
   6   4  11    1.12    0.14
   6   4  12    7.11    0.45
   6   4  13    0.33    0.19
   6   4  14    3.80    0.19
   6   4  15    1.48    0.21
   6   4  16    9.43    0.27
   6   4  17    0.19    0.21
   6   4  18    2.58    0.31
   6   4  19    4.11    0.47
   6   4  20    2.12    0.30
   6   4  21    4.06    0.33
   6   4  22    1.05    0.30
   6   4  23    0.04    0.30
   6   4  24    0.58    0.33
   6   4  25    0.31    0.42
   6   4  26    0.22    0.43
   6   4  27    0.01    0.43
   6   5   0    1.20    0.19
   6   5   1    0.00    0.19
   6   5   2   28.91    0.58
   6   5   3   29.41    0.50
   6   5   4    5.48    0.41
   6   5   5    0.65    0.20
   6   5   6    2.15    0.18
   6   5   7   29.17    0.54
   6   5   8    3.38    0.29
   6   5   9   54.46    0.74
   6   5  10    0.12    0.15
   6   5  11    5.86    0.26
   6   5  12    2.50    0.17
   6   5  13    1.66    0.29
   6   5  14   17.78    0.41
   6   5  15    1.31    0.26
   6   5  16   18.12    0.45
   6   5  17    4.54    0.36
   6   5  18    1.05    0.29
   6   5  19    6.65    0.67
   6   5  20    0.01    0.29
   6   5  21    2.22    0.32
   6   5  22    3.37    0.35
   6   5  23   11.89    0.51
   6   5  24    0.69    0.42
   6   5  25    0.01    0.42
   6   5  26    3.94    0.48
   6   6   0    4.84    0.23
   6   6   1   10.75    0.31
   6   6   2    3.68    0.23
   6   6   3   17.47    0.48
   6   6   4   24.82    0.56
   6   6   5    0.12    0.19
   6   6   6    9.01    0.30
   6   6   7    0.52    0.17
   6   6   8    1.65    0.18
   6   6   9    0.31    0.15
   6   6  10   11.81    0.25
   6   6  11    6.31    0.31
   6   6  12   17.16    0.46
   6   6  13    0.70    0.15
   6   6  14    0.91    0.21
   6   6  15    4.34    0.26
   6   6  16    1.61    0.22
   6   6  17    6.98    0.29
   6   6  18    3.07    0.33
   6   6  19    0.06    0.29
   6   6  20    0.96    0.42
   6   6  21    1.12    0.33
   6   6  22    0.10    0.39
   6   6  23    2.05    0.44
   6   6  24    2.40    0.46
   6   6  25    1.10    0.46
   6   6  26    0.05    0.44
   6   7   0   16.34    0.37
   6   7   1   13.23    0.36
   6   7   2  112.60    1.88
   6   7   3    0.17    0.18
   6   7   4   10.95    0.33
   6   7   5    9.67    0.57
   6   7   6    3.88    0.22
   6   7   7    9.42    0.31
   6   7   8    0.11    0.18
   6   7   9    0.15    0.16
   6   7  10    2.99    0.19
   6   7  11    2.28    0.16
   6   7  12    8.56    0.29
   6   7  13   16.38    0.44
   6   7  14    6.59    0.33
   6   7  15    5.76    0.37
   6   7  16    3.84    0.31
   6   7  17   21.18    0.54
   6   7  18    0.67    0.55
   6   7  19    1.21    0.31
   6   7  20    4.74    0.47
   6   7  21    4.42    0.44
   6   7  22    0.03    0.41
   6   7  23    2.71    0.47
   6   7  24    8.44    0.64
   6   7  25    0.05    0.43
   6   7  26    1.04    0.45
   6   8   0   17.06    0.57
   6   8   1    8.48    0.29
   6   8   2   21.83    0.44
   6   8   3    0.00    0.29
   6   8   4    5.04    0.44
   6   8   5   11.40    0.34
   6   8   6    5.49    0.27
   6   8   7    0.26    0.19
   6   8   8    6.88    0.30
   6   8   9    0.00    0.28
   6   8  10    2.12    0.18
   6   8  11    0.76    0.22
   6   8  12    0.57    0.17
   6   8  13    5.00    0.22
   6   8  14    0.76    0.19
   6   8  15   15.26    0.66
   6   8  16    3.90    0.33
   6   8  17    2.43    0.30
   6   8  18    3.21    0.41
   6   8  19    2.61    0.42
   6   8  20    7.79    0.59
   6   8  21    1.65    0.43
   6   8  22    9.34    0.64
   6   8  23    2.94    0.46
   6   8  24    1.00    0.45
   6   8  25    4.87    0.55
   6   8  26    0.01    0.45
   6   9   0    1.18    0.24
   6   9   1    0.08    0.17
   6   9   2    0.56    0.44
   6   9   3    0.41    0.19
   6   9   4    1.29    0.20
   6   9   5   25.08    0.51
   6   9   6   12.40    0.53
   6   9   7    0.02    0.18
   6   9   8    0.22    0.22
   6   9   9    1.66    0.17
   6   9  10    4.29    0.20
   6   9  11    1.12    0.17
   6   9  12   12.51    0.31
   6   9  13    0.02    0.19
   6   9  14    2.64    0.20
   6   9  15    6.89    0.49
   6   9  16    1.87    0.41
   6   9  17    4.51    0.43
   6   9  18    0.03    0.38
   6   9  19    0.09    0.39
   6   9  20    1.35    0.41
   6   9  21    1.81    0.44
   6   9  22    2.67    0.45
   6   9  23    1.68    0.46
   6   9  24    0.92    0.45
   6   9  25    0.35    0.46
   6   9  26    0.33    0.46
   6  10   0    6.50    0.24
   6  10   1   92.00    1.93
   6  10   2    1.79    0.19
   6  10   3   11.80    0.31
   6  10   4   12.31    0.40
   6  10   5    2.58    0.29
   6  10   6    4.72    0.24
   6  10   7    0.57    0.65
   6  10   8   11.68    0.41
   6  10   9    1.64    0.20
   6  10  10   10.42    0.25
   6  10  11   44.77    3.21
   6  10  12    2.94    0.21
   6  10  13    9.40    0.34
   6  10  14    0.83    0.21
   6  10  15    2.65    0.42
   6  10  16    0.93    0.40
   6  10  17    1.22    0.41
   6  10  18    4.42    0.45
   6  10  19   10.58    0.61
   6  10  20    0.02    0.41
   6  10  21    1.25    0.44
   6  10  22    0.63    0.43
   6  10  23    6.86    0.54
   6  10  24    0.10    0.45
   6  10  25    2.35    0.51
   6  11   0    0.07    0.23
   6  11   1    1.55    0.30
   6  11   2   12.64    0.44
   6  11   3    1.81    0.30
   6  11   4    4.80    0.25
   6  11   5    2.07    0.23
   6  11   6    0.00    0.26
   6  11   7    7.54    0.25
   6  11   8    0.56    0.21
   6  11   9    1.04    0.23
   6  11  10    0.12    0.21
   6  11  11    1.49    0.21
   6  11  12    0.58    0.22
   6  11  13    0.58    0.38
   6  11  14   23.38    0.48
   6  11  15    2.85    0.44
   6  11  16   13.44    0.72
   6  11  17    0.03    0.40
   6  11  18    0.10    0.40
   6  11  19    4.59    0.49
   6  11  20    0.22    0.43
   6  11  21    9.18    0.64
   6  11  22    0.58    0.44
   6  11  23    3.07    0.49
   6  11  24    1.11    0.47
   6  11  25    0.00    0.45
   6  12   0    7.12    0.38
   6  12   1    6.82    0.37
   6  12   2    0.36    0.24
   6  12   3    0.01    0.30
   6  12   4   17.62    0.48
   6  12   5    0.34    0.25
   6  12   6    4.00    0.27
   6  12   7    0.12    0.37
   6  12   8    0.01    0.22
   6  12   9    2.81    0.25
   6  12  10    0.35    0.24
   6  12  11    2.98    0.27
   6  12  12    1.10    0.29
   6  12  13    0.08    0.24
   6  12  14    0.34    0.32
   6  12  15    0.08    0.42
   6  12  16    4.52    0.35
   6  12  17    3.98    0.50
   6  12  18    9.33    0.64
   6  12  19    1.02    0.44
   6  12  20    0.68    0.44
   6  12  21    5.26    0.53
   6  12  22    0.70    0.46
   6  12  23    4.23    0.51
   6  12  24    0.00    0.45
   6  13   0   25.06    0.60
   6  13   1    2.69    0.28
   6  13   2    9.32    0.41
   6  13   3    0.16    0.25
   6  13   4    0.06    0.27
   6  13   5    5.56    0.39
   6  13   6    6.10    0.33
   6  13   7    3.54    0.29
   6  13   8    1.81    0.27
   6  13   9    4.58    0.39
   6  13  10    3.40    0.37
   6  13  11    0.66    0.26
   6  13  12    0.60    0.38
   6  13  13    0.03    0.27
   6  13  14    2.87    0.30
   6  13  15    4.30    0.31
   6  13  16    5.58    0.39
   6  13  17    5.32    0.52
   6  13  18    1.50    0.44
   6  13  19   14.09    0.73
   6  13  20    0.00    0.43
   6  13  21    4.99    0.52
   6  13  22    1.94    0.50
   6  13  23    0.68    0.47
   6  13  24    5.32    0.55
   6  14   0    2.32    0.28
   6  14   1    3.93    0.30
   6  14   2    1.74    0.28
   6  14   3    1.54    0.29
   6  14   4    3.26    0.40
   6  14   5    1.33    0.28
   6  14   6    0.04    0.27
   6  14   7    0.08    0.28
   6  14   8    1.45    0.45
   6  14   9    1.52    0.31
   6  14  10    0.13    0.27
   6  14  11    0.33    0.28
   6  14  12    0.57    0.30
   6  14  13    0.07    0.53
   6  14  14    0.79    0.30
   6  14  15    0.03    0.45
   6  14  16    1.54    0.31
   6  14  17    0.25    0.44
   6  14  18    0.00    0.43
   6  14  19    2.57    0.48
   6  14  20    1.87    0.48
   6  14  21    0.36    0.46
   6  14  22    0.86    0.47
   6  14  23    0.00    0.47
   6  15   0    8.16    0.38
   6  15   1    3.94    0.35
   6  15   2    0.01    0.27
   6  15   3    0.05    0.28
   6  15   4    8.66    0.42
   6  15   5    3.53    0.33
   6  15   6    5.80    1.05
   6  15   7    1.46    0.29
   6  15   8    0.07    0.28
   6  15   9    0.19    0.55
   6  15  10    2.18    0.56
   6  15  11    0.89    0.32
   6  15  12    2.80    0.31
   6  15  13    3.01    0.34
   6  15  14    0.72    0.30
   6  15  15    8.27    0.39
   6  15  16    0.76    0.31
   6  15  17    3.51    0.50
   6  15  18    2.27    0.49
   6  15  19    1.46    0.47
   6  15  20    2.36    0.48
   6  15  21    0.28    0.46
   6  15  22    2.25    0.53
   6  16   0    1.45    0.30
   6  16   1    0.83    0.30
   6  16   2    2.14    0.48
   6  16   3    0.00    0.35
   6  16   4    1.41    0.30
   6  16   5    7.92    0.43
   6  16   6    0.14    0.30
   6  16   7    1.82    0.31
   6  16   8    4.12    0.33
   6  16   9    1.79    0.32
   6  16  10    0.06    0.29
   6  16  11    0.10    0.53
   6  16  12    0.09    0.30
   6  16  13    0.87    0.31
   6  16  14    0.01    0.33
   6  16  15    4.81    0.35
   6  16  16    0.48    0.31
   6  16  17    0.07    0.46
   6  16  18    2.76    0.50
   6  16  19    2.13    0.49
   6  16  20    1.20    0.48
   6  16  21    0.17    0.47
   6  17   0    5.49    0.35
   6  17   1    0.02    0.29
   6  17   2    0.40    0.29
   6  17   3    0.43    0.29
   6  17   4    1.84    0.58
   6  17   5    3.85    0.35
   6  17   6    0.03    0.30
   6  17   7    1.07    0.31
   6  17   8    0.03    0.30
   6  17   9    0.51    0.60
   6  17  10    0.26    0.30
   6  17  11    0.06    0.31
   6  17  12    6.79    0.41
   6  17  13    3.38    0.35
   6  17  14    0.85    0.31
   6  17  15    5.95    0.39
   6  17  16    2.94    0.34
   6  17  17    3.93    0.36
   6  17  18    0.23    0.47
   6  17  19    0.01    0.46
   6  17  20    0.14    0.46
   6  18   0    5.36    0.53
   6  18   1    3.33    0.34
   6  18   2    1.83    0.32
   6  18   3    2.64    0.34
   6  18   4    1.76    0.31
   6  18   5    0.50    0.52
   6  18   6   13.74    0.53
   6  18   7    0.38    0.31
   6  18   8    3.09    0.34
   6  18   9    0.94    0.33
   6  18  10    0.03    0.31
   6  18  11    0.66    0.32
   6  18  12    1.07    0.33
   6  18  13    9.10    0.49
   6  18  14    0.87    0.34
   6  18  15    6.94    0.40
   6  18  16    6.84    0.87
   6  18  17    0.13    0.33
   6  18  18    5.64    0.57
   6  18  19    0.03    0.48
   6  19   0    0.01    0.30
   6  19   1    1.99    0.32
   6  19   2    0.27    0.31
   6  19   3    0.35    0.31
   6  19   4    0.20    0.31
   6  19   5    0.62    0.31
   6  19   6    0.25    0.31
   6  19   7    9.34    0.48
   6  19   8    1.64    0.36
   6  19   9    2.88    0.39
   6  19  10    0.05    0.32
   6  19  11    0.00    0.33
   6  19  12    0.64    0.33
   6  19  13    0.00    0.32
   6  19  14    5.40    0.42
   6  19  15    0.45    0.34
   6  19  16    0.01    0.33
   6  19  17    0.00    0.33
   6  20   0    0.00    0.31
   6  20   1    0.54    0.32
   6  20   2    0.11    0.32
   6  20   3    4.97    0.37
   6  20   4    4.96    0.53
   6  20   5    1.21    0.54
   6  20   6    3.43    0.49
   6  20   7    0.46    0.33
   6  20   8    0.69    0.33
   6  20   9    4.47    0.40
   6  20  10    1.81    0.35
   6  20  11    1.36    0.35
   6  20  12    0.42    0.35
   6  20  13    0.01    0.33
   6  20  14    0.50    0.34
   6  20  15    0.98    0.35
   6  21   0    2.33    0.51
   6  21   1    0.37    0.32
   6  21   2    3.39    0.37
   6  21   3    0.40    0.33
   6  21   4    1.73    0.35
   6  21   5    1.64    0.34
   6  21   6    1.38    0.34
   6  21   7   13.22    1.26
   6  21   8    0.01    0.33
   6  21   9    2.52    0.37
   6  21  10    0.14    0.34
   6  21  11    0.49    0.34
   6  21  12    0.73    0.35
   6  21  13    0.47    0.36
   6  22   0    0.00    0.47
   6  22   1    0.76    0.48
   6  22   2    0.24    0.32
   6  22   3    0.01    0.33
   6  22   4    2.69    0.73
   6  22   5    0.05    0.32
   6  22   6    0.07    0.61
   6  22   7    0.40    0.34
   6  22   8    1.01    0.38
   7 -18   0    4.44    0.64
   7 -18   1    0.12    0.34
   7 -18   2    1.97    0.36
   7 -18   3    0.35    0.33
   7 -18   4    0.35    0.45
   7 -18   5    0.79    0.34
   7 -18   6    0.84    0.33
   7 -17   0    0.63    0.35
   7 -17   1    0.01    0.44
   7 -17   2    1.86    0.34
   7 -17   3    0.51    0.33
   7 -17   4    0.00    0.31
   7 -17   5    1.70    0.33
   7 -17   6    1.68    0.33
   7 -17   7    1.11    0.32
   7 -17   8    4.23    0.66
   7 -17   9    0.03    0.49
   7 -17  10    1.12    0.50
   7 -16   0    1.57    0.66
   7 -16   1    9.60    0.51
   7 -16   2    0.00    0.35
   7 -16   3    1.93    0.33
   7 -16   4    1.23    0.33
   7 -16   5    2.53    0.50
   7 -16   6    0.00    0.30
   7 -16   7    0.02    0.29
   7 -16   8    0.01    0.29
   7 -16   9    0.00    0.48
   7 -16  10    1.44    0.48
   7 -16  11    0.00    0.44
   7 -16  12    0.00    0.44
   7 -15   0    0.93    0.32
   7 -15   1    0.14    0.32
   7 -15   2    1.57    0.33
   7 -15   3    1.28    0.51
   7 -15   4    1.96    0.42
   7 -15   5    0.01    0.52
   7 -15   6    1.02    0.29
   7 -15   7    2.28    0.30
   7 -15   8    0.01    0.27
   7 -15   9    0.44    0.47
   7 -15  10    4.68    0.54
   7 -15  11    0.19    0.44
   7 -15  12    0.62    0.43
   7 -15  13    1.77    0.43
   7 -15  14    0.01    0.39
   7 -14   0    0.52    0.62
   7 -14   1    1.39    0.32
   7 -14   2    1.96    0.33
   7 -14   3    0.02    0.29
   7 -14   4    0.07    0.29
   7 -14   5    1.49    0.29
   7 -14   6    0.14    0.27
   7 -14   7    0.05    0.26
   7 -14   8    0.30    0.25
   7 -14   9    2.14    0.27
   7 -14  10    0.19    0.43
   7 -14  11    1.80    0.45
   7 -14  12    0.08    0.40
   7 -14  13    0.00    0.38
   7 -14  14    0.01    0.37
   7 -14  15    0.41    0.35
   7 -14  16    0.62    0.34
   7 -13   0    3.34    0.33
   7 -13   1    2.05    0.68
   7 -13   2    4.64    0.34
   7 -13   3    0.17    0.50
   7 -13   4    1.31    0.51
   7 -13   5    0.03    0.37
   7 -13   6    0.29    0.26
   7 -13   7    0.01    0.39
   7 -13   8    1.82    0.26
   7 -13   9    0.29    0.42
   7 -13  10    0.01    0.41
   7 -13  11    2.99    0.45
   7 -13  12    1.48    0.40
   7 -13  13    0.51    0.37
   7 -13  14    3.08    0.39
   7 -13  15    0.02    0.33
   7 -13  16    1.62    0.32
   7 -13  17    0.22    0.21
   7 -12   0    6.34    0.34
   7 -12   1    5.37    0.34
   7 -12   2    2.19    0.31
   7 -12   3    2.01    0.41
   7 -12   4    0.69    0.39
   7 -12   5    0.05    0.25
   7 -12   6    2.09    0.43
   7 -12   7    2.01    0.58
   7 -12   8    5.82    0.44
   7 -12   9    8.79    0.47
   7 -12  10    1.46    0.42
   7 -12  11    2.86    0.42
   7 -12  12    0.41    0.37
   7 -12  13    0.03    0.35
   7 -12  14    0.49    0.33
   7 -12  15    6.16    0.47
   7 -12  16    0.00    0.28
   7 -12  17    7.92    0.44
   7 -11   0    1.77    0.51
   7 -11   1    0.15    0.27
   7 -11   2    6.71    0.38
   7 -11   3    0.00    0.36
   7 -11   4    3.54    0.29
   7 -11   5   18.03    0.53
   7 -11   6    0.01    0.50
   7 -11   7   23.01    0.57
   7 -11   8   38.84    0.76
   7 -11   9   17.30    0.50
   7 -11  10    9.21    0.62
   7 -11  11    0.08    0.35
   7 -11  12    1.10    0.35
   7 -11  13    7.67    0.51
   7 -11  14    0.67    0.31
   7 -11  15    0.79    0.28
   7 -11  16    0.00    0.26
   7 -10   0    0.03    0.26
   7 -10   1    1.53    0.32
   7 -10   2    0.26    0.44
   7 -10   3    9.81    0.40
   7 -10   4    4.40    0.27
   7 -10   5   10.83    0.40
   7 -10   6    2.79    0.38
   7 -10   7    3.69    0.29
   7 -10   8    5.22    0.33
   7 -10   9   14.80    0.43
   7 -10  10    2.10    0.28
   7 -10  11    1.49    0.35
   7 -10  12    1.09    0.33
   7 -10  13    0.00    0.30
   7 -10  14    1.13    0.30
   7 -10  15    4.72    0.40
   7 -10  16    0.66    0.24
   7  -9   0   15.21    0.46
   7  -9   1    2.96    0.25
   7  -9   2    2.70    0.26
   7  -9   3    0.09    0.23
   7  -9   4    5.21    0.31
   7  -9   5    1.59    0.25
   7  -9   6    3.85    0.48
   7  -9   7    9.76    0.47
   7  -9   8    0.01    0.19
   7  -9   9    4.31    0.25
   7  -9  10    0.06    0.17
   7  -9  11    0.07    0.32
   7  -9  12    1.15    0.32
   7  -9  13    5.34    0.44
   7  -9  14    0.50    0.27
   7  -9  15    0.20    0.24
   7  -8   0    0.48    0.24
   7  -8   1   13.98    0.47
   7  -8   2    3.58    0.25
   7  -8   3    0.54    0.38
   7  -8   4    0.00    0.21
   7  -8   5    1.26    0.47
   7  -8   6    7.20    0.32
   7  -8   7   11.19    0.38
   7  -8   8   15.01    0.40
   7  -8   9    1.21    0.18
   7  -8  10    4.43    0.25
   7  -8  11    0.34    0.32
   7  -8  12    2.18    0.32
   7  -8  13    2.85    0.29
   7  -8  14    2.26    0.28
   7  -8  15    7.15    0.40
   7  -7   0   10.18    0.30
   7  -7   1    4.13    0.25
   7  -7   2    0.39    0.22
   7  -7   3    0.07    0.21
   7  -7   4    7.16    0.26
   7  -7   5    0.54    0.20
   7  -7   6    0.96    0.19
   7  -7   7    0.08    0.18
   7  -7   8    2.00    0.23
   7  -7   9    6.75    0.28
   7  -7  10    0.02    0.21
   7  -7  11    2.83    0.32
   7  -7  12    0.11    0.27
   7  -7  13    0.07    0.26
   7  -7  14    1.89    0.26
   7  -7  15    1.03    0.23
   7  -6   0    0.98    0.30
   7  -6   1   11.64    0.29
   7  -6   2    1.13    0.60
   7  -6   3    0.05    0.30
   7  -6   4    1.57    0.32
   7  -6   5    7.40    0.30
   7  -6   6    0.61    0.40
   7  -6   7    7.77    0.40
   7  -6   8    0.53    0.17
   7  -6   9    0.24    0.16
   7  -6  10    0.07    0.18
   7  -6  11    4.23    0.22
   7  -6  12    1.22    0.27
   7  -6  13   13.14    0.50
   7  -6  14    1.49    0.26
   7  -6  15    0.80    0.25
   7  -6  16    5.72    0.34
   7  -6  22    0.00    0.25
   7  -6  23    1.26    0.29
   7  -5   0    6.32    0.29
   7  -5   1    0.64    0.14
   7  -5   2    2.92    0.19
   7  -5   3    0.00    0.23
   7  -5   4    1.21    0.19
   7  -5   5    0.06    0.22
   7  -5   6    0.12    0.18
   7  -5   7    1.73    0.18
   7  -5   8    0.82    0.17
   7  -5   9    2.69    0.36
   7  -5  10    0.72    0.15
   7  -5  11    2.99    0.26
   7  -5  12    6.20    0.25
   7  -5  13    0.59    0.26
   7  -5  14    7.54    0.40
   7  -5  15    0.03    0.24
   7  -5  16    4.24    0.39
   7  -5  17    3.09    0.29
   7  -5  18    0.31    0.17
   7  -5  19    3.93    0.57
   7  -5  20    0.11    0.26
   7  -5  21    1.29    0.29
   7  -5  23    0.70    0.32
   7  -5  24    3.07    0.35
   7  -4   0   15.65    0.42
   7  -4   1    3.25    0.17
   7  -4   2    4.72    0.33
   7  -4   3    1.04    0.23
   7  -4   4    2.19    0.46
   7  -4   5    0.64    0.27
   7  -4   6    0.28    0.21
   7  -4   7    0.01    0.28
   7  -4   8    0.55    0.18
   7  -4   9    1.61    0.28
   7  -4  10    6.56    0.26
   7  -4  11   12.62    0.39
   7  -4  12    4.83    0.22
   7  -4  13    0.17    0.14
   7  -4  14    0.01    0.26
   7  -4  15    0.27    0.26
   7  -4  16    0.05    0.27
   7  -4  17    0.08    0.29
   7  -4  18    0.06    0.20
   7  -4  19    0.00    0.29
   7  -4  20    0.00    0.29
   7  -4  21    6.69    0.47
   7  -4  22    2.01    0.34
   7  -4  23    0.43    0.33
   7  -4  24    0.86    0.36
   7  -3   0   29.48    0.53
   7  -3   1    0.19    0.17
   7  -3   2    2.95    0.20
   7  -3   3    8.58    0.25
   7  -3   4    1.87    0.20
   7  -3   5    9.09    0.48
   7  -3   6    0.00    0.24
   7  -3   7    7.74    0.30
   7  -3   8    0.27    0.23
   7  -3   9    0.02    0.19
   7  -3  10    9.07    0.25
   7  -3  11    0.18    0.15
   7  -3  12   20.36    0.52
   7  -3  13    1.08    0.15
   7  -3  14    6.20    0.20
   7  -3  15    2.38    0.35
   7  -3  16    0.21    0.28
   7  -3  17    2.93    0.34
   7  -3  18    0.03    0.22
   7  -3  19    2.82    0.25
   7  -3  20    0.75    0.32
   7  -3  21    0.91    0.34
   7  -3  22    0.27    0.35
   7  -3  23    0.00    0.36
   7  -3  24    0.08    0.37
   7  -3  25    1.00    0.40
   7  -2   0    0.17    0.17
   7  -2   1    3.28    0.18
   7  -2   2    0.08    0.15
   7  -2   3    4.16    0.21
   7  -2   4    0.40    0.11
   7  -2   5    0.71    0.40
   7  -2   6    0.38    0.47
   7  -2   7    0.08    0.18
   7  -2   8    2.54    0.42
   7  -2   9    2.11    0.23
   7  -2  10   12.06    0.58
   7  -2  11    0.00    0.16
   7  -2  12    5.43    0.26
   7  -2  13   11.70    0.43
   7  -2  14    0.56    0.18
   7  -2  15    0.76    0.15
   7  -2  16    0.84    0.37
   7  -2  17    0.30    0.23
   7  -2  18    0.52    0.23
   7  -2  19    1.26    0.24
   7  -2  20    8.31    0.58
   7  -2  21    2.26    0.40
   7  -2  22    1.72    0.39
   7  -2  23    1.46    0.41
   7  -2  24    0.51    0.40
   7  -2  25    1.84    0.42
   7  -1   0    2.19    0.17
   7  -1   1    1.06    0.17
   7  -1   2    0.72    0.21
   7  -1   3    3.69    0.23
   7  -1   4    0.01    0.21
   7  -1   5    6.48    0.48
   7  -1   6    0.46    0.18
   7  -1   7    6.34    0.27
   7  -1   8    0.42    0.17
   7  -1   9    6.73    0.78
   7  -1  10   18.41    1.27
   7  -1  11    2.87    0.20
   7  -1  12    9.55    0.42
   7  -1  13    0.00    0.17
   7  -1  14    1.20    0.15
   7  -1  15    1.58    0.22
   7  -1  16    1.47    0.18
   7  -1  17    9.55    0.26
   7  -1  18    2.34    0.20
   7  -1  19    0.50    0.37
   7  -1  20    1.81    0.28
   7  -1  21    0.00    0.37
   7  -1  22    0.01    0.39
   7  -1  23    0.12    0.41
   7  -1  24    0.77    0.43
   7  -1  25    0.47    0.43
   7   0   0    7.15    0.26
   7   0   1   22.45    0.41
   7   0   2    2.67    0.23
   7   0   3    1.71    0.22
   7   0   4   11.38    0.26
   7   0   5   17.23    0.35
   7   0   6    2.39    0.22
   7   0   7    0.16    0.19
   7   0   8    0.33    0.19
   7   0   9    0.02    0.35
   7   0  10    0.98    0.21
   7   0  11   19.31    0.34
   7   0  12    0.36    0.22
   7   0  13   13.28    0.45
   7   0  14    0.59    0.16
   7   0  15    5.97    0.33
   7   0  16    1.83    0.23
   7   0  17    0.83    0.19
   7   0  18    6.81    0.24
   7   0  19    0.00    0.20
   7   0  20   14.91    0.40
   7   0  21    0.02    0.40
   7   0  22    1.09    0.43
   7   0  23    0.02    0.43
   7   0  24    0.03    0.43
   7   0  25    0.04    0.44
   7   1   0    5.22    0.30
   7   1   1    3.41    0.26
   7   1   2    0.04    0.24
   7   1   3    2.26    0.19
   7   1   4    2.86    0.18
   7   1   5    0.00    0.16
   7   1   6    2.08    0.14
   7   1   7    0.14    0.20
   7   1   8    0.56    0.21
   7   1   9    6.37    0.41
   7   1  10    4.11    0.19
   7   1  11   12.23    0.35
   7   1  12    0.97    0.24
   7   1  13    0.06    0.17
   7   1  14    3.49    0.28
   7   1  15    1.03    0.36
   7   1  16    4.84    0.34
   7   1  17    1.08    0.24
   7   1  18    0.36    0.21
   7   1  19    5.97    0.33
   7   1  20    0.04    0.33
   7   1  21    1.79    0.27
   7   1  22    0.11    0.27
   7   1  23    0.01    0.45
   7   1  24    0.69    0.47
   7   1  25    0.05    0.46
   7   1  26    0.00    0.48
   7   2   0    0.83    0.20
   7   2   1    5.43    0.19
   7   2   2    0.33    0.17
   7   2   3    0.62    0.17
   7   2   4    2.64    0.19
   7   2   5    0.18    0.17
   7   2   6   18.94    0.41
   7   2   7    2.20    0.14
   7   2   8    8.07    0.55
   7   2   9   14.58    0.84
   7   2  10   13.86    0.73
   7   2  11   22.63    0.67
   7   2  12    0.54    0.23
   7   2  13    7.12    0.34
   7   2  14    0.15    0.18
   7   2  15    0.28    0.19
   7   2  16    0.69    0.21
   7   2  17    3.25    0.26
   7   2  18    3.47    0.22
   7   2  19    0.04    0.22
   7   2  20    3.78    0.51
   7   2  21    0.05    0.26
   7   2  22    0.19    0.39
   7   2  23    0.03    0.29
   7   2  24    2.12    0.31
   7   2  25    4.14    0.56
   7   2  26    1.15    0.54
   7   3   0    3.18    0.27
   7   3   1    6.00    0.29
   7   3   2    1.36    0.18
   7   3   3    0.05    0.17
   7   3   4    9.38    0.38
   7   3   5    8.11    0.24
   7   3   6    1.26    0.18
   7   3   7   11.14    0.26
   7   3   8    1.61    0.24
   7   3   9    5.21    0.53
   7   3  10    0.45    0.26
   7   3  11    0.34    0.21
   7   3  12    9.30    0.26
   7   3  13    0.07    0.31
   7   3  14   10.69    0.38
   7   3  15    0.87    0.38
   7   3  16    0.32    0.24
   7   3  17    8.16    0.42
   7   3  18    0.57    0.23
   7   3  19    7.52    0.33
   7   3  20    0.24    0.27
   7   3  21    2.30    0.29
   7   3  22    0.01    0.29
   7   3  23    4.66    0.33
   7   3  24    3.92    0.50
   7   3  25    0.56    0.33
   7   3  26    2.61    0.36
   7   4   0    4.41    0.31
   7   4   1    0.28    0.18
   7   4   2    6.46    0.27
   7   4   3    2.19    0.18
   7   4   4    1.00    0.17
   7   4   5    2.87    0.17
   7   4   6    0.60    0.17
   7   4   7    0.44    0.16
   7   4   8    6.94    0.23
   7   4   9   18.34    0.45
   7   4  10    0.04    0.26
   7   4  11    3.73    0.28
   7   4  12    2.56    0.29
   7   4  13    0.00    0.19
   7   4  14   16.59    0.34
   7   4  15   18.82    0.46
   7   4  16    9.27    0.39
   7   4  17    2.24    0.25
   7   4  18    0.07    0.23
   7   4  19    2.08    0.26
   7   4  20    0.99    0.29
   7   4  21    0.47    0.33
   7   4  22    5.23    0.34
   7   4  23    2.18    0.57
   7   4  24    0.99    1.08
   7   4  25    0.02    0.40
   7   4  26    4.55    0.50
   7   5   0    5.15    0.25
   7   5   1    0.82    0.19
   7   5   2   13.06    0.35
   7   5   3    0.33    0.19
   7   5   4    4.62    0.27
   7   5   5   19.88    0.44
   7   5   6    1.13    0.18
   7   5   7   22.61    0.65
   7   5   8   10.47    0.24
   7   5   9    4.43    0.47
   7   5  10    3.78    0.23
   7   5  11    0.86    0.37
   7   5  12    7.51    0.26
   7   5  13    0.04    0.21
   7   5  14    0.19    0.21
   7   5  15   11.36    0.33
   7   5  16    1.19    0.23
   7   5  17   10.55    0.52
   7   5  18    0.17    0.24
   7   5  19    6.12    0.34
   7   5  20    0.65    0.30
   7   5  21    1.04    0.32
   7   5  22    0.85    0.32
   7   5  23    0.31    0.31
   7   5  24   15.34    0.69
   7   5  25    0.04    0.41
   7   5  26    0.10    0.43
   7   6   0    9.14    0.32
   7   6   1    0.68    0.20
   7   6   2   14.01    0.38
   7   6   3   25.87    0.54
   7   6   4    3.13    0.22
   7   6   5    0.03    0.18
   7   6   6    9.60    0.31
   7   6   7    5.20    0.20
   7   6   8    1.41    0.45
   7   6   9    1.06    0.19
   7   6  10    3.21    0.17
   7   6  11    1.69    0.18
   7   6  12    2.12    0.26
   7   6  13    3.19    0.24
   7   6  14    1.80    0.22
   7   6  15    2.16    0.27
   7   6  16    0.02    0.23
   7   6  17    0.05    0.24
   7   6  18    6.30    0.35
   7   6  19    0.55    0.26
   7   6  20    2.63    0.39
   7   6  21    0.12    0.31
   7   6  22    0.14    0.39
   7   6  23    7.14    0.58
   7   6  24    0.12    0.40
   7   6  25    5.10    0.49
   7   6  26    0.06    0.44
   7   7   0    4.03    0.24
   7   7   1   14.63    0.41
   7   7   2    3.12    0.36
   7   7   3   32.27    0.58
   7   7   4    4.80    0.25
   7   7   5   10.26    0.37
   7   7   6    0.14    0.18
   7   7   7    1.01    0.18
   7   7   8    5.65    0.22
   7   7   9    0.47    0.24
   7   7  10    6.41    0.29
   7   7  11    4.21    0.17
   7   7  12    2.84    0.18
   7   7  13    7.50    0.40
   7   7  14    0.01    0.23
   7   7  15    7.33    0.28
   7   7  16    0.12    0.34
   7   7  17    0.04    0.25
   7   7  18    0.12    0.26
   7   7  19    0.32    0.38
   7   7  20    0.60    0.39
   7   7  21   11.45    0.67
   7   7  22    0.05    0.41
   7   7  23    0.65    0.42
   7   7  24    1.98    0.44
   7   7  25    0.13    0.43
   7   8   0    0.35    0.28
   7   8   1   15.33    0.54
   7   8   2    1.09    0.78
   7   8   3    4.84    0.30
   7   8   4    0.29    0.19
   7   8   5    3.70    0.23
   7   8   6   12.06    0.37
   7   8   7    3.16    0.22
   7   8   8    0.38    0.19
   7   8   9    0.76    0.19
   7   8  10    2.40    0.37
   7   8  11    7.37    0.27
   7   8  12    1.77    0.17
   7   8  13   27.99    0.69
   7   8  14    0.13    0.27
   7   8  15    2.82    0.36
   7   8  16    2.73    0.32
   7   8  17    2.11    0.56
   7   8  18    6.34    0.40
   7   8  19    0.98    0.41
   7   8  20    3.16    0.47
   7   8  21    0.06    0.40
   7   8  22    1.16    0.43
   7   8  23    8.98    0.67
   7   8  24    0.67    0.45
   7   8  25    3.83    0.50
   7   9   0    4.63    0.25
   7   9   1   22.76    0.49
   7   9   2    2.90    0.25
   7   9   3   22.30    0.47
   7   9   4    4.19    0.36
   7   9   5    0.09    0.20
   7   9   6    0.28    0.21
   7   9   7    0.21    0.21
   7   9   8    0.03    0.19
   7   9   9    5.63    0.41
   7   9  10    0.50    0.21
   7   9  11    2.97    0.30
   7   9  12    0.32    0.20
   7   9  13    4.46    0.32
   7   9  14    0.01    0.35
   7   9  15    3.04    0.44
   7   9  16    1.23    0.32
   7   9  17    1.93    0.84
   7   9  18    2.67    0.42
   7   9  19    0.55    0.39
   7   9  20   10.45    0.59
   7   9  21    1.94    0.45
   7   9  22    3.75    0.51
   7   9  23    0.23    0.43
   7   9  24    0.54    0.45
   7   9  25    0.01    0.45
   7  10   0    8.61    0.39
   7  10   1   37.99    0.76
   7  10   2   48.90    0.97
   7  10   3    7.21    0.41
   7  10   4    7.72    0.35
   7  10   5    0.42    0.20
   7  10   6    8.94    0.38
   7  10   7    0.12    0.21
   7  10   8    0.18    0.21
   7  10   9    0.00    0.21
   7  10  10    0.03    0.21
   7  10  11    0.04    0.21
   7  10  12    2.37    0.32
   7  10  13   14.79    0.42
   7  10  14    0.07    0.66
   7  10  15    9.78    0.77
   7  10  16   14.21    0.52
   7  10  17    0.10    0.32
   7  10  18    4.81    0.47
   7  10  19    7.42    0.62
   7  10  20    0.31    0.42
   7  10  21   11.79    0.66
   7  10  22    1.59    0.46
   7  10  23    5.29    0.57
   7  10  24    0.00    0.43
   7  11   0   12.93    0.45
   7  11   1    1.70    0.26
   7  11   2    4.28    0.48
   7  11   3    9.35    0.40
   7  11   4    7.25    0.43
   7  11   5    3.85    0.27
   7  11   6    1.94    0.24
   7  11   7    3.49    0.29
   7  11   8    0.31    0.22
   7  11   9    0.36    0.24
   7  11  10    0.02    0.38
   7  11  11    0.56    0.26
   7  11  12    2.40    0.39
   7  11  13    1.81    0.23
   7  11  14    6.58    0.29
   7  11  15    1.26    0.35
   7  11  16    0.08    0.58
   7  11  17    1.29    0.44
   7  11  18    0.00    0.42
   7  11  19    7.52    0.60
   7  11  20    0.26    0.42
   7  11  21    0.03    0.42
   7  11  22    1.62    0.45
   7  11  23    0.67    0.46
   7  11  24    1.81    0.52
   7  12   0    5.87    0.34
   7  12   1    7.05    0.35
   7  12   2   23.55    0.60
   7  12   3    1.39    0.42
   7  12   4    1.55    0.26
   7  12   5    3.57    0.30
   7  12   6    0.53    0.28
   7  12   7    0.73    0.33
   7  12   8    0.00    0.26
   7  12   9    0.10    0.31
   7  12  10    0.21    0.25
   7  12  11    0.37    0.27
   7  12  12    0.17    0.27
   7  12  13    0.05    0.26
   7  12  14    3.51    0.29
   7  12  15    9.42    0.61
   7  12  16    0.27    0.42
   7  12  17    0.50    0.43
   7  12  18    0.67    0.44
   7  12  19    3.51    0.50
   7  12  20    0.58    0.45
   7  12  21    2.49    0.46
   7  12  22    0.12    0.44
   7  12  23    0.33    0.46
   7  13   0   21.92    0.67
   7  13   1    0.47    0.28
   7  13   2    0.06    0.27
   7  13   3    0.11    0.35
   7  13   4    0.82    0.28
   7  13   5    4.05    0.30
   7  13   6    0.02    0.27
   7  13   7    8.67    0.46
   7  13   8    0.70    0.32
   7  13   9    3.57    0.33
   7  13  10    1.38    0.29
   7  13  11    0.95    0.29
   7  13  12    1.37    0.41
   7  13  13    1.07    0.31
   7  13  14    2.73    0.31
   7  13  15    5.20    0.52
   7  13  16    5.08    0.53
   7  13  17    8.98    0.65
   7  13  18    0.00    0.42
   7  13  19    3.61    0.50
   7  13  20    0.94    0.47
   7  13  21    3.37    0.51
   7  13  22    0.13    0.45
   7  13  23    0.00    0.46
   7  14   0    7.73    0.46
   7  14   1   21.23    0.60
   7  14   2    7.10    0.43
   7  14   3    1.66    0.30
   7  14   4    0.09    0.33
   7  14   5    0.50    0.29
   7  14   6    1.74    0.29
   7  14   7    0.41    0.28
   7  14   8    1.37    0.31
   7  14   9    2.71    0.31
   7  14  10    1.11    0.33
   7  14  11    0.49    0.29
   7  14  12    0.30    0.29
   7  14  13    1.85    0.31
   7  14  14    0.01    0.29
   7  14  15    3.94    0.34
   7  14  16    1.30    0.45
   7  14  17    0.30    0.44
   7  14  18    5.31    0.56
   7  14  19    2.77    0.52
   7  14  20    1.99    0.50
   7  14  21    0.25    0.46
   7  14  22    0.22    0.47
   7  15   0    5.03    0.36
   7  15   1    9.69    0.44
   7  15   2    0.40    0.51
   7  15   3    6.93    0.44
   7  15   4    1.11    0.31
   7  15   5    4.97    0.33
   7  15   6    0.77    0.30
   7  15   7    0.02    0.49
   7  15   8    7.95    0.93
   7  15   9    2.80    0.33
   7  15  10    9.73    0.47
   7  15  11    1.28    0.31
   7  15  12    0.71    0.30
   7  15  13    0.19    0.29
   7  15  14    2.60    0.33
   7  15  15   13.02    0.91
   7  15  16    2.63    0.48
   7  15  17    5.02    0.53
   7  15  18    0.80    0.48
   7  15  19    0.53    0.47
   7  15  20    2.94    0.55
   7  15  21    2.87    0.52
   7  16   0    9.83    0.67
   7  16   1    0.89    0.36
   7  16   2    1.68    0.51
   7  16   3    1.52    0.42
   7  16   4    0.82    0.51
   7  16   5    1.02    0.32
   7  16   6    7.14    0.38
   7  16   7    0.30    0.32
   7  16   8    0.13    0.31
   7  16   9    1.52    0.31
   7  16  10    2.81    0.34
   7  16  11    8.29    0.47
   7  16  12    0.00    0.30
   7  16  13    9.69    0.45
   7  16  14    2.26    0.33
   7  16  15    0.88    0.32
   7  16  16    6.10    0.56
   7  16  17    1.70    0.47
   7  16  18    6.61    0.59
   7  16  19    0.03    0.47
   7  16  20    3.88    0.56
   7  17   0    6.16    0.42
   7  17   1    1.30    0.30
   7  17   2    1.69    0.33
   7  17   3    0.26    0.31
   7  17   4    0.01    0.30
   7  17   5    0.04    0.42
   7  17   6    6.07    0.40
   7  17   7    4.71    0.36
   7  17   8    8.13    0.81
   7  17   9    0.00    0.31
   7  17  10    0.62    0.32
   7  17  11    4.61    0.36
   7  17  12    0.20    0.32
   7  17  13    2.24    0.34
   7  17  14    0.35    0.42
   7  17  15    1.94    0.41
   7  17  16    0.58    0.46
   7  17  17    0.44    0.46
   7  17  18    5.97    0.56
   7  17  19    0.00    0.46
   7  18   0    1.62    0.77
   7  18   1    0.14    0.31
   7  18   2    3.84    0.35
   7  18   3    0.39    0.31
   7  18   4    0.44    0.32
   7  18   5    1.12    0.33
   7  18   6    5.07    0.37
   7  18   7    3.96    0.37
   7  18   8    3.24    0.36
   7  18   9   17.82    0.56
   7  18  10    0.40    0.32
   7  18  11    3.60    0.36
   7  18  12    1.78    0.35
   7  18  13    1.65    0.34
   7  18  14    5.95    0.40
   7  18  15    0.36    0.35
   7  18  16    1.17    0.49
   7  18  17    0.85    0.49
   7  19   0    1.16    0.32
   7  19   1    0.68    0.32
   7  19   2    0.53    0.32
   7  19   3    0.66    0.33
   7  19   4    1.58    0.34
   7  19   5    0.09    0.32
   7  19   6    0.32    0.36
   7  19   7    1.88    0.34
   7  19   8    0.07    0.68
   7  19   9    0.02    0.33
   7  19  10    1.15    0.34
   7  19  11    2.55    0.65
   7  19  12    0.42    0.59
   7  19  13    0.93    0.35
   7  19  14    0.00    0.43
   7  19  15    0.00    0.33
   7  20   0    0.79    0.34
   7  20   1    0.47    0.33
   7  20   2    1.32    0.33
   7  20   3    0.90    0.34
   7  20   4    1.24    0.34
   7  20   5    0.56    0.39
   7  20   6    0.04    0.76
   7  20   7    4.14    0.48
   7  20   8    0.01    0.40
   7  20   9    5.72    0.41
   7  20  10    0.61    0.43
   7  20  11    0.34    0.35
   7  20  12    1.27    0.34
   7  20  13    0.21    0.35
   7  21   0    0.21    0.33
   7  21   1    2.49    0.36
   7  21   2    0.39    0.33
   7  21   3    0.14    0.33
   7  21   4    0.04    0.33
   7  21   5    0.09    0.33
   7  21   6    0.02    0.34
   7  21   7    0.31    0.83
   7  21   8    3.70    0.49
   7  21   9    0.81    0.35
   7  21  10    3.50    0.39
   8 -17   0    0.11    0.35
   8 -17   1    1.17    0.35
   8 -17   2    1.13    0.36
   8 -17   3    0.33    0.34
   8 -17   4    0.00    0.33
   8 -17   5    0.15    0.32
   8 -16   0    0.85    0.36
   8 -16   1    0.30    0.52
   8 -16   2    0.76    0.34
   8 -16   3    0.50    0.32
   8 -16   4    1.58    0.33
   8 -16   5    0.18    0.32
   8 -16   6    0.48    0.38
   8 -16   7    0.00    0.30
   8 -16   8    1.01    0.31
   8 -16   9    0.48    0.50
   8 -15   0    2.13    0.58
   8 -15   1    0.88    0.34
   8 -15   2    0.35    0.42
   8 -15   3    1.48    0.33
   8 -15   4    0.01    0.31
   8 -15   5    0.00    0.30
   8 -15   6    0.57    0.31
   8 -15   7    4.84    0.40
   8 -15   8    0.22    0.29
   8 -15   9    0.54    0.49
   8 -15  10    1.03    0.49
   8 -15  11    0.19    0.46
   8 -14   0    0.21    0.32
   8 -14   1    1.17    0.33
   8 -14   2    1.44    0.34
   8 -14   3    0.14    0.31
   8 -14   4    3.13    0.32
   8 -14   5    0.91    0.54
   8 -14   6    1.28    0.54
   8 -14   7    0.00    0.49
   8 -14   8    0.00    0.27
   8 -14   9    2.62    0.51
   8 -14  10    0.75    0.48
   8 -14  11    2.38    0.48
   8 -14  12    0.01    0.42
   8 -14  13    0.01    0.40
   8 -13   0    9.24    0.90
   8 -13   1    0.04    0.31
   8 -13   2    8.69    0.46
   8 -13   3    0.50    0.30
   8 -13   4    2.52    0.32
   8 -13   5    5.54    0.34
   8 -13   6    0.56    0.28
   8 -13   7    6.71    1.00
   8 -13   8    2.70    0.28
   8 -13   9    2.31    0.49
   8 -13  10    0.00    0.43
   8 -13  11    4.32    0.50
   8 -13  12    1.14    0.42
   8 -13  13    0.17    0.39
   8 -13  14    1.56    0.39
   8 -13  15    0.00    0.35
   8 -12   0    0.33    0.41
   8 -12   1    0.04    0.31
   8 -12   2    0.62    0.30
   8 -12   3    2.17    0.31
   8 -12   4    0.14    0.27
   8 -12   5    1.05    0.36
   8 -12   6    2.97    0.30
   8 -12   7    1.09    0.26
   8 -12   8    3.09    0.35
   8 -12   9    0.82    0.25
   8 -12  10    0.25    0.43
   8 -12  11    0.32    0.42
   8 -12  12    1.84    0.42
   8 -12  13    0.20    0.38
   8 -12  14    0.10    0.35
   8 -12  15    1.85    0.36
   8 -12  16    0.89    0.32
   8 -11   0   10.96    0.50
   8 -11   1    0.07    0.29
   8 -11   2    0.51    0.29
   8 -11   3    0.47    0.28
   8 -11   4    0.50    0.28
   8 -11   5    2.71    0.47
   8 -11   6    0.05    0.25
   8 -11   7    4.50    0.44
   8 -11   8   15.09    0.72
   8 -11   9    7.29    0.37
   8 -11  10    5.20    0.47
   8 -11  11    0.01    0.40
   8 -11  12    1.72    0.40
   8 -11  13    0.01    0.37
   8 -11  14    1.89    0.36
   8 -11  15    2.96    0.35
   8 -11  16    0.02    0.29
   8 -11  17    1.67    0.28
   8 -10   0    0.61    0.31
   8 -10   1    4.20    0.33
   8 -10   2    3.58    0.33
   8 -10   3    6.93    0.37
   8 -10   4    0.10    0.27
   8 -10   5    8.22    0.71
   8 -10   6   10.44    0.44
   8 -10   7    0.24    0.27
   8 -10   8    3.17    0.26
   8 -10   9    0.12    0.31
   8 -10  10    1.63    0.43
   8 -10  11    1.66    0.40
   8 -10  12    0.41    0.36
   8 -10  13    7.65    0.59
   8 -10  14    1.20    0.33
   8 -10  15    7.02    0.45
   8 -10  16    1.98    0.30
   8 -10  17    0.00    0.24
   8  -9   0    5.35    0.42
   8  -9   1    0.16    0.27
   8  -9   2    4.45    0.31
   8  -9   3    2.25    0.30
   8  -9   4    3.19    0.28
   8  -9   5    0.29    0.25
   8  -9   6    2.65    0.28
   8  -9   7    5.12    0.32
   8  -9   8    7.22    0.36
   8  -9   9    9.67    0.38
   8  -9  10    0.02    0.20
   8  -9  11    0.04    0.36
   8  -9  12    0.64    0.35
   8  -9  13    0.15    0.33
   8  -9  14    5.05    0.47
   8  -9  15    0.80    0.30
   8  -9  16    3.32    0.30
   8  -9  17    0.09    0.24
   8  -8   0    0.45    0.30
   8  -8   1    4.87    0.67
   8  -8   2    0.18    0.26
   8  -8   3    4.42    0.32
   8  -8   4    3.69    0.28
   8  -8   5    1.72    0.25
   8  -8   6   15.87    0.46
   8  -8   7   16.93    0.47
   8  -8   8    7.32    0.56
   8  -8   9    4.60    0.29
   8  -8  10    2.12    0.23
   8  -8  11    3.79    0.39
   8  -8  12    9.49    0.57
   8  -8  13    4.61    0.48
   8  -8  14    0.30    0.30
   8  -8  15    0.92    0.30
   8  -8  16    1.62    0.29
   8  -8  17    0.24    0.25
   8  -7   0    4.67    0.32
   8  -7   1    4.05    0.66
   8  -7   2    6.13    0.30
   8  -7   3    0.43    0.25
   8  -7   4    3.97    0.31
   8  -7   5   12.06    0.43
   8  -7   6    2.62    0.28
   8  -7   7    0.24    0.22
   8  -7   8    0.33    0.21
   8  -7   9    4.27    0.32
   8  -7  10    1.07    0.21
   8  -7  11    1.99    0.20
   8  -7  12    2.79    0.35
   8  -7  13    1.77    0.35
   8  -7  14    5.48    0.50
   8  -7  15    0.00    0.29
   8  -7  16    1.17    0.28
   8  -7  17    0.22    0.25
   8  -7  18    0.57    0.25
   8  -6   0    0.44    0.26
   8  -6   1    2.98    0.26
   8  -6   2    3.88    0.36
   8  -6   3    1.76    0.25
   8  -6   4    0.59    0.25
   8  -6   5    0.03    0.22
   8  -6   6    1.87    0.24
   8  -6   7    9.34    0.36
   8  -6   8    0.53    0.21
   8  -6   9    4.77    0.28
   8  -6  10    2.61    0.25
   8  -6  11    5.02    0.33
   8  -6  12    0.23    0.35
   8  -6  13    1.28    0.37
   8  -6  14    1.54    0.32
   8  -6  15    2.56    0.35
   8  -6  16    0.88    0.29
   8  -6  17    0.61    0.28
   8  -6  18    0.49    0.27
   8  -6  19    0.62    0.27
   8  -6  20    0.53    0.26
   8  -5   0   23.43    0.48
   8  -5   1    2.69    0.26
   8  -5   2    1.26    0.24
   8  -5   3    2.67    0.24
   8  -5   4    0.08    0.22
   8  -5   5    1.21    0.22
   8  -5   6    0.37    0.21
   8  -5   7   10.94    0.37
   8  -5   8    0.13    0.19
   8  -5   9    2.54    0.25
   8  -5  10    3.45    0.26
   8  -5  11    2.53    0.24
   8  -5  12    4.84    0.20
   8  -5  13    0.54    0.33
   8  -5  14    0.68    0.34
   8  -5  15    0.86    0.30
   8  -5  16    1.47    0.31
   8  -5  17    0.28    0.30
   8  -5  18    0.15    0.31
   8  -5  19    0.24    0.30
   8  -5  20    0.53    0.30
   8  -4   0    4.09    0.25
   8  -4   1    1.25    0.18
   8  -4   2    6.17    0.30
   8  -4   3    3.12    0.25
   8  -4   4    1.65    0.23
   8  -4   5    2.10    0.23
   8  -4   6    5.55    0.50
   8  -4   7    2.18    0.44
   8  -4   8    2.23    0.34
   8  -4   9    1.19    0.31
   8  -4  10    0.65    0.19
   8  -4  11    0.75    0.18
   8  -4  12    1.45    0.19
   8  -4  13    2.93    0.28
   8  -4  14    6.34    0.40
   8  -4  15    0.15    0.32
   8  -4  16    2.79    0.37
   8  -4  17    2.06    0.35
   8  -4  18    0.01    0.32
   8  -4  19    1.14    0.34
   8  -4  20    1.65    0.35
   8  -4  21    0.21    0.23
   8  -4  22    1.37    0.34
   8  -4  23    1.85    0.35
   8  -3   0   12.11    0.34
   8  -3   1    0.03    0.17
   8  -3   2    2.62    0.18
   8  -3   3    2.08    0.25
   8  -3   4    3.97    0.26
   8  -3   5    0.23    0.33
   8  -3   6    0.49    0.21
   8  -3   7    1.12    0.63
   8  -3   8    1.26    0.40
   8  -3   9    0.87    0.20
   8  -3  10   15.00    0.47
   8  -3  11    1.31    0.20
   8  -3  12   10.35    0.28
   8  -3  13    2.26    0.46
   8  -3  14    2.46    0.25
   8  -3  15    9.12    0.55
   8  -3  16    1.23    0.34
   8  -3  17   12.64    0.69
   8  -3  18    0.15    0.35
   8  -3  19    0.01    0.35
   8  -3  20    5.76    0.37
   8  -3  21    0.00    0.24
   8  -3  22    3.52    0.40
   8  -3  23    0.08    0.36
   8  -2   0    0.03    0.18
   8  -2   1    6.53    0.25
   8  -2   2    0.94    0.17
   8  -2   3    0.10    0.15
   8  -2   4    0.09    0.21
   8  -2   5    0.86    0.28
   8  -2   6    0.07    0.28
   8  -2   7    0.56    0.47
   8  -2   8    0.90    0.21
   8  -2   9    3.08    0.21
   8  -2  10    0.00    0.23
   8  -2  11    1.31    0.25
   8  -2  12    0.02    0.27
   8  -2  13    8.86    0.29
   8  -2  14    0.40    0.20
   8  -2  15    1.35    0.22
   8  -2  16    1.11    0.37
   8  -2  17    3.43    0.41
   8  -2  18    1.07    0.39
   8  -2  19    0.54    0.26
   8  -2  20    3.33    0.29
   8  -2  21    0.37    0.27
   8  -2  22    0.13    0.37
   8  -2  23    3.33    0.42
   8  -2  24    0.01    0.39
   8  -1   0    3.86    0.48
   8  -1   1    3.14    0.49
   8  -1   2    1.42    0.48
   8  -1   3    1.00    0.17
   8  -1   4    0.08    0.38
   8  -1   5    0.00    0.21
   8  -1   6    0.02    0.21
   8  -1   7    1.74    0.22
   8  -1   8    0.08    0.20
   8  -1   9    2.93    0.40
   8  -1  10    2.93    0.40
   8  -1  11    4.06    0.22
   8  -1  12    3.56    0.72
   8  -1  13    2.11    0.25
   8  -1  14    0.42    0.24
   8  -1  15    2.22    0.21
   8  -1  16    0.00    0.21
   8  -1  17    0.20    0.22
   8  -1  18    2.76    0.29
   8  -1  19    0.53    0.28
   8  -1  20    4.46    0.34
   8  -1  21    0.08    0.32
   8  -1  22    0.64    0.40
   8  -1  23    0.01    0.41
   8  -1  24    0.02    0.42
   8   0   0    1.49    0.81
   8   0   1    1.08    0.32
   8   0   2    4.93    0.37
   8   0   3    0.56    0.17
   8   0   4   26.53    0.54
   8   0   5    2.55    0.17
   8   0   6    0.17    0.21
   8   0   7    0.04    0.21
   8   0   8    0.20    0.20
   8   0   9    6.25    0.24
   8   0  10    1.70    0.23
   8   0  11   13.79    0.49
   8   0  12    0.04    0.20
   8   0  13    0.14    0.29
   8   0  14    6.84    0.38
   8   0  15    0.16    0.22
   8   0  16   12.61    1.00
   8   0  17    1.79    0.28
   8   0  18    1.10    0.21
   8   0  19    0.91    0.21
   8   0  20    0.11    0.32
   8   0  21    2.46    0.33
   8   0  22    1.82    0.44
   8   0  23    0.32    0.44
   8   0  24    0.03    0.44
   8   1   0    1.97    0.19
   8   1   1    0.07    0.35
   8   1   2    9.41    0.38
   8   1   3    0.39    0.17
   8   1   4    1.25    0.19
   8   1   5    1.34    0.38
   8   1   6    1.58    0.31
   8   1   7   15.41    0.47
   8   1   8    4.09    0.23
   8   1   9    0.03    0.21
   8   1  10    0.32    0.21
   8   1  11    4.97    0.27
   8   1  12    0.80    0.38
   8   1  13    0.17    0.49
   8   1  14    6.21    0.47
   8   1  15    1.08    0.28
   8   1  16    0.20    0.20
   8   1  17    7.09    0.31
   8   1  18    1.52    0.22
   8   1  19    0.28    0.22
   8   1  20    0.34    0.22
   8   1  21    0.27    0.23
   8   1  22    0.28    0.44
   8   1  23    0.36    0.45
   8   1  24    0.25    0.46
   8   1  25    0.08    0.46
   8   2   0    2.70    0.33
   8   2   1    0.39    0.19
   8   2   2   30.68    0.59
   8   2   3    0.14    0.27
   8   2   4   14.16    0.82
   8   2   5    0.35    0.16
   8   2   6    0.07    0.41
   8   2   7    1.86    0.19
   8   2   8    0.69    0.23
   8   2   9    0.60    0.22
   8   2  10    4.19    0.30
   8   2  11   18.34    0.61
   8   2  12    2.49    0.22
   8   2  13    4.89    0.41
   8   2  14    2.05    0.45
   8   2  15    7.88    0.36
   8   2  16    6.62    0.27
   8   2  17    0.81    0.29
   8   2  18    2.19    0.23
   8   2  19    4.13    0.26
   8   2  20    0.16    0.23
   8   2  21    5.42    0.30
   8   2  22    3.06    0.33
   8   2  23    1.21    0.30
   8   2  24    0.63    0.49
   8   2  25    0.00    0.49
   8   3   0    0.76    0.21
   8   3   1    0.11    0.19
   8   3   2    0.23    0.18
   8   3   3    7.74    0.53
   8   3   4    0.94    0.17
   8   3   5   20.36    0.67
   8   3   6    2.88    0.20
   8   3   7    4.05    0.27
   8   3   8    0.07    0.23
   8   3   9    0.11    0.22
   8   3  10    9.08    0.33
   8   3  11    0.05    0.43
   8   3  12    0.00    0.23
   8   3  13    2.96    0.30
   8   3  14    5.39    0.29
   8   3  15    5.37    0.34
   8   3  16    0.28    0.22
   8   3  17   13.81    0.40
   8   3  18    0.48    0.23
   8   3  19    1.28    0.25
   8   3  20    6.59    0.32
   8   3  21    0.13    0.25
   8   3  22    4.09    0.33
   8   3  23    1.05    0.32
   8   3  24    3.93    0.35
   8   3  25    0.07    0.64
   8   4   0    0.63    0.23
   8   4   1    2.96    0.22
   8   4   2   13.97    0.49
   8   4   3    4.18    0.20
   8   4   4    4.90    0.48
   8   4   5    6.10    0.22
   8   4   6    0.47    0.17
   8   4   7   23.91    0.52
   8   4   8    0.04    0.16
   8   4   9    0.32    0.24
   8   4  10    0.73    0.26
   8   4  11    0.71    0.35
   8   4  12    0.14    0.35
   8   4  13    1.73    0.33
   8   4  14    2.09    0.30
   8   4  15    3.60    0.25
   8   4  16    0.70    0.24
   8   4  17    0.40    0.24
   8   4  18    2.37    0.38
   8   4  19    2.80    0.26
   8   4  20    0.11    0.28
   8   4  21    6.73    0.32
   8   4  22    3.93    0.58
   8   4  23   11.81    0.50
   8   4  24    3.24    0.37
   8   4  25    3.56    0.47
   8   5   0   10.03    0.33
   8   5   1    9.36    0.34
   8   5   2    2.23    0.22
   8   5   3   20.14    0.47
   8   5   4    4.57    0.21
   8   5   5    8.80    0.29
   8   5   6    0.28    0.19
   8   5   7    1.48    0.20
   8   5   8   14.20    0.38
   8   5   9    0.02    0.17
   8   5  10   43.96    0.87
   8   5  11    0.09    0.26
   8   5  12    0.59    0.45
   8   5  13   10.21    0.39
   8   5  14    0.05    0.26
   8   5  15    7.03    0.38
   8   5  16    0.24    0.24
   8   5  17   12.71    0.43
   8   5  18    0.12    0.25
   8   5  19    0.92    0.26
   8   5  20   12.76    0.43
   8   5  21    3.04    0.32
   8   5  22    0.07    0.31
   8   5  23    0.11    0.38
   8   5  24    6.80    0.59
   8   5  25    0.21    0.42
   8   6   0   10.09    0.45
   8   6   1    2.10    0.23
   8   6   2    1.02    0.21
   8   6   3    0.70    0.20
   8   6   4   10.87    0.35
   8   6   5   28.59    0.48
   8   6   6    0.56    0.19
   8   6   7    1.89    0.25
   8   6   8    2.80    0.26
   8   6   9    0.61    0.19
   8   6  10    0.00    0.46
   8   6  11    4.03    0.29
   8   6  12    0.72    0.26
   8   6  13    0.30    0.27
   8   6  14    1.22    0.29
   8   6  15    0.03    0.24
   8   6  16    3.35    0.31
   8   6  17    1.26    0.27
   8   6  18    3.06    0.29
   8   6  19    0.42    0.27
   8   6  20    0.01    0.34
   8   6  21    0.02    0.39
   8   6  22    0.13    0.39
   8   6  23    8.97    0.60
   8   6  24    1.38    0.43
   8   7   0    0.46    0.21
   8   7   1    7.30    0.31
   8   7   2    0.46    0.21
   8   7   3   33.74    0.64
   8   7   4    0.21    0.32
   8   7   5    2.27    0.21
   8   7   6    5.02    0.23
   8   7   7    1.03    0.22
   8   7   8   12.15    0.36
   8   7   9    0.17    0.19
   8   7  10    4.96    0.22
   8   7  11    9.40    0.46
   8   7  12   15.18    0.54
   8   7  13    7.23    0.34
   8   7  14   14.47    0.66
   8   7  15    2.89    0.29
   8   7  16    7.25    0.35
   8   7  17    1.24    0.31
   8   7  18    3.73    0.43
   8   7  19    1.14    0.34
   8   7  20    8.69    0.50
   8   7  21    3.14    0.43
   8   7  22    9.03    0.64
   8   7  23    3.51    0.47
   8   7  24    1.01    0.43
   8   8   0    1.61    0.52
   8   8   1    2.59    0.25
   8   8   2   17.11    0.43
   8   8   3    5.14    0.32
   8   8   4   18.53    0.49
   8   8   5    0.12    0.24
   8   8   6    0.33    0.28
   8   8   7    2.81    0.23
   8   8   8    0.18    0.26
   8   8   9    0.30    0.20
   8   8  10    1.74    0.27
   8   8  11    0.19    0.35
   8   8  12    0.90    0.40
   8   8  13    0.67    0.30
   8   8  14    0.50    0.30
   8   8  15    2.25    0.33
   8   8  16    0.80    0.32
   8   8  17    4.16    0.35
   8   8  18    1.48    0.35
   8   8  19    1.02    0.33
   8   8  20    0.16    0.40
   8   8  21    2.92    0.47
   8   8  22    0.01    0.41
   8   8  23    5.25    0.49
   8   8  24    0.59    0.44
   8   9   0    0.24    0.25
   8   9   1    2.50    0.29
   8   9   2    1.09    0.25
   8   9   3    0.19    0.22
   8   9   4    0.13    0.21
   8   9   5    0.00    0.22
   8   9   6    3.73    0.24
   8   9   7    1.14    0.22
   8   9   8    0.45    0.38
   8   9   9    0.49    0.22
   8   9  10    3.66    0.27
   8   9  11    0.19    0.22
   8   9  12    2.15    1.30
   8   9  13    0.47    0.32
   8   9  14    0.54    0.31
   8   9  15    0.96    0.33
   8   9  16    0.85    0.47
   8   9  17    1.13    0.33
   8   9  18    7.62    0.41
   8   9  19    1.93    0.36
   8   9  20    2.94    0.48
   8   9  21    0.08    0.41
   8   9  22    0.19    0.43
   8   9  23    0.00    0.42
   8   9  24    0.07    0.44
   8  10   0    0.55    0.27
   8  10   1    6.22    0.41
   8  10   2   38.27    0.77
   8  10   3   23.87    0.65
   8  10   4    1.42    0.28
   8  10   5   11.68    0.43
   8  10   6    0.02    0.61
   8  10   7    2.34    0.24
   8  10   8    0.01    0.23
   8  10   9    1.73    0.23
   8  10  10    0.10    0.22
   8  10  11    0.01    0.22
   8  10  12    4.19    0.38
   8  10  13    2.75    0.82
   8  10  14    0.80    0.33
   8  10  15    0.16    0.32
   8  10  16    0.00    0.71
   8  10  17    0.88    0.53
   8  10  18    0.72    0.35
   8  10  19    7.93    0.99
   8  10  20    0.38    0.44
   8  10  21    6.08    0.64
   8  10  22    0.03    0.43
   8  10  23    5.52    0.51
   8  11   0    2.42    0.29
   8  11   1    0.56    0.28
   8  11   2   10.83    0.41
   8  11   3   15.46    0.45
   8  11   4    1.34    0.32
   8  11   5    1.32    0.74
   8  11   6    2.89    0.29
   8  11   7    1.05    0.27
   8  11   8    0.00    0.26
   8  11   9    3.29    0.29
   8  11  10   10.79    0.42
   8  11  11    1.31    0.24
   8  11  12    2.81    0.26
   8  11  13    2.16    0.36
   8  11  14    0.07    0.32
   8  11  15    2.43    0.49
   8  11  16    0.00    0.33
   8  11  17    3.84    0.39
   8  11  18    0.39    0.35
   8  11  19    1.64    0.44
   8  11  20    2.58    0.46
   8  11  21    5.15    0.53
   8  11  22    2.37    0.50
   8  11  23    0.49    0.45
   8  12   0   18.50    0.57
   8  12   1    6.00    0.38
   8  12   2   29.24    0.65
   8  12   3    3.42    0.33
   8  12   4    0.03    0.28
   8  12   5    0.30    0.28
   8  12   6    1.59    0.39
   8  12   7    0.84    0.36
   8  12   8    0.02    0.42
   8  12   9    0.01    0.27
   8  12  10    0.01    0.27
   8  12  11    2.70    0.30
   8  12  12    4.02    0.41
   8  12  13   11.53    0.66
   8  12  14    0.17    0.40
   8  12  15    0.40    0.42
   8  12  16    0.11    0.42
   8  12  17    5.44    0.52
   8  12  18    0.12    0.42
   8  12  19    3.46    0.49
   8  12  20    0.09    0.44
   8  12  21    1.32    0.46
   8  12  22    0.68    0.47
   8  13   0    0.34    0.42
   8  13   1    6.94    0.43
   8  13   2   10.02    0.44
   8  13   3    2.97    0.31
   8  13   4    0.00    0.28
   8  13   5    0.07    0.57
   8  13   6    0.75    0.44
   8  13   7    0.05    0.39
   8  13   8    7.81    0.42
   8  13   9    1.73    0.30
   8  13  10   10.78    0.44
   8  13  11    3.32    0.60
   8  13  12    0.04    0.28
   8  13  13    1.82    0.31
   8  13  14    0.40    0.41
   8  13  15    5.85    0.52
   8  13  16    0.01    0.42
   8  13  17    6.33    0.55
   8  13  18   10.60    0.70
   8  13  19    0.38    0.46
   8  13  20   11.65    0.69
   8  13  21    0.57    0.46
   8  14   0    1.40    0.32
   8  14   1    0.42    0.30
   8  14   2    2.71    0.34
   8  14   3    4.44    0.90
   8  14   4    3.50    0.32
   8  14   5    0.08    0.29
   8  14   6    0.95    0.30
   8  14   7    0.01    0.29
   8  14   8    1.15    0.30
   8  14   9    0.27    0.29
   8  14  10    4.55    0.35
   8  14  11    8.02    0.45
   8  14  12    0.00    0.29
   8  14  13    0.28    0.29
   8  14  14    1.01    0.44
   8  14  15    0.99    0.44
   8  14  16    0.31    0.43
   8  14  17    3.72    0.52
   8  14  18    0.00    0.43
   8  14  19    0.15    0.44
   8  14  20    0.82    0.48
   8  14  21    0.15    0.45
   8  15   0    0.48    0.31
   8  15   1   12.61    0.52
   8  15   2    0.00    0.30
   8  15   3    5.30    0.35
   8  15   4    0.73    0.31
   8  15   5    5.56    0.44
   8  15   6    3.72    0.34
   8  15   7    3.13    0.41
   8  15   8   12.54    0.51
   8  15   9    9.82    0.47
   8  15  10    2.84    0.57
   8  15  11    9.03    0.45
   8  15  12    0.70    0.31
   8  15  13    0.01    0.30
   8  15  14    0.02    0.41
   8  15  15    1.00    0.44
   8  15  16    3.36    0.48
   8  15  17    0.22    0.45
   8  15  18    2.02    0.51
   8  15  19    0.57    0.48
   8  15  20    0.22    0.46
   8  16   0    0.25    0.32
   8  16   1    2.07    0.35
   8  16   2    0.56    0.32
   8  16   3    0.15    0.31
   8  16   4    0.96    0.31
   8  16   5    0.06    0.48
   8  16   6    2.35    0.67
   8  16   7    1.11    0.32
   8  16   8    0.37    0.31
   8  16   9    9.17    0.46
   8  16  10    0.08    0.31
   8  16  11    4.28    0.43
   8  16  12    0.00    0.31
   8  16  13    0.05    0.32
   8  16  14    0.39    0.45
   8  16  15    0.00    0.44
   8  16  16    0.55    0.46
   8  16  17    0.46    0.45
   8  16  18    1.76    0.50
   8  17   0    0.26    0.33
   8  17   1    0.25    0.32
   8  17   2    0.04    0.31
   8  17   3    0.58    0.32
   8  17   4    0.42    0.64
   8  17   5    3.37    0.36
   8  17   6    3.03    0.34
   8  17   7    0.62    0.44
   8  17   8    4.49    0.38
   8  17   9    3.31    0.35
   8  17  10    1.00    0.34
   8  17  11   10.09    0.48
   8  17  12    4.47    0.37
   8  17  13    0.91    0.33
   8  17  14    1.03    0.47
   8  17  15    0.06    0.46
   8  17  16    0.48    0.46
   8  17  17    1.38    0.48
   8  18   0    0.63    0.47
   8  18   1    0.06    0.42
   8  18   2    1.71    0.38
   8  18   3    2.02    0.34
   8  18   4    1.31    0.34
   8  18   5    1.62    0.59
   8  18   6    0.08    0.33
   8  18   7    2.71    0.35
   8  18   8    0.20    0.44
   8  18   9    5.50    0.40
   8  18  10    0.75    0.34
   8  18  11    0.01    0.32
   8  18  12    5.46    0.69
   8  18  13    0.19    0.38
   8  18  14    3.16    0.37
   8  18  15    0.03    0.47
   8  19   0    0.03    1.02
   8  19   1    0.00    0.34
   8  19   2    0.00    0.32
   8  19   3    1.04    0.34
   8  19   4    0.90    0.78
   8  19   5    1.75    0.60
   8  19   6    0.63    0.34
   8  19   7    0.76    0.34
   8  19   8    0.42    0.34
   8  19   9    1.61    0.36
   8  19  10    0.94    0.35
   8  19  11    0.83    0.35
   8  19  12    0.74    0.34
   8  19  13    0.46    0.34
   8  20   0    0.50    0.47
   8  20   1    0.56    0.55
   8  20   2    0.46    0.35
   8  20   3    0.54    0.43
   8  20   4    0.44    0.35
   8  20   5    4.50    0.40
   8  20   6    0.48    0.35
   8  20   7    2.99    0.38
   8  20   8    0.28    0.34
   8  20   9    0.02    0.34
   8  20  10    0.21    0.42
   9 -15   0    1.27    0.36
   9 -15   1    1.13    0.35
   9 -15   2    2.61    0.36
   9 -15   3    0.14    0.32
   9 -15   4    2.93    0.35
   9 -15   5    2.32    0.34
   9 -15   6    0.79    0.31
   9 -15   7    0.92    0.32
   9 -14   0    0.14    0.34
   9 -14   1    0.26    0.35
   9 -14   2    1.08    0.60
   9 -14   3    2.73    0.36
   9 -14   4    0.30    0.32
   9 -14   5    0.00    0.31
   9 -14   6    0.85    0.41
   9 -14   7    0.02    0.54
   9 -14   8    0.00    0.29
   9 -14   9    3.32    0.55
   9 -14  10    3.79    0.55
   9 -13   0    4.01    0.38
   9 -13   1    0.56    0.33
   9 -13   2    0.41    0.32
   9 -13   3    0.31    0.52
   9 -13   4    0.00    0.30
   9 -13   5    1.21    0.48
   9 -13   6    0.57    0.36
   9 -13   7    0.13    0.30
   9 -13   8    5.79    0.34
   9 -13   9    1.22    0.50
   9 -13  10    4.72    0.57
   9 -13  11    0.01    0.44
   9 -13  12    0.92    0.44
   9 -12   0    3.40    0.37
   9 -12   1    0.16    0.32
   9 -12   2    2.41    0.34
   9 -12   3    0.70    0.36
   9 -12   4    0.10    0.34
   9 -12   5    1.50    0.31
   9 -12   6    5.44    0.35
   9 -12   7    0.29    0.28
   9 -12   8    0.65    0.28
   9 -12   9    0.08    0.47
   9 -12  10    0.00    0.46
   9 -12  11    4.07    0.53
   9 -12  12    0.11    0.42
   9 -12  13    2.23    0.42
   9 -12  14    0.32    0.38
   9 -11   0    0.43    0.32
   9 -11   1    8.80    0.76
   9 -11   2    0.02    0.30
   9 -11   3    9.75    0.48
   9 -11   4    0.02    0.29
   9 -11   5    0.15    0.28
   9 -11   6    0.37    0.28
   9 -11   7    3.02    0.52
   9 -11   8    1.73    0.49
   9 -11   9    1.31    0.27
   9 -11  10    0.55    0.46
   9 -11  11    0.42    0.43
   9 -11  12    1.81    0.45
   9 -11  13    0.73    0.41
   9 -11  14    1.88    0.39
   9 -11  15    2.55    0.38
   9 -10   0    0.19    0.31
   9 -10   1    0.44    0.30
   9 -10   2    0.28    0.53
   9 -10   3    0.40    0.29
   9 -10   4    0.95    0.29
   9 -10   5    0.99    0.28
   9 -10   6    0.90    0.28
   9 -10   7    6.62    0.65
   9 -10   8    0.01    0.25
   9 -10   9    1.65    0.26
   9 -10  10    0.15    0.44
   9 -10  11    1.95    0.47
   9 -10  12    1.85    0.42
   9 -10  13    1.60    0.39
   9 -10  14    1.31    0.38
   9 -10  15    0.16    0.35
   9 -10  16    2.63    0.35
   9 -10  17    0.33    0.30
   9  -9   0    0.26    0.30
   9  -9   1    5.43    0.38
   9  -9   2    0.71    0.30
   9  -9   3    5.55    0.35
   9  -9   4    0.01    0.28
   9  -9   5    0.20    0.31
   9  -9   6    0.41    0.27
   9  -9   7    1.75    0.39
   9  -9   8    0.08    0.25
   9  -9   9    0.51    0.25
   9  -9  10    0.06    0.23
   9  -9  11    0.31    0.41
   9  -9  12    0.08    0.39
   9  -9  13    1.28    0.38
   9  -9  14    1.36    0.36
   9  -9  15    0.48    0.35
   9  -9  16    0.18    0.33
   9  -9  17    0.57    0.30
   9  -9  18    0.90    0.28
   9  -8   0    0.48    0.38
   9  -8   1    0.93    0.30
   9  -8   2   13.08    0.85
   9  -8   3    1.11    0.30
   9  -8   4    4.04    0.31
   9  -8   5    0.41    0.26
   9  -8   6    0.16    0.25
   9  -8   7    0.33    0.25
   9  -8   8    9.07    0.41
   9  -8   9    0.19    0.24
   9  -8  10    0.02    0.35
   9  -8  11    0.07    0.39
   9  -8  12    0.80    0.41
   9  -8  13    7.07    0.44
   9  -8  14    6.77    0.56
   9  -8  15    0.05    0.34
   9  -8  16    4.97    0.47
   9  -8  17    0.03    0.30
   9  -8  18    0.64    0.29
   9  -8  19    1.41    0.28
   9  -7   0    0.36    0.39
   9  -7   1    2.26    0.31
   9  -7   2    1.85    0.29
   9  -7   3    0.03    0.26
   9  -7   4    0.34    0.31
   9  -7   5    0.62    0.26
   9  -7   6    0.03    0.25
   9  -7   7    0.65    0.25
   9  -7   8    0.63    0.24
   9  -7   9    0.02    0.41
   9  -7  10    4.24    0.26
   9  -7  11    0.53    0.22
   9  -7  12    2.07    0.46
   9  -7  13    0.51    0.38
   9  -7  14    0.45    0.36
   9  -7  15    3.80    0.39
   9  -7  16    2.97    0.39
   9  -7  17    2.74    0.34
   9  -7  18    0.28    0.30
   9  -7  19    0.46    0.29
   9  -7  20    0.24    0.28
   9  -6   0    3.97    0.33
   9  -6   1    0.99    0.28
   9  -6   2   10.74    0.54
   9  -6   3    0.00    0.26
   9  -6   4    2.82    0.67
   9  -6   5    5.26    0.36
   9  -6   6    1.17    0.26
   9  -6   7    5.77    0.34
   9  -6   8    6.78    0.48
   9  -6   9    0.06    0.25
   9  -6  10    4.02    0.25
   9  -6  11    1.46    0.45
   9  -6  12    8.84    0.63
   9  -6  13    0.60    0.40
   9  -6  14    9.01    0.59
   9  -6  15    0.06    0.35
   9  -6  16    4.42    0.39
   9  -6  17    1.51    0.34
   9  -6  18    0.40    0.32
   9  -6  19    2.19    0.35
   9  -6  20    0.54    0.31
   9  -5   0    2.14    0.47
   9  -5   1    0.57    0.28
   9  -5   2    0.20    0.34
   9  -5   3    3.04    0.29
   9  -5   4    1.00    0.52
   9  -5   5    2.32    0.27
   9  -5   6    0.75    0.25
   9  -5   7    0.28    0.25
   9  -5   8    1.24    0.33
   9  -5   9    6.72    0.33
   9  -5  10    3.21    0.31
   9  -5  11    0.14    0.35
   9  -5  12    0.68    0.22
   9  -5  13    4.49    0.45
   9  -5  14    0.22    0.36
   9  -5  15    3.27    0.41
   9  -5  16    0.03    0.34
   9  -5  17    1.93    0.37
   9  -5  18    0.02    0.34
   9  -5  19    0.95    0.35
   9  -5  20    4.20    0.39
   9  -5  21    0.12    0.32
   9  -4   0    6.55    0.38
   9  -4   1    0.65    0.27
   9  -4   2    0.06    0.26
   9  -4   3    0.81    0.27
   9  -4   4    1.80    0.27
   9  -4   5    0.45    0.32
   9  -4   6    2.98    0.28
   9  -4   7    7.68    0.96
   9  -4   8    0.27    0.28
   9  -4   9    4.06    0.44
   9  -4  10    0.16    0.22
   9  -4  11    2.11    0.37
   9  -4  12    0.66    0.22
   9  -4  13    0.25    0.22
   9  -4  14    2.12    0.41
   9  -4  15    0.25    0.37
   9  -4  16    1.13    0.39
   9  -4  17    1.39    0.39
   9  -4  18    0.00    0.37
   9  -4  19    0.00    0.35
   9  -4  20    0.37    0.37
   9  -4  21    0.00    0.36
   9  -3   0    5.13    0.33
   9  -3   1    8.09    0.89
   9  -3   2    2.05    0.35
   9  -3   3    0.85    0.26
   9  -3   4    0.71    0.42
   9  -3   5    6.19    0.67
   9  -3   6    3.41    0.26
   9  -3   7    6.15    0.52
   9  -3   8   10.92    0.59
   9  -3   9    1.10    0.24
   9  -3  10    5.08    0.26
   9  -3  11    0.26    0.22
   9  -3  12    0.05    0.22
   9  -3  13    5.74    0.30
   9  -3  14    2.30    0.22
   9  -3  15    1.51    0.41
   9  -3  16    0.94    0.40
   9  -3  17    1.04    0.39
   9  -3  18    0.57    0.39
   9  -3  19    2.56    0.42
   9  -3  20    2.86    0.41
   9  -3  21    0.42    0.40
   9  -3  22    1.82    0.41
   9  -2   0    2.21    0.22
   9  -2   1    2.26    0.21
   9  -2   2    1.33    0.28
   9  -2   3    0.02    0.25
   9  -2   4   26.66    0.64
   9  -2   5    0.89    0.24
   9  -2   6    1.10    0.69
   9  -2   7    0.18    0.23
   9  -2   8    0.76    0.25
   9  -2   9    0.17    0.24
   9  -2  10    3.50    0.26
   9  -2  11    2.23    0.23
   9  -2  12    0.09    0.30
   9  -2  13    0.03    0.22
   9  -2  14    0.24    0.22
   9  -2  15    2.25    0.25
   9  -2  16    7.93    0.64
   9  -2  17    1.18    0.43
   9  -2  18    3.33    0.45
   9  -2  19    3.86    0.48
   9  -2  20    0.02    0.41
   9  -2  21    0.05    0.42
   9  -2  22    0.02    0.42
   9  -1   0    0.23    0.20
   9  -1   1    6.19    0.29
   9  -1   2    0.00    0.19
   9  -1   3    2.17    0.27
   9  -1   4    1.02    0.26
   9  -1   5    9.77    0.41
   9  -1   6    0.08    0.24
   9  -1   7   24.00    0.61
   9  -1   8    1.38    0.26
   9  -1   9    0.09    0.23
   9  -1  10    0.60    0.25
   9  -1  11    9.51    0.39
   9  -1  12    0.00    0.23
   9  -1  13    4.58    0.30
   9  -1  14    0.51    0.23
   9  -1  15    0.03    0.24
   9  -1  16    3.07    0.26
   9  -1  17    4.45    0.51
   9  -1  18    3.16    0.49
   9  -1  19    6.34    0.64
   9  -1  20    0.01    0.42
   9  -1  21    0.02    0.43
   9  -1  22    2.35    0.31
   9  -1  23    1.34    0.41
   9   0   0    0.91    0.21
   9   0   1    5.44    0.27
   9   0   2    9.08    0.31
   9   0   3    3.93    0.23
   9   0   4   11.01    0.43
   9   0   5    0.53    0.26
   9   0   6    0.98    0.25
   9   0   7   34.09    0.71
   9   0   8    0.02    0.23
   9   0   9   11.60    0.86
   9   0  10    1.27    0.24
   9   0  11    1.83    0.24
   9   0  12    2.33    0.27
   9   0  13    0.14    0.23
   9   0  14    7.95    0.43
   9   0  15    0.01    0.23
   9   0  16    3.30    0.28
   9   0  17    3.16    0.36
   9   0  18    0.07    0.25
   9   0  19    6.89    0.67
   9   0  20    0.06    0.43
   9   0  21    8.49    0.47
   9   0  22    0.26    0.33
   9   0  23    0.48    0.45
   9   1   0    1.04    0.21
   9   1   1    1.85    0.21
   9   1   2    1.60    0.20
   9   1   3   11.18    0.42
   9   1   4    8.12    0.33
   9   1   5    7.84    0.42
   9   1   6    0.00    0.34
   9   1   7    0.04    0.24
   9   1   8   10.21    0.39
   9   1   9    2.15    1.10
   9   1  10   25.00    0.69
   9   1  11    3.28    0.36
   9   1  12    3.14    0.27
   9   1  13    0.77    0.47
   9   1  14    1.89    0.26
   9   1  15    1.56    0.26
   9   1  16    2.09    0.27
   9   1  17    3.89    0.29
   9   1  18    0.76    0.27
   9   1  19    0.08    0.26
   9   1  20    0.33    0.32
   9   1  21    4.48    0.43
   9   1  22    1.31    0.34
   9   1  23    0.89    0.46
   9   2   0    3.40    0.44
   9   2   1    2.06    0.23
   9   2   2   14.70    0.40
   9   2   3    1.81    0.19
   9   2   4    0.67    0.18
   9   2   5   19.83    0.61
   9   2   6    9.86    0.44
   9   2   7   20.17    0.67
   9   2   8    1.06    0.49
   9   2   9    2.07    0.30
   9   2  10   21.79    0.53
   9   2  11    0.08    0.25
   9   2  12    7.31    0.45
   9   2  13    0.59    0.85
   9   2  14    0.03    0.25
   9   2  15    3.49    0.29
   9   2  16    0.30    0.28
   9   2  17    5.29    0.45
   9   2  18    0.28    0.28
   9   2  19    2.53    0.34
   9   2  20    0.71    0.25
   9   2  21    3.56    0.27
   9   2  22    0.12    0.35
   9   2  23    2.89    0.53
   9   3   0    0.61    0.24
   9   3   1    0.81    0.21
   9   3   2    2.65    0.21
   9   3   3    0.03    0.20
   9   3   4    3.76    0.26
   9   3   5    4.18    0.25
   9   3   6    2.25    0.30
   9   3   7    1.17    0.28
   9   3   8   10.87    0.41
   9   3   9    3.24    0.38
   9   3  10    2.40    0.89
   9   3  11    2.91    0.55
   9   3  12    0.14    0.30
   9   3  13    1.92    0.29
   9   3  14    0.47    0.27
   9   3  15    0.06    0.26
   9   3  16    3.68    0.37
   9   3  17    0.05    0.35
   9   3  18    0.97    0.30
   9   3  19    1.09    0.25
   9   3  20    4.03    0.29
   9   3  21    0.80    0.31
   9   3  22    2.06    0.27
   9   3  23    0.52    0.31
   9   4   0    3.62    0.24
   9   4   1    3.23    0.28
   9   4   2    5.82    0.41
   9   4   3   16.94    0.37
   9   4   4    2.29    0.24
   9   4   5   25.24    0.56
   9   4   6    0.00    0.30
   9   4   7   16.96    0.50
   9   4   8    0.26    0.26
   9   4  10    1.16    0.26
   9   4  11    2.04    0.48
   9   4  12    1.87    0.29
   9   4  13    2.52    0.31
   9   4  14    2.16    0.29
   9   4  15    0.60    0.28
   9   4  16    8.28    0.38
   9   4  17    0.01    0.28
   9   4  18    1.51    0.26
   9   4  19    0.58    0.27
   9   4  20    2.25    0.27
   9   4  21    0.17    0.26
   9   4  22    1.09    0.28
   9   4  23    3.00    0.44
   9   5   0    6.06    0.26
   9   5   1   25.75    0.54
   9   5   2    1.46    0.29
   9   5   3   22.71    0.47
   9   5   4    4.51    0.23
   9   5   5    3.62    0.36
   9   5   6   12.63    0.38
   9   5   7    0.69    0.20
   9   5   8    2.14    0.29
   9   5   9    1.56    0.28
   9   5  10    0.35    0.28
   9   5  11    4.93    1.32
   9   5  12    0.28    0.28
   9   5  13    0.00    0.28
   9   5  14    0.76    0.28
   9   5  15    4.04    0.93
   9   5  16    0.05    0.29
   9   5  17    4.16    0.34
   9   5  18    1.51    0.34
   9   5  19    0.70    0.28
   9   5  20    5.17    0.36
   9   5  21    0.10    0.47
   9   5  22    0.00    0.31
   9   5  23    0.15    0.40
   9   6   0    1.13    0.27
   9   6   1    0.19    0.35
   9   6   2    0.60    0.22
   9   6   3    6.98    0.29
   9   6   4    7.45    0.26
   9   6   5    3.40    0.26
   9   6   6    2.29    0.26
   9   6   7    2.20    0.23
   9   6   8    0.77    0.47
   9   6   9    1.36    0.29
   9   6  10    2.04    0.65
   9   6  11    0.43    0.29
   9   6  12    0.82    0.29
   9   6  13    0.00    0.35
   9   6  14    0.34    0.29
   9   6  15    0.06    0.37
   9   6  16    0.68    0.31
   9   6  17    0.07    0.31
   9   6  18    0.08    0.31
   9   6  19    2.19    0.45
   9   6  20    2.67    0.34
   9   6  21    7.99    0.43
   9   6  22    2.86    0.38
   9   6  23    0.02    0.40
   9   7   0    0.03    0.27
   9   7   1    0.79    0.26
   9   7   2    7.31    0.40
   9   7   3    5.43    0.26
   9   7   4   25.22    0.50
   9   7   5    4.28    0.24
   9   7   6    6.37    0.31
   9   7   7    6.04    0.48
   9   7   8    0.22    0.21
   9   7   9    5.46    0.41
   9   7  10    0.79    0.49
   9   7  11    0.01    0.29
   9   7  12    2.14    0.35
   9   7  13    0.31    0.30
   9   7  14    3.67    0.35
   9   7  15    1.04    0.32
   9   7  16    1.74    0.47
   9   7  17    0.17    0.31
   9   7  18    2.23    0.64
   9   7  19    0.19    0.33
   9   7  20    0.90    0.34
   9   7  21    9.78    0.59
   9   7  22    1.26    0.42
   9   7  23    2.72    0.47
   9   8   0    0.55    0.27
   9   8   1    0.24    0.27
   9   8   2   11.40    0.46
   9   8   3    1.32    0.27
   9   8   4    4.27    0.26
   9   8   5    0.29    0.23
   9   8   6    0.11    0.27
   9   8   7    0.46    0.23
   9   8   8    0.07    0.22
   9   8   9    0.00    0.28
   9   8  10    2.91    0.34
   9   8  11    1.56    0.59
   9   8  12   10.66    0.48
   9   8  13    0.61    0.32
   9   8  14    0.81    0.31
   9   8  15    1.98    0.34
   9   8  16    0.13    0.51
   9   8  17    1.88    0.34
   9   8  18    0.04    0.45
   9   8  19    5.77    0.67
   9   8  20    0.43    0.35
   9   8  21    2.50    0.36
   9   8  22    1.59    0.44
   9   8  23    0.03    0.43
   9   9   0    0.05    0.49
   9   9   1    0.67    0.28
   9   9   2    5.87    0.64
   9   9   3    3.41    0.32
   9   9   4   23.80    0.57
   9   9   5    0.79    0.26
   9   9   6    0.00    0.26
   9   9   7    0.85    0.26
   9   9   8    1.80    0.25
   9   9   9    1.82    0.25
   9   9  10    8.04    0.61
   9   9  11    4.08    0.35
   9   9  12    4.64    0.38
   9   9  13    2.77    0.46
   9   9  14    0.04    0.31
   9   9  15    2.82    0.34
   9   9  16    0.09    0.33
   9   9  17    0.03    0.33
   9   9  18    0.07    0.33
   9   9  19    0.43    0.79
   9   9  20    0.15    0.35
   9   9  21    0.77    0.53
   9   9  22    1.30    0.44
   9  10   0    2.82    0.31
   9  10   1    7.17    0.36
   9  10   2   11.65    0.48
   9  10   3    6.73    0.43
   9  10   4    4.65    0.36
   9  10   5    2.03    0.45
   9  10   6    0.23    0.35
   9  10   7    2.44    0.29
   9  10   8    2.44    0.28
   9  10   9    5.22    0.41
   9  10  10    5.13    0.40
   9  10  11    3.19    0.36
   9  10  12   10.38    0.50
   9  10  13    6.99    0.82
   9  10  14    3.95    0.38
   9  10  15    1.40    0.38
   9  10  16    0.59    0.34
   9  10  17    8.86    1.24
   9  10  18    0.01    0.34
   9  10  19   10.19    0.59
   9  10  20    0.47    0.36
   9  10  21    2.21    0.46
   9  10  22    1.65    0.47
   9  11   0    0.01    0.29
   9  11   1    1.22    0.30
   9  11   2    1.12    0.30
   9  11   3   11.83    0.98
   9  11   4    0.31    0.29
   9  11   5    0.14    0.27
   9  11   6    0.02    0.28
   9  11   7    0.33    0.28
   9  11   8    0.45    0.28
   9  11   9    0.13    0.27
   9  11  10    2.34    0.30
   9  11  11    0.00    0.39
   9  11  12    1.58    0.41
   9  11  13    1.36    0.42
   9  11  14    6.32    0.53
   9  11  15    0.01    0.41
   9  11  16    0.00    0.42
   9  11  17    1.21    0.44
   9  11  18    4.03    0.47
   9  11  19    2.61    0.48
   9  11  20    5.97    0.56
   9  11  21    0.00    0.45
   9  12   0    6.67    0.37
   9  12   1    4.93    0.35
   9  12   2    3.38    0.36
   9  12   3   18.57    0.56
   9  12   4    6.52    0.50
   9  12   5    0.28    0.34
   9  12   6    0.06    0.32
   9  12   7    2.15    0.30
   9  12   8    0.39    0.32
   9  12   9    1.17    0.30
   9  12  10    9.30    0.55
   9  12  11    0.00    0.41
   9  12  12    0.65    0.41
   9  12  13    0.01    0.40
   9  12  14    0.01    0.41
   9  12  15    2.04    0.46
   9  12  16    1.69    0.44
   9  12  17    6.82    0.54
   9  12  18    0.76    0.44
   9  12  19    0.83    0.47
   9  12  20    0.95    0.46
   9  12  21    0.40    0.47
   9  13   0    0.18    0.31
   9  13   1    6.04    0.36
   9  13   2    1.01    0.31
   9  13   3    0.07    0.33
   9  13   4    0.01    0.48
   9  13   5    2.80    0.34
   9  13   6    2.15    0.33
   9  13   7    0.46    0.30
   9  13   8    8.96    0.42
   9  13   9    2.78    0.33
   9  13  10    0.21    0.29
   9  13  11    6.80    0.37
   9  13  12    8.18    0.56
   9  13  13    4.57    0.51
   9  13  14    0.80    0.45
   9  13  15    0.38    0.43
   9  13  16    6.94    0.63
   9  13  17    0.37    0.43
   9  13  18    1.56    0.45
   9  13  19    0.27    0.45
   9  13  20    0.39    0.46
   9  14   0    0.03    0.30
   9  14   1    0.00    0.30
   9  14   2    0.08    0.30
   9  14   3    0.01    0.30
   9  14   4    2.50    0.35
   9  14   5    0.03    0.31
   9  14   6    4.28    0.36
   9  14   7    1.53    0.69
   9  14   8    0.44    0.49
   9  14   9    0.68    0.31
   9  14  10    2.16    0.53
   9  14  11    0.48    0.65
   9  14  12    0.24    0.42
   9  14  13   12.33    0.67
   9  14  14    3.78    0.50
   9  14  15    0.98    0.46
   9  14  16    0.02    0.42
   9  14  17    0.00    0.44
   9  14  18    0.07    0.45
   9  14  19    0.05    0.44
   9  15   0    0.46    0.32
   9  15   1    1.77    0.33
   9  15   2    2.28    0.51
   9  15   3    0.04    0.31
   9  15   4    0.10    0.31
   9  15   5    0.84    0.32
   9  15   6    0.12    1.04
   9  15   7    0.32    0.32
   9  15   8    2.06    0.34
   9  15   9    9.99    0.84
   9  15  10    0.02    0.30
   9  15  11   10.19    0.47
   9  15  12    0.42    0.44
   9  15  13    1.06    0.45
   9  15  14    1.65    0.46
   9  15  15    1.66    0.48
   9  15  16    6.15    0.61
   9  15  17    0.23    0.46
   9  15  18    0.07    0.45
   9  16   0    0.07    0.60
   9  16   1    0.31    0.32
   9  16   2    0.02    0.32
   9  16   3    0.30    0.32
   9  16   4    0.88    0.33
   9  16   5    0.04    0.34
   9  16   6    1.78    0.34
   9  16   7    4.21    0.60
   9  16   8    0.00    0.49
   9  16   9    1.01    0.33
   9  16  10    0.60    0.33
   9  16  11    0.16    0.32
   9  16  12    2.40    0.49
   9  16  13    1.13    0.45
   9  16  14    1.94    0.48
   9  16  15    1.62    0.47
   9  16  16    0.07    0.46
   9  17   0    0.32    0.32
   9  17   1    0.02    0.32
   9  17   2    1.11    0.35
   9  17   3    0.13    0.33
   9  17   4    5.41    0.90
   9  17   5    3.70    0.61
   9  17   6    0.00    0.33
   9  17   7    0.71    0.33
   9  17   8    0.41    0.48
   9  17   9    1.51    0.41
   9  17  10    0.05    0.34
   9  17  11    0.40    0.33
   9  17  12    0.99    0.49
   9  17  13    1.87    0.50
   9  17  14    0.06    0.45
   9  17  15    0.00    0.45
   9  18   0    0.12    0.33
   9  18   1    0.46    0.34
   9  18   2    0.41    0.47
   9  18   3    2.40    0.56
   9  18   4    0.52    0.34
   9  18   5    5.39    0.40
   9  18   6    0.97    0.49
   9  18   7    1.63    0.35
   9  18   8    1.62    0.42
   9  18   9    0.08    0.33
   9  18  10    6.39    0.62
   9  18  11    0.35    0.34
   9  18  12    1.41    0.35
   9  19   1    0.20    0.57
   9  19   2    0.00    0.34
   9  19   3    0.01    0.34
   9  19   4    0.02    0.57
   9  19   5    0.01    0.50
   9  19   6    1.19    0.35
   9  19   7    1.96    0.36
   9  19   8    0.64    0.35
   9  19   9    0.00    0.34
  10 -13   0    0.01    0.33
  10 -13   1    0.00    0.33
  10 -13   2    0.23    0.33
  10 -13   3    2.67    0.35
  10 -13   4    0.28    0.31
  10 -13   5    2.09    0.33
  10 -13   6    1.26    0.32
  10 -13   7    0.39    0.30
  10 -12   0    1.20    0.46
  10 -12   1    0.00    0.33
  10 -12   2    0.07    0.81
  10 -12   3    0.29    0.33
  10 -12   4    0.63    0.85
  10 -12   5    0.00    0.31
  10 -12   6    0.55    0.43
  10 -12   7    0.95    0.33
  10 -12   8    1.24    0.30
  10 -12   9    0.75    0.50
  10 -12  10    0.01    0.49
  10 -11   0    0.27    0.34
  10 -11   1    1.05    0.37
  10 -11   2    0.40    0.33
  10 -11   3    2.18    0.34
  10 -11   4    0.00    0.31
  10 -11   5    0.13    0.50
  10 -11   6    1.00    0.31
  10 -11   7    0.06    0.30
  10 -11   8    1.15    0.30
  10 -11   9    0.72    0.30
  10 -11  10    7.56    0.59
  10 -11  11    2.53    0.50
  10 -11  12    0.30    0.46
  10 -10   0    0.42    0.33
  10 -10   1    1.48    0.47
  10 -10   2    7.64    0.43
  10 -10   3    0.43    0.31
  10 -10   4    3.00    0.34
  10 -10   5    0.31    0.30
  10 -10   6    0.35    0.29
  10 -10   7    5.95    0.35
  10 -10   8    0.06    0.28
  10 -10   9    2.00    0.30
  10 -10  10    5.13    0.56
  10 -10  11    1.21    0.45
  10 -10  12    1.88    0.46
  10 -10  13    0.24    0.43
  10 -10  14    2.58    0.44
  10  -9   0    1.49    1.03
  10  -9   1    0.66    0.32
  10  -9   2    2.90    0.41
  10  -9   3    0.35    0.31
  10  -9   4    4.51    0.36
  10  -9   5    0.28    0.30
  10  -9   6    0.00    0.72
  10  -9   7    0.39    0.34
  10  -9   8    0.21    0.28
  10  -9   9    0.94    0.28
  10  -9  10    0.37    0.27
  10  -9  11    1.83    0.47
  10  -9  12    0.11    0.44
  10  -9  13    3.40    0.48
  10  -9  14    1.35    0.41
  10  -9  15    0.93    0.40
  10  -8   0    7.12    0.40
  10  -8   1    0.29    0.32
  10  -8   2    2.65    0.33
  10  -8   3    0.15    0.34
  10  -8   4    5.40    0.36
  10  -8   5    1.45    0.31
  10  -8   6    1.01    0.37
  10  -8   7    2.15    0.67
  10  -8   8    0.11    0.27
  10  -8   9    3.25    0.30
  10  -8  10    0.00    0.26
  10  -8  11    1.95    0.50
  10  -8  12    2.11    0.46
  10  -8  13    0.42    0.43
  10  -8  14    0.04    0.41
  10  -8  15    0.13    0.39
  10  -8  16    1.57    0.39
  10  -7   0    0.42    0.38
  10  -7   1    0.22    0.31
  10  -7   2    1.98    0.31
  10  -7   3    0.56    0.37
  10  -7   4    6.13    0.44
  10  -7   5    2.71    0.31
  10  -7   6    1.32    0.30
  10  -7   7    0.83    0.30
  10  -7   8    1.15    0.34
  10  -7   9    1.67    0.27
  10  -7  10    4.13    0.34
  10  -7  11    1.50    0.26
  10  -7  12    1.25    0.44
  10  -7  13    0.06    0.43
  10  -7  14    0.04    0.41
  10  -7  15    0.60    0.40
  10  -7  16    0.00    0.37
  10  -7  17    0.06    0.36
  10  -6   0    6.30    0.38
  10  -6   1    3.75    0.35
  10  -6   2    0.07    0.30
  10  -6   3    2.19    0.31
  10  -6   4    3.55    0.33
  10  -6   5    1.55    0.31
  10  -6   6    0.68    0.28
  10  -6   7    6.23    0.38
  10  -6   8    5.79    0.33
  10  -6   9    1.22    0.42
  10  -6  10    1.89    0.28
  10  -6  11    0.07    0.24
  10  -6  12    1.29    0.44
  10  -6  13    0.09    0.42
  10  -6  14    0.02    0.40
  10  -6  15    1.20    0.40
  10  -6  17    3.66    0.44
  10  -6  18    0.02    0.36
  10  -5   0    0.45    0.31
  10  -5   1    0.98    0.30
  10  -5   2    0.10    0.30
  10  -5   3    6.91    0.41
  10  -5   4    0.31    0.29
  10  -5   5    1.50    0.30
  10  -5   6    5.25    0.38
  10  -5   7    5.80    0.34
  10  -5   8    0.07    0.27
  10  -5   9    2.49    0.28
  10  -5  10    1.14    0.25
  10  -5  11    3.44    0.28
  10  -5  12    2.33    0.28
  10  -5  13    6.91    0.65
  10  -5  14    1.13    0.42
  10  -5  15    0.93    0.41
  10  -5  16    6.75    0.59
  10  -5  17    0.02    0.41
  10  -5  18    5.15    0.47
  10  -5  19    2.33    0.41
  10  -4   0    1.96    0.31
  10  -4   1    0.70    0.32
  10  -4   2    0.69    0.48
  10  -4   3    3.33    0.32
  10  -4   4    1.64    0.51
  10  -4   5    1.20    0.28
  10  -4   6    2.33    0.29
  10  -4   7    0.11    0.27
  10  -4   8    1.20    0.28
  10  -4   9   27.33    0.60
  10  -4  10    0.40    0.47
  10  -4  11    1.44    0.28
  10  -4  12    0.70    0.25
  10  -4  13    2.24    0.27
  10  -4  14    1.45    0.44
  10  -4  15    1.81    0.43
  10  -4  16    1.24    0.43
  10  -4  17    0.00    0.41
  10  -4  18    0.11    0.40
  10  -4  19    3.57    0.44
  10  -3   0    0.92    0.31
  10  -3   1    4.28    0.49
  10  -3   2    0.94    0.31
  10  -3   3    0.43    0.47
  10  -3   4   14.41    0.48
  10  -3   5    0.12    0.28
  10  -3   6   23.04    0.68
  10  -3   7    0.37    0.42
  10  -3   8    0.03    0.27
  10  -3   9    3.86    0.30
  10  -3  10    0.28    0.25
  10  -3  11    9.50    0.39
  10  -3  12    0.21    0.32
  10  -3  13    5.74    0.36
  10  -3  14    3.75    0.50
  10  -3  15    0.14    0.42
  10  -3  16    9.74    0.66
  10  -3  17    0.00    0.41
  10  -3  18    3.95    0.48
  10  -3  19    0.58    0.44
  10  -3  20    0.02    0.40
  10  -2   0    2.78    0.34
  10  -2   1    0.57    0.31
  10  -2   2    1.19    0.30
  10  -2   3    3.33    0.34
  10  -2   4    0.20    0.28
  10  -2   5   14.18    0.48
  10  -2   6    2.29    0.30
  10  -2   7   16.90    0.59
  10  -2   8    1.97    0.45
  10  -2   9    4.74    0.29
  10  -2  10    4.15    0.31
  10  -2  11    0.95    0.26
  10  -2  12    1.76    0.27
  10  -2  13    0.01    0.25
  10  -2  14    0.23    0.37
  10  -2  15    0.33    0.25
  10  -2  16    0.00    0.44
  10  -2  17    1.55    0.46
  10  -2  18    0.78    0.44
  10  -2  19    2.98    0.49
  10  -2  20    0.01    0.44
  10  -1   0    2.71    0.33
  10  -1   1    0.17    0.29
  10  -1   2    2.56    0.33
  10  -1   3    0.08    0.28
  10  -1   4    1.27    0.29
  10  -1   5    0.12    0.28
  10  -1   6    0.99    0.30
  10  -1   7    6.73    0.37
  10  -1   8    0.35    0.28
  10  -1   9    3.46    0.31
  10  -1  10    0.67    0.26
  10  -1  11    0.41    0.26
  10  -1  12    5.77    0.31
  10  -1  13    3.21    0.50
  10  -1  14    2.51    0.28
  10  -1  15    0.48    0.26
  10  -1  16    0.01    0.25
  10  -1  17    0.18    0.47
  10  -1  18    0.41    0.47
  10  -1  19    0.04    0.45
  10  -1  20    0.08    0.46
  10  -1  21    0.22    0.45
  10   0   0    0.81    0.23
  10   0   1    0.22    0.30
  10   0   2    0.52    0.33
  10   0   3    0.50    0.30
  10   0   4    1.43    0.29
  10   0   5    2.04    0.29
  10   0   6    0.56    0.32
  10   0   7   10.53    0.47
  10   0   8    0.45    0.28
  10   0   9    6.38    0.33
  10   0  10    0.98    0.28
  10   0  11    5.38    0.34
  10   0  12    0.09    0.26
  10   0  13    1.33    0.27
  10   0  14    0.55    0.27
  10   0  15    0.27    0.26
  10   0  16    1.46    0.34
  10   0  17    0.08    0.26
  10   0  18    6.71    0.56
  10   0  19    0.90    0.48
  10   0  20    2.34    0.55
  10   0  21    1.96    0.50
  10   1   0    0.69    0.24
  10   1   1    0.00    0.22
  10   1   2    1.37    0.33
  10   1   3    1.66    0.48
  10   1   4   20.16    0.92
  10   1   5   13.57    0.88
  10   1   6    0.33    0.29
  10   1   7    0.18    0.27
  10   1   8    0.21    0.27
  10   1   9    2.44    0.31
  10   1  10    0.02    0.26
  10   1  11    7.43    0.82
  10   1  12    0.04    0.26
  10   1  13    0.35    0.27
  10   1  14    0.00    0.27
  10   1  15    0.22    0.49
  10   1  16    0.00    0.39
  10   1  17    0.66    0.36
  10   1  18    0.19    0.27
  10   1  19    0.17    0.32
  10   1  20    0.65    0.51
  10   1  21    1.62    0.51
  10   2   0   13.69    0.42
  10   2   1    0.58    0.22
  10   2   2    0.12    0.22
  10   2   3    4.41    0.37
  10   2   4    0.01    0.40
  10   2   5   18.05    0.67
  10   2   6    2.08    0.32
  10   2   7    6.15    0.52
  10   2   8    0.01    0.28
  10   2   9    5.18    0.84
  10   2  10    4.86    0.36
  10   2  11    0.97    0.96
  10   2  12    8.50    0.43
  10   2  13    0.06    0.27
  10   2  14    1.13    0.29
  10   2  15    0.41    0.28
  10   2  16    0.36    0.29
  10   2  17    0.40    0.28
  10   2  18    0.58    0.28
  10   2  19    0.46    0.29
  10   2  20    2.06    0.33
  10   2  21    0.09    0.52
  10   2  22    3.70    0.55
  10   3   0    0.25    0.27
  10   3   1    0.84    0.25
  10   3   2    1.38    0.23
  10   3   3    0.05    0.22
  10   3   4    1.78    0.32
  10   3   5    1.24    0.32
  10   3   6    7.05    0.37
  10   3   7    1.40    0.37
  10   3   8    0.06    0.28
  10   3   9    1.57    0.31
  10   3  10    1.77    0.31
  10   3  11    1.79    0.31
  10   3  12    1.14    0.29
  10   3  13    6.47    0.36
  10   3  14    0.55    0.28
  10   3  15    0.12    0.35
  10   3  16    0.47    0.46
  10   3  17    0.98    0.29
  10   3  18    0.12    0.40
  10   3  19    1.22    0.36
  10   3  20    0.38    0.30
  10   3  21    0.02    0.31
  10   3  22    0.01    0.31
  10   4   0    0.20    0.27
  10   4   1    0.13    0.44
  10   4   2    0.11    0.23
  10   4   3    4.41    0.30
  10   4   4    0.13    0.32
  10   4   5    0.86    0.35
  10   4   6    3.08    0.49
  10   4   7    1.45    0.31
  10   4   8    2.98    0.35
  10   4   9    2.44    0.42
  10   4  10    5.17    0.34
  10   4  11    2.95    0.46
  10   4  12    0.87    0.30
  10   4  13    0.95    0.31
  10   4  14    0.24    0.29
  10   4  15    0.57    0.30
  10   4  16    1.47    0.31
  10   4  17    0.07    0.30
  10   4  18    0.65    0.41
  10   4  19    0.25    0.31
  10   4  20    3.40    0.52
  10   4  21    2.42    0.34
  10   4  22    0.63    0.43
  10   5   0    0.73    0.27
  10   5   1    2.45    0.34
  10   5   2    0.00    0.27
  10   5   3    0.13    0.39
  10   5   4   25.75    0.56
  10   5   5    0.94    0.32
  10   5   6   18.95    0.60
  10   5   7    7.17    0.42
  10   5   8    0.29    0.30
  10   5   9    1.60    0.30
  10   5  10    5.86    0.38
  10   5  11   20.70    1.03
  10   5  12    1.14    0.31
  10   5  13    3.82    0.76
  10   5  14    4.94    0.34
  10   5  15    0.01    0.35
  10   5  16    0.00    0.30
  10   5  17    0.01    0.90
  10   5  18    0.35    0.51
  10   5  19    0.05    0.31
  10   5  20    0.61    0.71
  10   5  21    4.73    0.40
  10   5  22    0.36    0.34
  10   6   0    2.22    0.29
  10   6   1    0.01    0.27
  10   6   2    0.53    0.28
  10   6   3    6.36    0.39
  10   6   4    0.97    0.24
  10   6   5    3.78    0.26
  10   6   6    5.92    0.40
  10   6   7   10.78    0.48
  10   6   8    1.94    0.32
  10   6   9    2.68    0.34
  10   6  10    6.31    0.43
  10   6  11    0.02    0.30
  10   6  12   12.29    0.51
  10   6  13    0.30    0.31
  10   6  14   13.10    0.53
  10   6  15    1.98    0.50
  10   6  16    0.66    0.31
  10   6  17    1.48    0.35
  10   6  18    0.00    0.31
  10   6  19    0.53    0.33
  10   6  20    0.19    0.61
  10   6  21    0.63    0.34
  10   7   0    1.07    0.59
  10   7   1    6.44    0.40
  10   7   2   16.42    0.49
  10   7   3    2.09    0.30
  10   7   4   18.60    0.54
  10   7   5    0.02    0.26
  10   7   6    1.47    0.29
  10   7   7    3.30    0.37
  10   7   8    0.01    0.31
  10   7   9    1.25    0.69
  10   7  10    0.01    0.32
  10   7  11   11.49    0.51
  10   7  12    0.59    0.36
  10   7  13    1.23    0.54
  10   7  14   13.23    0.53
  10   7  15    6.53    0.45
  10   7  16    0.38    0.33
  10   7  17    0.00    0.38
  10   7  18    0.02    0.38
  10   7  19    0.76    0.34
  10   7  20    0.10    0.33
  10   7  21   15.54    0.59
  10   8   0    3.09    0.33
  10   8   1    1.53    0.36
  10   8   2    1.49    0.52
  10   8   3    0.57    0.28
  10   8   4    0.37    0.27
  10   8   5   13.85    0.51
  10   8   6    5.95    0.39
  10   8   7    3.14    0.44
  10   8   8    0.55    0.33
  10   8   9    0.03    0.32
  10   8  10    0.32    0.37
  10   8  11    5.00    0.39
  10   8  12    2.96    0.36
  10   8  13    0.33    0.55
  10   8  14    1.66    0.35
  10   8  15    5.93    0.38
  10   8  16    0.17    0.65
  10   8  17   10.80    0.54
  10   8  18    0.11    0.34
  10   8  19    3.16    0.37
  10   8  20    6.07    0.43
  10   8  21    0.00    0.34
  10   9   0    0.08    0.35
  10   9   1    1.53    0.40
  10   9   2    9.16    0.38
  10   9   3    0.09    0.28
  10   9   4    5.37    0.34
  10   9   5    5.51    0.51
  10   9   6    0.42    0.28
  10   9   7    0.29    0.27
  10   9   8    0.32    0.39
  10   9   9    1.51    0.41
  10   9  10    0.00    0.38
  10   9  11    0.02    0.32
  10   9  12    2.83    0.38
  10   9  13    5.07    0.39
  10   9  14    5.73    0.39
  10   9  15    2.12    0.37
  10   9  16    2.85    0.36
  10   9  17    0.48    0.35
  10   9  18    2.25    0.45
  10   9  19    1.24    0.75
  10   9  20    0.52    0.37
  10  10   0    0.98    0.31
  10  10   1    2.13    0.33
  10  10   2    2.34    0.53
  10  10   3    8.76    0.43
  10  10   4    1.40    0.30
  10  10   5    0.00    0.28
  10  10   6    0.71    0.29
  10  10   7    0.45    0.28
  10  10   8    8.20    0.61
  10  10   9    0.32    0.40
  10  10  10    0.90    0.42
  10  10  11    1.41    0.42
  10  10  12    0.15    0.41
  10  10  13    3.54    0.48
  10  10  14    1.52    0.42
  10  10  15    7.46    0.51
  10  10  16    2.09    0.44
  10  10  17    1.10    0.44
  10  10  18    0.58    0.36
  10  10  19    0.88    0.43
  10  10  20    8.00    0.58
  10  11   0    0.03    0.30
  10  11   1    0.85    0.61
  10  11   2    2.78    0.33
  10  11   3    2.64    0.34
  10  11   4    0.82    0.30
  10  11   5    0.06    0.29
  10  11   6    0.18    0.29
  10  11   7    1.00    0.30
  10  11   8    0.33    0.29
  10  11   9    0.03    0.40
  10  11  10    2.78    0.45
  10  11  11    1.19    0.44
  10  11  12    2.93    0.47
  10  11  13    1.87    0.44
  10  11  14    2.31    0.47
  10  11  15    0.14    0.42
  10  11  16    2.42    0.45
  10  11  17    0.00    0.43
  10  11  18    0.66    0.45
  10  11  19    0.02    0.42
  10  12   0    1.06    0.42
  10  12   1    5.39    0.38
  10  12   2    1.67    0.67
  10  12   3    0.00    0.30
  10  12   4    3.59    0.52
  10  12   5    0.97    0.32
  10  12   6    2.67    0.47
  10  12   7    0.09    0.29
  10  12   8    2.92    0.32
  10  12   9    1.07    0.42
  10  12  10    3.00    0.47
  10  12  11    6.93    0.54
  10  12  12    1.56    0.44
  10  12  13   13.36    0.73
  10  12  14    0.73    0.42
  10  12  15    1.19    0.43
  10  12  16    0.00    0.44
  10  12  17    0.73    0.43
  10  12  18    0.04    0.43
  10  13   0    0.00    0.39
  10  13   1    1.41    0.38
  10  13   2    1.20    0.33
  10  13   3    2.47    0.35
  10  13   4    0.35    0.31
  10  13   5    0.69    0.31
  10  13   6    0.01    0.30
  10  13   7    0.20    0.30
  10  13   8    0.40    0.30
  10  13   9    4.41    0.49
  10  13  10    0.25    0.42
  10  13  11    5.89    0.53
  10  13  12    0.76    0.43
  10  13  13    1.09    0.45
  10  13  14    3.76    0.51
  10  13  15    0.01    0.43
  10  13  16    2.26    0.46
  10  13  17    0.02    0.43
  10  14   0    2.06    0.34
  10  14   1    0.01    0.31
  10  14   2    1.59    0.33
  10  14   3    0.53    0.32
  10  14   4    0.70    0.35
  10  14   5    0.36    0.78
  10  14   6    1.29    0.74
  10  14   7    3.29    0.36
  10  14   8    0.92    0.32
  10  14   9    0.05    0.30
  10  14  10    0.62    0.44
  10  14  11    1.09    0.45
  10  14  12    0.54    0.44
  10  14  13    1.38    0.48
  10  14  14    0.83    0.46
  10  14  15    0.10    0.44
  10  14  16    0.29    0.45
  10  15   0    0.27    0.84
  10  15   1    0.77    0.33
  10  15   2    2.90    0.36
  10  15   3    0.34    0.33
  10  15   4    2.11    0.54
  10  15   5    4.33    0.37
  10  15   6    0.56    0.76
  10  15   7    8.60    0.48
  10  15   8    0.47    0.68
  10  15   9    3.34    0.35
  10  15  10    0.11    0.44
  10  15  11    0.87    0.45
  10  15  12    2.21    0.46
  10  15  13    0.02    0.45
  10  15  14    2.01    0.49
  10  15  15    0.03    0.44
  10  16   0    1.58    0.35
  10  16   1    0.41    0.34
  10  16   2    0.00    0.42
  10  16   3    0.84    0.34
  10  16   4    0.19    0.54
  10  16   5    1.58    0.51
  10  16   6    0.07    0.33
  10  16   7    1.10    0.34
  10  16   8    1.48    0.35
  10  16   9    0.18    0.33
  10  16  10    1.22    0.47
  10  16  11    0.06    0.44
  10  16  12    0.49    0.45
  10  16  13    0.04    0.44
  10  17   0    3.57    0.38
  10  17   1    2.59    0.37
  10  17   2    2.32    0.36
  10  17   3    0.02    0.34
  10  17   4    1.86    0.36
  10  17   5    0.35    0.34
  10  17   6    0.33    0.45
  10  17   7    3.76    0.90
  10  17   8    0.02    0.34
  10  17   9    0.42    0.34
  10  17  10    0.76    0.46
  11 -11   0    0.05    0.42
  11 -11   1    0.09    0.35
  11 -11   2    2.12    0.36
  11 -11   3    0.47    0.34
  11 -11   4    3.83    0.37
  11 -11   5    0.95    0.42
  11 -11   6    2.27    0.72
  11 -10   0    2.47    0.37
  11 -10   1    0.44    0.34
  11 -10   2    0.32    0.33
  11 -10   3    0.58    0.33
  11 -10   4    0.06    0.32
  11 -10   5    1.58    0.33
  11 -10   6    0.85    0.31
  11 -10   7    0.90    0.34
  11 -10   8    0.53    0.31
  11 -10   9    0.05    0.72
  11  -9   0    0.03    0.33
  11  -9   1    0.72    0.35
  11  -9   2    0.52    0.37
  11  -9   3    0.10    0.32
  11  -9   4    0.36    0.40
  11  -9   5    0.03    0.32
  11  -9   6    0.63    0.31
  11  -9   7    0.67    0.31
  11  -9   8    3.35    0.34
  11  -9   9    1.15    0.30
  11  -9  10    0.02    0.50
  11  -9  11    0.80    0.50
  11  -8   0    2.17    0.37
  11  -8   1    1.10    0.33
  11  -8   2    0.01    0.32
  11  -8   3    0.36    0.33
  11  -8   4    0.06    0.31
  11  -8   5    0.93    0.43
  11  -8   6    0.25    0.31
  11  -8   7    0.02    0.30
  11  -8   8    3.02    0.62
  11  -8   9    0.01    0.29
  11  -8  10    1.75    0.37
  11  -8  11    1.89    0.53
  11  -8  12    0.57    0.49
  11  -8  13    1.88    0.49
  11  -7   0    0.48    0.33
  11  -7   1    0.30    0.33
  11  -7   2    0.25    0.32
  11  -7   3    0.02    0.42
  11  -7   4    0.00    0.31
  11  -7   5    0.00    0.30
  11  -7   6    9.03    0.42
  11  -7   7    0.33    0.36
  11  -7   8    3.72    0.58
  11  -7   9    0.01    0.32
  11  -7  10    2.49    1.28
  11  -7  11    5.67    0.35
  11  -7  12    0.06    0.47
  11  -7  13    0.09    0.48
  11  -7  14    0.44    0.44
  11  -6   0    1.15    0.35
  11  -6   1    4.73    0.37
  11  -6   2    0.42    0.55
  11  -6   3    7.19    0.48
  11  -6   4    0.51    0.31
  11  -6   5    0.25    0.31
  11  -6   6    1.20    0.31
  11  -6   7    2.32    0.36
  11  -6   8    3.90    0.39
  11  -6   9    0.05    0.33
  11  -6  10    3.11    0.31
  11  -6  11    0.68    0.28
  11  -6  12    0.01    0.48
  11  -6  13    2.38    0.50
  11  -6  14    0.32    0.46
  11  -6  15    0.66    0.44
  11  -5   0    1.52    0.38
  11  -5   1    0.02    0.34
  11  -5   2    2.62    0.33
  11  -5   3    0.01    0.31
  11  -5   4    4.09    0.37
  11  -5   5    0.30    0.39
  11  -5   6    6.71    0.66
  11  -5   7    3.71    0.42
  11  -5   8    5.20    1.04
  11  -5   9    3.59    0.32
  11  -5  10    2.15    0.44
  11  -5  11    6.95    0.39
  11  -5  12    0.17    0.27
  11  -5  13    4.00    0.53
  11  -5  14    0.18    0.45
  11  -5  15    0.05    0.44
  11  -5  16    1.21    0.45
  11  -4   0    3.05    0.37
  11  -4   1    0.35    0.32
  11  -4   2    0.02    0.31
  11  -4   3    1.92    0.34
  11  -4   4    0.62    0.32
  11  -4   5    0.71    0.48
  11  -4   6    0.80    0.31
  11  -4   7    9.40    0.41
  11  -4   8    4.71    0.36
  11  -4   9    2.48    0.35
  11  -4  10    2.97    0.31
  11  -4  11    0.36    0.28
  11  -4  12    0.15    0.27
  11  -4  13    1.96    0.40
  11  -4  14    0.04    0.46
  11  -4  15    0.80    0.46
  11  -4  16    0.86    0.46
  11  -4  17    0.05    0.44
  11  -3   0    0.44    0.40
  11  -3   1    2.47    0.39
  11  -3   2    2.11    0.32
  11  -3   3    0.80    0.32
  11  -3   4    2.26    0.34
  11  -3   5    1.21    0.31
  11  -3   6    2.04    0.30
  11  -3   7    0.30    0.29
  11  -3   8    5.38    1.09
  11  -3   9    1.35    0.30
  11  -3  10    0.02    0.28
  11  -3  11    3.72    0.44
  11  -3  12    1.57    0.29
  11  -3  13    1.62    0.35
  11  -3  14    1.28    0.27
  11  -3  15    1.21    0.47
  11  -3  16    0.41    0.46
  11  -3  17    0.94    0.49
  11  -3  18    2.21    0.49
  11  -2   0    3.96    0.36
  11  -2   1    1.94    0.51
  11  -2   2    0.75    0.32
  11  -2   3    1.03    0.34
  11  -2   4    2.52    0.33
  11  -2   5    0.55    0.31
  11  -2   6    6.82    0.38
  11  -2   7    3.27    0.31
  11  -2   8    7.01    0.54
  11  -2   9    0.30    0.28
  11  -2  10    7.49    0.44
  11  -2  11    0.00    0.44
  11  -2  12    0.57    0.28
  11  -2  13    0.40    0.28
  11  -2  14    2.91    0.51
  11  -2  15    0.24    0.35
  11  -2  16    1.33    0.49
  11  -2  17    0.23    0.47
  11  -2  18    0.46    0.50
  11  -1   0    0.54    0.39
  11  -1   1    0.29    0.32
  11  -1   2    2.58    0.33
  11  -1   3    0.64    0.31
  11  -1   4    0.24    0.31
  11  -1   5    3.44    0.34
  11  -1   6    1.63    0.33
  11  -1   7   13.17    0.58
  11  -1   8    4.09    0.33
  11  -1   9    1.28    0.30
  11  -1  10    1.45    0.31
  11  -1  11    0.17    0.28
  11  -1  12    5.51    0.33
  11  -1  13    0.45    0.28
  11  -1  14    3.00    0.31
  11  -1  15    0.63    0.29
  11  -1  16    0.22    0.27
  11  -1  17    0.08    0.49
  11  -1  18    1.48    0.52
  11   0   0    0.75    0.40
  11   0   1    2.12    0.35
  11   0   2    0.01    0.31
  11   0   3    0.01    0.31
  11   0   4    3.20    0.35
  11   0   5    1.27    0.32
  11   0   6    0.02    0.61
  11   0   7    0.86    0.31
  11   0   8    5.17    0.37
  11   0   9    6.18    0.36
  11   0  10    1.01    0.29
  11   0  11    0.08    0.41
  11   0  12    0.00    0.28
  11   0  13    2.05    0.31
  11   0  14    0.02    0.28
  11   0  15    2.21    0.61
  11   0  16    0.26    0.29
  11   0  17    0.98    0.29
  11   0  18    0.07    0.51
  11   0  19    0.58    0.52
  11   1   0    4.15    0.47
  11   1   1    0.00    0.39
  11   1   2    1.17    0.34
  11   1   3    4.47    0.37
  11   1   4    0.10    0.30
  11   1   5    2.23    0.33
  11   1   6    1.11    0.32
  11   1   7    3.49    0.36
  11   1   8    1.72    0.31
  11   1   9    0.10    0.30
  11   1  10    0.51    0.29
  11   1  11    0.45    0.31
  11   1  12    0.60    0.37
  11   1  13    1.14    0.30
  11   1  14    0.17    0.29
  11   1  15    0.59    0.28
  11   1  16    0.24    0.29
  11   1  17    2.96    0.34
  11   1  18    0.00    0.49
  11   1  19    0.27    0.54
  11   2   0    1.47    0.42
  11   2   1    0.79    0.40
  11   2   2    0.07    0.32
  11   2   3   13.56    0.51
  11   2   4    5.77    0.43
  11   2   5    3.04    0.36
  11   2   6   26.61    0.68
  11   2   7    0.38    0.31
  11   2   8   24.75    0.89
  11   2   9    2.71    0.34
  11   2  10    1.86    0.32
  11   2  11    2.66    0.37
  11   2  12    0.13    0.29
  11   2  13    0.51    0.30
  11   2  14    3.46    0.32
  11   2  15    0.70    0.30
  11   2  16    0.01    0.37
  11   2  17    0.00    0.30
  11   2  18    1.37    0.32
  11   2  19    0.00    0.30
  11   3   0    1.88    0.38
  11   3   1    0.02    0.38
  11   3   2    4.84    0.50
  11   3   3    0.02    0.31
  11   3   4    8.72    0.44
  11   3   5    0.47    0.31
  11   3   6    4.55    0.37
  11   3   7    1.47    0.32
  11   3   8    1.80    0.48
  11   3   9    3.31    0.36
  11   3  10    0.00    0.30
  11   3  11    0.03    0.30
  11   3  12    0.41    0.32
  11   3  13    0.04    0.30
  11   3  14    1.98    0.34
  11   3  15    1.58    0.34
  11   3  16    2.44    0.34
  11   3  17    1.32    0.75
  11   3  18    0.89    0.45
  11   3  19    2.29    0.75
  11   4   0    0.47    0.29
  11   4   1    0.18    0.28
  11   4   2    1.63    0.41
  11   4   3    3.10    0.43
  11   4   4    1.68    0.35
  11   4   5    0.02    0.48
  11   4   6   10.26    0.51
  11   4   7    8.46    0.48
  11   4   8    2.10    0.38
  11   4   9    0.41    0.32
  11   4  10    0.20    0.31
  11   4  11    2.39    0.36
  11   4  12    0.23    0.51
  11   4  13    0.57    0.31
  11   4  14    0.20    0.31
  11   4  15    0.88    0.32
  11   4  16    2.27    0.33
  11   4  17    0.61    0.31
  11   4  18    0.75    0.33
  11   4  19    0.82    1.42
  11   5   0    0.29    0.28
  11   5   1    0.11    0.45
  11   5   2    1.53    0.42
  11   5   3    0.06    0.38
  11   5   4    5.89    0.49
  11   5   5    0.39    0.39
  11   5   6    2.89    0.36
  11   5   7    1.22    1.05
  11   5   8    0.03    0.77
  11   5   9    0.03    0.32
  11   5  10    1.47    0.33
  11   5  11    0.61    0.33
  11   5  12    0.08    0.31
  11   5  13    0.04    0.77
  11   5  14    9.58    0.50
  11   5  15    0.08    0.58
  11   5  16    8.27    0.55
  11   5  17    3.85    0.40
  11   5  18    0.23    0.32
  11   5  19    1.94    0.35
  11   6   0    0.02    0.29
  11   6   1    0.02    0.29
  11   6   2    0.04    0.27
  11   6   3    0.47    0.40
  11   6   4    4.64    0.50
  11   6   5    0.61    0.40
  11   6   6    1.95    0.42
  11   6   7    1.11    0.33
  11   6   8    0.20    0.32
  11   6   9    1.51    0.33
  11   6  10    0.00    0.43
  11   6  11    0.12    0.72
  11   6  12    2.04    0.36
  11   6  13    1.33    0.33
  11   6  14    0.15    0.32
  11   6  15   12.41    0.57
  11   6  16    0.81    0.33
  11   6  17    6.60    0.40
  11   6  18    0.02    0.33
  11   6  19    0.12    0.33
  11   7   0    0.39    0.29
  11   7   1    0.44    0.29
  11   7   2    0.25    0.46
  11   7   3   13.54    0.46
  11   7   4    3.86    0.47
  11   7   5    6.33    0.57
  11   7   6    0.00    0.40
  11   7   7    0.39    0.39
  11   7   8    0.01    0.39
  11   7   9    0.14    0.32
  11   7  10    3.42    0.44
  11   7  11    0.13    0.34
  11   7  12    4.80    0.50
  11   7  13    1.43    0.35
  11   7  14    0.32    0.33
  11   7  15    1.43    0.70
  11   7  16    1.21    0.55
  11   7  17    1.45    0.35
  11   7  18    1.09    0.34
  11   7  19    0.46    0.42
  11   8   0    0.35    0.34
  11   8   1    0.42    0.68
  11   8   2    0.98    0.37
  11   8   3    0.28    0.29
  11   8   4    0.17    0.28
  11   8   5    1.25    0.43
  11   8   6    2.65    0.44
  11   8   7    0.00    0.40
  11   8   8    1.94    0.43
  11   8   9    1.68    0.43
  11   8  10    0.92    0.41
  11   8  11    1.93    0.43
  11   8  12    0.44    0.35
  11   8  13    3.81    0.37
  11   8  14    0.36    0.39
  11   8  15    3.30    0.40
  11   8  16    0.40    0.47
  11   8  17    0.09    0.33
  11   8  18    0.78    0.47
  11   9   0    0.03    0.30
  11   9   1    1.13    0.31
  11   9   2    0.00    0.29
  11   9   3    1.11    0.30
  11   9   4    0.88    0.51
  11   9   5    1.80    0.43
  11   9   6    0.01    0.39
  11   9   7    0.00    0.40
  11   9   8    2.95    0.44
  11   9   9    2.21    0.46
  11   9  10    3.75    0.49
  11   9  11    0.01    0.39
  11   9  12    5.52    0.49
  11   9  13    0.14    0.41
  11   9  14    0.17    0.41
  11   9  15    0.45    0.42
  11   9  16    2.01    0.47
  11   9  17    2.05    0.37
  11   9  18    0.62    0.37
  11  10   0    0.03    0.32
  11  10   1    5.06    0.36
  11  10   2    0.19    0.30
  11  10   3    1.57    0.31
  11  10   4    0.21    0.55
  11  10   5    0.04    0.29
  11  10   6    0.08    0.40
  11  10   7    0.12    0.41
  11  10   8    2.43    0.47
  11  10   9    1.02    0.42
  11  10  10    3.04    0.46
  11  10  11    4.78    0.49
  11  10  12    0.01    0.40
  11  10  13    6.73    0.52
  11  10  14    0.11    0.41
  11  10  15    0.96    0.44
  11  10  16    0.46    0.43
  11  10  17    0.05    0.42
  11  11   0    0.09    0.53
  11  11   1    1.09    0.32
  11  11   2    0.56    0.31
  11  11   3    0.44    0.31
  11  11   4    0.69    0.30
  11  11   5    0.01    0.30
  11  11   6    0.16    0.42
  11  11   7    1.93    0.44
  11  11   8    1.30    0.43
  11  11   9    4.82    0.52
  11  11  10    1.15    0.44
  11  11  11    1.42    0.43
  11  11  12    0.03    0.41
  11  11  13    0.24    0.43
  11  11  14    0.61    0.44
  11  11  15    2.73    0.48
  11  11  16    1.05    0.46
  11  12   0    3.48    0.35
  11  12   1    0.78    0.45
  11  12   2    0.08    0.41
  11  12   3    0.35    0.54
  11  12   4    2.57    0.35
  11  12   5    0.19    0.31
  11  12   6    1.06    0.31
  11  12   7    0.00    0.42
  11  12   8    0.43    0.43
  11  12   9    3.16    0.48
  11  12  10    0.00    0.43
  11  12  11    5.94    0.55
  11  12  12    2.03    0.46
  11  12  13    3.39    0.49
  11  12  14    0.83    0.44
  11  12  15    0.03    0.43
  11  13   0    2.21    0.36
  11  13   1    1.01    0.34
  11  13   2    0.75    0.61
  11  13   3    0.07    0.32
  11  13   4    0.00    0.32
  11  13   5    1.13    0.47
  11  13   6    1.54    0.33
  11  13   7    1.92    0.46
  11  13   8    3.39    0.48
  11  13   9    2.02    0.47
  11  13  10    0.03    0.43
  11  13  11    0.02    0.42
  11  13  12    3.76    0.53
  11  13  13    0.06    0.44
  11  13  14    0.02    0.45
  11  14   0    0.02    0.33
  11  14   1    0.49    0.34
  11  14   2    0.68    0.38
  11  14   3    0.00    0.72
  11  14   4    0.31    0.33
  11  14   5    0.00    0.47
  11  14   6    0.67    0.32
  11  14   7    3.70    0.53
  11  14   8    1.19    0.44
  11  14   9    0.61    0.45
  11  14  10    1.84    0.48
  11  14  11    0.61    0.46
  11  14  12    0.09    0.43
  11  14  13    0.37    0.45
  11  15   0    1.40    0.36
  11  15   1    0.77    0.35
  11  15   2    0.06    0.34
  11  15   3    0.03    0.44
  11  15   4    0.82    0.34
  11  15   5    1.72    0.36
  11  15   6    2.02    0.34
  11  15   7    5.20    0.39
  11  15   8    0.46    0.46
  11  15   9    0.42    0.46
  11  15  10    2.06    0.47
  12  -8   0    5.11    0.51
  12  -8   1    4.65    0.50
  12  -8   2    2.13    0.38
  12  -8   3    5.73    0.40
  12  -8   4    1.84    0.45
  12  -8   5    2.90    0.37
  12  -8   6    4.04    0.51
  12  -7   0    0.94    0.43
  12  -7   1    0.12    0.42
  12  -7   2    0.14    0.35
  12  -7   3    1.56    0.35
  12  -7   4    0.01    0.50
  12  -7   5    0.02    0.33
  12  -7   6    0.13    0.32
  12  -7   7    1.33    0.42
  12  -7   8    0.32    0.41
  12  -7   9    0.03    0.31
  12  -6   0    0.51    0.43
  12  -6   1    1.45    0.44
  12  -6   2    0.12    0.34
  12  -6   3    0.27    0.33
  12  -6   4    1.18    0.34
  12  -6   5    0.51    0.33
  12  -6   6    1.16    0.40
  12  -6   7    0.16    0.32
  12  -6   8    4.08    0.36
  12  -6   9    0.62    0.31
  12  -6  10    0.72    0.48
  12  -6  11    2.51    0.33
  12  -5   0    0.00    0.41
  12  -5   1    0.36    0.42
  12  -5   2    0.11    0.34
  12  -5   3    1.47    0.34
  12  -5   4    0.11    0.59
  12  -5   5    0.29    0.46
  12  -5   6    0.42    0.32
  12  -5   7    8.79    0.53
  12  -5   8    0.31    0.32
  12  -5   9    5.39    0.74
  12  -5  10    0.71    0.31
  12  -5  11    1.20    0.31
  12  -5  12    5.29    0.36
  12  -4   0    0.04    0.40
  12  -4   1    0.00    0.40
  12  -4   2    0.24    0.34
  12  -4   3    0.18    0.33
  12  -4   4    0.00    0.32
  12  -4   5    0.14    0.32
  12  -4   6    1.84    0.34
  12  -4   7    1.12    0.33
  12  -4   8    0.04    0.60
  12  -4   9    2.01    0.73
  12  -4  10    7.70    0.39
  12  -4  11    1.82    0.37
  12  -4  12    0.02    0.29
  12  -4  13    0.00    0.29
  12  -3   0    0.37    0.41
  12  -3   1    0.03    0.39
  12  -3   2    0.28    0.34
  12  -3   3    2.05    0.35
  12  -3   4    1.08    0.34
  12  -3   5    0.45    0.61
  12  -3   6    0.03    0.39
  12  -3   7    4.88    0.37
  12  -3   8    3.27    0.36
  12  -3   9    3.39    0.34
  12  -3  10    0.00    0.30
  12  -3  11    0.10    0.30
  12  -3  12    2.59    0.33
  12  -3  13    0.40    0.30
  12  -3  14    3.04    0.32
  12  -2   0    0.14    0.40
  12  -2   1    0.89    0.42
  12  -2   2    0.39    0.40
  12  -2   3    2.12    0.37
  12  -2   4    0.12    0.33
  12  -2   5    0.10    0.32
  12  -2   6    3.97    0.37
  12  -2   7    0.25    0.32
  12  -2   8    3.25    0.35
  12  -2   9    0.05    0.37
  12  -2  10    4.65    0.37
  12  -2  11    2.67    0.32
  12  -2  12    0.10    0.30
  12  -2  13    0.08    0.29
  12  -2  14    0.55    0.31
  12  -2  15    0.67    0.30
  12  -1   0    5.58    0.52
  12  -1   1    1.83    0.42
  12  -1   2    0.03    0.40
  12  -1   3    4.15    0.39
  12  -1   4    0.02    0.47
  12  -1   5    0.33    0.33
  12  -1   6    0.06    0.46
  12  -1   7    9.75    0.47
  12  -1   8    3.36    0.35
  12  -1   9    0.10    0.31
  12  -1  10    4.74    0.35
  12  -1  11    1.25    0.32
  12  -1  12    0.25    0.30
  12  -1  13    2.33    0.32
  12  -1  14    0.03    0.29
  12  -1  15    4.36    0.37
  12   0   0    0.73    0.41
  12   0   1    6.53    0.52
  12   0   2    0.33    0.40
  12   0   3    0.31    0.41
  12   0   4    0.89    0.33
  12   0   5    1.00    0.34
  12   0   6    4.26    0.41
  12   0   7    5.70    0.39
  12   0   8    1.37    0.33
  12   0   9    0.01    0.31
  12   0  10    0.00    0.40
  12   0  11    1.38    0.51
  12   0  12    0.41    0.36
  12   0  13    1.70    0.53
  12   0  14    0.97    0.31
  12   0  15    0.53    0.31
  12   0  16    0.61    0.46
  12   1   0    1.89    0.44
  12   1   1    0.00    0.40
  12   1   2    0.01    0.40
  12   1   3    0.00    0.40
  12   1   4    0.04    0.32
  12   1   5    0.25    0.33
  12   1   6    0.31    0.33
  12   1   7    0.66    0.47
  12   1   8    1.73    0.33
  12   1   9    1.21    0.45
  12   1  10    0.00    0.31
  12   1  11    0.12    0.32
  12   1  12    0.07    0.30
  12   1  13    0.05    0.31
  12   1  14    0.02    0.30
  12   1  15    0.83    0.31
  12   1  16    3.27    0.56
  12   2   0    0.92    0.42
  12   2   1    6.45    0.52
  12   2   2    1.70    0.44
  12   2   3    0.01    0.39
  12   2   4    0.00    0.39
  12   2   5    0.24    0.33
  12   2   6    7.87    0.46
  12   2   7    0.50    0.33
  12   2   8    8.87    0.46
  12   2   9    4.59    1.29
  12   2  10    0.23    0.32
  12   2  11    0.85    0.32
  12   2  12    0.31    0.32
  12   2  13    2.67    0.45
  12   2  14    1.06    0.32
  12   2  15    1.73    0.33
  12   2  16    8.63    0.47
  12   3   0    2.00    0.46
  12   3   1    0.25    0.40
  12   3   2    1.72    0.44
  12   3   3    2.78    0.45
  12   3   4    0.01    0.40
  12   3   5    1.00    0.42
  12   3   6    1.70    0.35
  12   3   7    0.02    0.42
  12   3   8    3.12    0.37
  12   3   9    0.71    0.33
  12   3  10    0.14    0.32
  12   3  11    0.00    0.32
  12   3  12    1.09    0.33
  12   3  13    0.00    0.31
  12   3  14    6.35    0.41
  12   3  15    1.65    1.42
  12   3  16    1.95    0.35
  12   4   0    0.00    0.40
  12   4   1    0.44    0.41
  12   4   2    0.12    0.41
  12   4   3    0.74    0.41
  12   4   4    3.62    0.46
  12   4   5    1.40    0.43
  12   4   6    1.28    0.42
  12   4   7    3.93    0.37
  12   4   8    0.14    0.43
  12   4   9    0.11    0.33
  12   4  10    0.93    0.34
  12   4  11    0.11    0.33
  12   4  12    0.43    0.38
  12   4  13    0.55    0.57
  12   4  14    0.22    0.33
  12   4  15    3.05    0.36
  12   4  16    1.28    0.34
  12   5   0    1.60    0.44
  12   5   1    0.00    0.41
  12   5   2    1.34    0.43
  12   5   3    3.31    0.47
  12   5   4    0.59    0.41
  12   5   5    5.60    0.50
  12   5   6    2.11    0.44
  12   5   7    1.98    0.43
  12   5   8    0.00    0.40
  12   5   9    0.77    0.70
  12   5  10    0.49    0.34
  12   5  11    0.09    0.36
  12   5  12    0.07    0.33
  12   5  13    1.68    0.47
  12   5  14    0.00    0.33
  12   5  15    0.49    0.42
  12   5  16    0.27    0.34
  12   6   0    0.28    0.43
  12   6   1    7.41    0.55
  12   6   2    0.74    0.42
  12   6   3    2.50    0.46
  12   6   4    0.26    0.41
  12   6   5    0.71    0.42
  12   6   6    0.09    0.40
  12   6   7    0.24    0.41
  12   6   8    0.17    0.40
  12   6   9    0.10    0.40
  12   6  10    0.08    0.41
  12   6  11    0.02    0.33
  12   6  12    1.81    0.39
  12   6  13    1.14    0.36
  12   6  14    0.72    0.35
  12   6  15    0.60    0.34
  12   6  16    0.01    0.33
  12   7   0    2.34    0.46
  12   7   1    0.00    0.41
  12   7   2    0.27    0.42
  12   7   3    2.70    0.46
  12   7   4    0.55    0.41
  12   7   5    0.74    0.43
  12   7   6    0.00    0.40
  12   7   7    0.08    0.42
  12   7   8    0.86    0.41
  12   7   9    0.04    0.40
  12   7  10    1.81    0.44
  12   7  11    1.00    0.41
  12   7  12    4.52    0.50
  12   7  13    0.69    0.43
  12   7  14    0.02    0.35
  12   7  15    3.64    0.69
  12   8   0    1.25    0.45
  12   8   1    2.45    0.47
  12   8   2    0.08    0.42
  12   8   3    0.81    0.43
  12   8   4    0.38    0.41
  12   8   5    0.23    0.42
  12   8   6    0.02    0.41
  12   8   7    0.01    0.41
  12   8   8    1.31    0.42
  12   8   9    0.57    0.42
  12   8  10    1.69    0.46
  12   8  11    7.10    0.53
  12   8  12    2.87    0.47
  12   8  13    1.20    0.44
  12   8  14    0.46    0.43
  12   8  15    0.03    0.42
  12   9   0    0.56    0.32
  12   9   1    1.84    0.33
  12   9   2    0.20    0.43
  12   9   3    1.58    0.44
  12   9   4    0.25    0.42
  12   9   5    0.45    0.43
  12   9   6    0.00    0.42
  12   9   7    0.16    0.43
  12   9   8    1.71    0.45
  12   9   9    0.74    0.43
  12   9  10    0.89    0.44
  12   9  11    0.46    0.42
  12   9  12    0.05    0.42
  12   9  13    2.18    0.45
  12   9  14    0.06    0.42
  12  10   0    0.53    0.33
  12  10   1    0.17    0.31
  12  10   2    1.68    0.46
  12  10   3    0.32    0.44
  12  10   4    1.01    0.43
  12  10   5    0.47    0.44
  12  10   6    0.57    0.44
  12  10   7    0.11    0.43
  12  10   8    0.01    0.42
  12  10   9    6.04    0.55
  12  10  10    0.11    0.41
  12  10  11    9.60    0.65
  12  10  12    0.06    0.44
  12  10  13    0.92    0.45
  12  11   0    0.22    0.57
  12  11   1    0.79    0.33
  12  11   2    0.88    0.33
  12  11   3    0.03    0.44
  12  11   4    0.23    0.43
  12  11   5    0.31    0.44
  12  11   6    1.93    0.47
  12  11   7    0.31    0.44
  12  11   8    0.33    0.43
  12  11   9    0.09    0.44
  12  11  10    0.46    0.44
  12  11  11    0.26    0.44
  12  11  12    0.93    0.45
  12  12   0    0.86    0.34
  12  12   1    0.35    0.34
  12  12   2    0.56    0.34
  12  12   3    0.30    0.45
  12  12   4    1.70    0.47
  12  12   5    0.00    0.44
  12  12   6    0.26    0.46
  12  12   7    2.35    0.47
  12  12   8    0.11    0.44
  12  12   9    4.23    0.55
  12  12  10    0.48    0.45
  12  13   4    1.55    0.49
  12  13   5    2.27    0.48
  12  13   6    0.61    0.45
  12  13   7    0.03    0.43
  13  -3   1    1.62    0.44
  13  -3   2    0.20    0.43
  13  -3   3    1.82    0.45
  13  -3   4    0.08    0.40
  13  -3   5    0.53    0.35
  13  -3   6    2.22    0.36
  13  -3   7    0.06    0.34
  13  -2   0    1.32    0.45
  13  -2   1    6.72    0.54
  13  -2   2    0.59    0.42
  13  -2   3    0.02    0.40
  13  -2   4    0.33    0.41
  13  -2   5    0.02    0.34
  13  -2   6    0.33    0.34
  13  -2   7    0.05    0.33
  13  -2   8    2.82    0.37
  13  -1   0    1.26    0.45
  13  -1   1    0.70    0.45
  13  -1   2    0.68    0.43
  13  -1   3    0.80    0.43
  13  -1   4    0.36    0.42
  13  -1   5    0.75    0.42
  13  -1   6    2.38    0.36
  13  -1   7    0.53    0.34
  13  -1   8   11.69    0.54
  13  -1   9    1.26    0.35
  13  -1  10    1.76    0.35
  13   0   0    0.00    0.42
  13   0   1    0.56    0.43
  13   0   2    0.43    0.44
  13   0   3    0.16    0.41
  13   0   4    0.00    0.41
  13   0   5    0.09    0.41
  13   0   6    0.48    0.41
  13   0   7    0.79    0.34
  13   0   8    1.16    0.65
  13   0   9    0.01    0.51
  13   0  10    0.13    0.46
  13   1   0    0.46    0.44
  13   1   1    0.30    0.43
  13   1   2    1.04    0.44
  13   1   3    0.52    0.43
  13   1   4    0.41    0.42
  13   1   5    0.12    0.40
  13   1   6    2.56    0.45
  13   1   7    0.22    0.34
  13   1   8    2.51    0.37
  13   1   9    2.14    0.36
  13   1  10    0.00    0.33
  13   1  11    0.30    0.70
  13   2   0    0.00    0.43
  13   2   1    0.00    0.41
  13   2   2    0.95    0.44
  13   2   3    0.59    0.42
  13   2   4    0.27    0.41
  13   2   5    3.73    0.48
  13   2   6    0.81    0.42
  13   2   7    2.33    0.46
  13   2   8    1.43    0.35
  13   2   9    0.44    0.34
  13   2  10    0.65    0.34
  13   2  11    0.88    0.43
  13   3   0    0.83    0.45
  13   3   1    0.82    0.44
  13   3   2    0.13    0.43
  13   3   3    1.53    0.45
  13   3   4    0.00    0.41
  13   3   5    0.80    0.42
  13   3   6    0.00    0.42
  13   3   7    0.66    0.42
  13   3   8    0.26    0.41
  13   3   9    0.00    0.34
  13   3  10    1.21    0.35
  13   3  11    0.05    0.34
  13   4   0    2.32    0.48
  13   4   1    0.45    0.44
  13   4   2    0.34    0.44
  13   4   3    0.01    0.43
  13   4   4    1.79    0.44
  13   4   5    1.40    0.44
  13   4   6    1.09    0.43
  13   4   7    1.05    0.43
  13   4   8    0.00    0.41
  13   4   9    0.04    0.41
  13   4  10    0.46    0.41
  13   4  11    0.19    0.34
  13   5   0    0.78    0.46
  13   5   1    0.03    0.42
  13   5   2    1.52    0.44
  13   5   3    7.65    0.62
  13   5   4    0.00    0.42
  13   5   5    1.03    0.43
  13   5   6    0.20    0.42
  13   5   7    0.08    0.42
  13   5   8    0.40    0.42
  13   5   9    0.03    0.42
  13   5  10    2.32    0.46
  13   5  11    0.00    0.41
  13   6   0    3.96    0.51
  13   6   1    1.01    0.45
  13   6   2    0.83    0.44
  13   6   3    0.32    0.44
  13   6   4    1.51    0.45
  13   6   5    0.01    0.41
  13   6   6    0.57    0.44
  13   6   7    1.04    0.44
  13   6   8    0.01    0.41
  13   6   9    1.57    0.45
  13   6  10    1.53    0.44
  13   7   0    0.33    0.46
  13   7   1    0.94    0.45
  13   7   2    0.04    0.42
  13   7   3    3.45    0.51
  13   7   4    0.00    0.43
  13   7   5    1.53    0.45
  13   7   6    1.59    0.46
  13   7   7    0.80    0.45
  13   7   8    1.37    0.44
  13   7   9    0.00    0.43
  13   7  10    0.01    0.41
  13   8   2    1.42    0.46
  13   8   3    0.01    0.42
  13   8   4    1.38    0.46
  13   8   5    0.00    0.43
  13   8   6    0.93    0.44
  13   8   7    0.01    0.43
  13   8   8    0.51    0.44
   0   0   0    0.00    0.00
;
_shelx_hkl_checksum              64360
loop_
_space_group_symop_operation_xyz
'x, y, z'
'-x, -y, -z'
loop_
_atom_site_label
_atom_site_type_symbol
_atom_site_fract_x
_atom_site_fract_y
_atom_site_fract_z
_atom_site_U_iso_or_equiv
_atom_site_adp_type
_atom_site_occupancy
_atom_site_site_symmetry_order
_atom_site_calc_flag
_atom_site_refinement_flags_posn
_atom_site_refinement_flags_adp
_atom_site_refinement_flags_occupancy
_atom_site_disorder_assembly
_atom_site_disorder_group
Zn1 Zn 0.00958(4) 0.19481(2) 0.49638(2) 0.03070(16) Uani 1 1 d . . . . .
Zn2 Zn 0.20065(4) 0.32052(2) 0.08604(2) 0.03147(16) Uani 1 1 d . . . . .
N1 N -0.0931(3) 0.16347(16) 0.56315(14) 0.0280(9) Uani 1 1 d . . . . .
C2 C -0.0872(3) 0.2537(2) 0.68169(17) 0.0259(10) Uani 1 1 d . U . . .
N3 N 0.0745(3) 0.25254(16) 0.54096(14) 0.0284(9) Uani 1 1 d . . . . .
N4 N 0.1378(3) 0.21202(16) 0.43585(14) 0.0298(9) Uani 1 1 d . . . . .
N5 N -0.0326(3) 0.12410(17) 0.45709(14) 0.0326(9) Uani 1 1 d . . . . .
N6 N -0.8399(4) -0.2521(2) 0.64484(18) 0.0536(12) Uani 1 1 d . . . . .
N8 N 0.1309(3) 0.27960(16) 0.03211(14) 0.0276(9) Uani 1 1 d . . . . .
N9 N 0.0617(3) 0.30700(15) 0.14053(14) 0.0269(9) Uani 1 1 d . . . . .
N10 N 0.3329(3) 0.33951(16) 0.02979(14) 0.0284(9) Uani 1 1 d . . . . .
N11 N 0.2644(3) 0.36756(17) 0.13800(14) 0.0301(9) Uani 1 1 d . . . . .
C1 C -0.1084(4) 0.1864(2) 0.61216(17) 0.0263(10) Uani 1 1 d . U . . .
C3 C -0.1876(4) 0.1519(2) 0.64887(18) 0.0308(10) Uani 1 1 d . U . . .
H3 H -0.2120 0.1584 0.6853 0.037 Uiso 1 1 calc R U . . .
C4 C -0.2210(4) 0.1084(2) 0.62156(18) 0.0313(10) Uani 1 1 d . U . . .
H4 H -0.2731 0.0786 0.6354 0.038 Uiso 1 1 calc R U . . .
C5 C -0.1627(4) 0.1157(2) 0.56760(17) 0.0289(10) Uani 1 1 d . U . . .
C6 C -0.1756(4) 0.0799(2) 0.52656(18) 0.0299(10) Uani 1 1 d . U . . .
C7 C -0.1131(4) 0.0838(2) 0.47540(18) 0.0336(11) Uani 1 1 d . U . . .
C8 C -0.1255(5) 0.0466(2) 0.43341(19) 0.0465(13) Uani 1 1 d . U . . .
H8 H -0.1762 0.0154 0.4354 0.056 Uiso 1 1 calc R U . . .
C9 C -0.0514(5) 0.0644(2) 0.3908(2) 0.0488(14) Uani 1 1 d . U . . .
H9 H -0.0399 0.0476 0.3572 0.059 Uiso 1 1 calc R U . . .
C10 C 0.0066(4) 0.1128(2) 0.40479(18) 0.0355(11) Uani 1 1 d . U . . .
C11 C 0.0915(4) 0.1430(2) 0.37183(18) 0.0374(11) Uani 1 1 d . U . . .
C12 C 0.1557(4) 0.1866(2) 0.38744(18) 0.0338(11) Uani 1 1 d . U . . .
C13 C 0.2579(4) 0.2066(2) 0.3564(2) 0.0417(12) Uani 1 1 d . U . . .
H13 H 0.2883 0.1966 0.3213 0.050 Uiso 1 1 calc R U . . .
C14 C 0.3018(4) 0.2423(2) 0.38659(18) 0.0377(12) Uani 1 1 d . U . . .
H14 H 0.3705 0.2609 0.3770 0.045 Uiso 1 1 calc R U . . .
C15 C 0.2268(4) 0.2473(2) 0.43592(17) 0.0300(10) Uani 1 1 d . U . . .
C16 C 0.2405(4) 0.2823(2) 0.47754(18) 0.0292(10) Uani 1 1 d . U . . .
C17 C 0.3471(4) 0.3142(2) 0.47200(18) 0.0302(10) Uani 1 1 d . U . . .
C18 C 0.3825(4) 0.3553(2) 0.42768(18) 0.0340(11) Uani 1 1 d . U . . .
H18 H 0.3356 0.3663 0.4009 0.041 Uiso 1 1 calc R U . . .
C19 C 0.4858(4) 0.3808(2) 0.42179(19) 0.0337(11) Uani 1 1 d . U . . .
C1A C 0.5313(4) 0.4221(2) 0.3717(2) 0.0405(12) Uani 1 1 d . U . . .
C20 C 0.6526(4) 0.3980(3) 0.3520(2) 0.0557(15) Uani 1 1 d . U . . .
H20A H 0.6986 0.3993 0.3801 0.084 Uiso 1 1 calc R U . . .
H20B H 0.6816 0.4247 0.3202 0.084 Uiso 1 1 calc R U . . .
H20C H 0.6553 0.3544 0.3431 0.084 Uiso 1 1 calc R U . . .
C21 C 0.5268(5) 0.4900(2) 0.3856(2) 0.0515(14) Uani 1 1 d . U . . .
H21A H 0.4484 0.5071 0.3941 0.077 Uiso 1 1 calc R U . . .
H21B H 0.5638 0.5157 0.3551 0.077 Uiso 1 1 calc R U . . .
H21C H 0.5652 0.4907 0.4165 0.077 Uiso 1 1 calc R U . . .
C22 C 0.4643(4) 0.4210(2) 0.3252(2) 0.0471(13) Uani 1 1 d . U . . .
H22A H 0.4624 0.3772 0.3177 0.071 Uiso 1 1 calc R U . . .
H22B H 0.5004 0.4449 0.2933 0.071 Uiso 1 1 calc R U . . .
H22C H 0.3876 0.4401 0.3350 0.071 Uiso 1 1 calc R U . . .
C23 C 0.5475(4) 0.3670(2) 0.46416(19) 0.0361(11) Uani 1 1 d . U . . .
H23 H 0.6155 0.3859 0.4619 0.043 Uiso 1 1 calc R U . . .
C24 C 0.5147(4) 0.3272(2) 0.50940(18) 0.0327(11) Uani 1 1 d . U . . .
C25 C 0.5824(4) 0.3113(2) 0.5558(2) 0.0436(12) Uani 1 1 d . U . . .
C26 C 0.5021(5) 0.3237(3) 0.6091(2) 0.0585(15) Uani 1 1 d . U . . .
H26A H 0.4701 0.3678 0.6072 0.088 Uiso 1 1 calc R U . . .
H26B H 0.5445 0.3151 0.6392 0.088 Uiso 1 1 calc R U . . .
H26C H 0.4415 0.2959 0.6142 0.088 Uiso 1 1 calc R U . . .
C27 C 0.6742(5) 0.3522(3) 0.5531(2) 0.0660(17) Uani 1 1 d . U . . .
H27A H 0.7283 0.3459 0.5208 0.099 Uiso 1 1 calc R U . . .
H27B H 0.7119 0.3413 0.5846 0.099 Uiso 1 1 calc R U . . .
H27C H 0.6431 0.3965 0.5522 0.099 Uiso 1 1 calc R U . . .
C28 C 0.6213(5) 0.2424(3) 0.5601(3) 0.0656(17) Uani 1 1 d . U . . .
H28A H 0.5577 0.2179 0.5601 0.098 Uiso 1 1 calc R U . . .
H28B H 0.6526 0.2309 0.5934 0.098 Uiso 1 1 calc R U . . .
H28C H 0.6790 0.2332 0.5298 0.098 Uiso 1 1 calc R U . . .
C29 C 0.4145(4) 0.2996(2) 0.51166(17) 0.0286(10) Uani 1 1 d . U . . .
H29 H 0.3922 0.2701 0.5411 0.034 Uiso 1 1 calc R U . . .
C30 C 0.1665(4) 0.2863(2) 0.52565(17) 0.0278(10) Uani 1 1 d . U . . .
C31 C 0.1770(4) 0.3245(2) 0.56749(18) 0.0327(11) Uani 1 1 d . U . . .
H31 H 0.2322 0.3529 0.5667 0.039 Uiso 1 1 calc R U . . .
C32 C 0.0927(4) 0.3122(2) 0.60845(18) 0.0292(10) Uani 1 1 d . U . . .
H32 H 0.0786 0.3303 0.6415 0.035 Uiso 1 1 calc R U . . .
C33 C 0.0298(4) 0.2671(2) 0.59234(17) 0.0276(10) Uani 1 1 d . U . . .
C34 C -0.0554(3) 0.2366(2) 0.62531(16) 0.0253(10) Uani 1 1 d . U . . .
C35 C -0.1638(4) 0.3048(2) 0.69465(18) 0.0285(10) Uani 1 1 d . U . . .
H35 H -0.1925 0.3322 0.6670 0.034 Uiso 1 1 calc R U . . .
C36 C -0.1989(4) 0.3163(2) 0.74769(18) 0.0281(10) Uani 1 1 d . U . . .
C37 C -0.1554(4) 0.2754(2) 0.78698(18) 0.0307(10) Uani 1 1 d . U . . .
H37 H -0.1794 0.2827 0.8233 0.037 Uiso 1 1 calc R U . . .
C38 C -0.0774(4) 0.2237(2) 0.77539(17) 0.0298(10) Uani 1 1 d . U . . .
C39 C -0.0448(4) 0.2145(2) 0.72194(17) 0.0290(10) Uani 1 1 d . U . . .
H39 H 0.0085 0.1801 0.7127 0.035 Uiso 1 1 calc R U . . .
C40 C -0.0315(4) 0.1771(2) 0.81825(17) 0.0345(11) Uani 1 1 d . U . . .
C41 C -0.0851(4) 0.1913(3) 0.87465(19) 0.0506(14) Uani 1 1 d . U . . .
H41A H -0.0660 0.2326 0.8816 0.076 Uiso 1 1 calc R U . . .
H41B H -0.0570 0.1587 0.9006 0.076 Uiso 1 1 calc R U . . .
H41C H -0.1667 0.1918 0.8778 0.076 Uiso 1 1 calc R U . . .
C42 C -0.0594(4) 0.1101(2) 0.8104(2) 0.0447(13) Uani 1 1 d . U . . .
H42A H -0.1404 0.1102 0.8114 0.067 Uiso 1 1 calc R U . . .
H42B H -0.0349 0.0799 0.8391 0.067 Uiso 1 1 calc R U . . .
H42C H -0.0204 0.0978 0.7759 0.067 Uiso 1 1 calc R U . . .
C43 C 0.0955(4) 0.1788(2) 0.81299(19) 0.0390(12) Uani 1 1 d . U . . .
H43A H 0.1305 0.1677 0.7775 0.058 Uiso 1 1 calc R U . . .
H43B H 0.1250 0.1484 0.8402 0.058 Uiso 1 1 calc R U . . .
H43C H 0.1122 0.2213 0.8179 0.058 Uiso 1 1 calc R U . . .
C44 C -0.2822(4) 0.3738(2) 0.7637(2) 0.0379(11) Uani 1 1 d . U . . .
C45 C -0.2135(4) 0.4260(2) 0.7719(2) 0.0563(15) Uani 1 1 d . U . . .
H45A H -0.1685 0.4115 0.8004 0.084 Uiso 1 1 calc R U . . .
H45B H -0.2638 0.4632 0.7819 0.084 Uiso 1 1 calc R U . . .
H45C H -0.1637 0.4371 0.7388 0.084 Uiso 1 1 calc R U . . .
C46 C -0.3539(4) 0.3975(3) 0.7198(2) 0.0525(14) Uani 1 1 d . U . . .
H46A H -0.3061 0.4147 0.6881 0.079 Uiso 1 1 calc R U . . .
H46B H -0.4111 0.4306 0.7326 0.079 Uiso 1 1 calc R U . . .
H46C H -0.3905 0.3624 0.7107 0.079 Uiso 1 1 calc R U . . .
C47 C -0.3623(4) 0.3578(2) 0.8149(2) 0.0438(13) Uani 1 1 d . U . . .
H47A H -0.4059 0.3237 0.8097 0.066 Uiso 1 1 calc R U . . .
H47B H -0.4133 0.3952 0.8236 0.066 Uiso 1 1 calc R U . . .
H47C H -0.3191 0.3442 0.8442 0.066 Uiso 1 1 calc R U . . .
C48 C 0.1235(4) 0.1252(2) 0.31531(13) 0.0390(12) Uani 1 1 d G U . . .
C49A C 0.0731(6) 0.1601(3) 0.27468(17) 0.051(5) Uiso 0.428(11) 1 d G . P A 2
H49A H 0.0162 0.1932 0.2828 0.062 Uiso 0.428(11) 1 calc R U P A 2
C50A C 0.1060(6) 0.1464(3) 0.22213(15) 0.025(3) Uiso 0.428(11) 1 d G . P A 2
H50A H 0.0716 0.1702 0.1944 0.029 Uiso 0.428(11) 1 calc R U P A 2
C51 C 0.1893(4) 0.0979(2) 0.21021(13) 0.0430(13) Uani 1 1 d G U . A .
C60A C 0.2396(6) 0.0631(3) 0.25084(17) 0.048(4) Uiso 0.428(11) 1 d G . P A 2
H60A H 0.2966 0.0299 0.2427 0.057 Uiso 0.428(11) 1 calc R U P A 2
C61A C 0.2067(6) 0.0767(3) 0.30339(15) 0.048(4) Uiso 0.428(11) 1 d G . P A 2
H61A H 0.2412 0.0529 0.3312 0.058 Uiso 0.428(11) 1 calc R U P A 2
C49 C 0.1007(7) 0.1687(4) 0.2742(3) 0.018(2) Uiso 0.572(11) 1 d . . P A 1
H49 H 0.0586 0.2076 0.2819 0.021 Uiso 0.572(11) 1 calc R U P A 1
C50 C 0.1376(7) 0.1575(4) 0.2211(3) 0.025(2) Uiso 0.572(11) 1 d . . P A 1
H50 H 0.1278 0.1897 0.1930 0.030 Uiso 0.572(11) 1 calc R U P A 1
C52 C 0.2291(4) 0.08447(19) 0.15250(12) 0.0400(12) Uani 1 1 d G U . . .
C53A C 0.3282(5) 0.0464(3) 0.13990(14) 0.030(3) Uiso 0.428(11) 1 d G . P A 1
H53A H 0.3683 0.0270 0.1675 0.035 Uiso 0.428(11) 1 calc R U P A 1
C54A C 0.3687(4) 0.0369(3) 0.08699(16) 0.027(3) Uiso 0.428(11) 1 d G . P A 1
H54A H 0.4364 0.0109 0.0784 0.033 Uiso 0.428(11) 1 calc R U P A 1
C55A C 0.3100(3) 0.06532(19) 0.04668(12) 0.0366(12) Uani 1 1 d G U . A .
C56A C 0.2109(5) 0.1034(3) 0.05928(14) 0.032(3) Uiso 0.428(11) 1 d G . P A 1
H56A H 0.1708 0.1228 0.0317 0.038 Uiso 0.428(11) 1 calc R U P A 1
C57A C 0.1704(4) 0.1129(3) 0.11218(16) 0.025(3) Uiso 0.428(11) 1 d G . P A 1
H57A H 0.1026 0.1389 0.1208 0.030 Uiso 0.428(11) 1 calc R U P A 1
C53 C 0.2987(9) 0.0334(5) 0.1400(4) 0.040(3) Uiso 0.572(11) 1 d . . P A 2
H53 H 0.3211 0.0039 0.1679 0.048 Uiso 0.572(11) 1 calc R U P A 2
C54 C 0.3396(9) 0.0222(5) 0.0867(4) 0.045(3) Uiso 0.572(11) 1 d . . P A 2
H54 H 0.3872 -0.0149 0.0788 0.054 Uiso 0.572(11) 1 calc R U P A 2
C56 C 0.2433(8) 0.1218(4) 0.0587(3) 0.037(2) Uiso 0.572(11) 1 d . . P A 2
H56 H 0.2224 0.1519 0.0308 0.045 Uiso 0.572(11) 1 calc R U P A 2
C57 C 0.2093(9) 0.1324(5) 0.1108(4) 0.051(3) Uiso 0.572(11) 1 d . . P A 2
H57 H 0.1720 0.1722 0.1193 0.061 Uiso 0.572(11) 1 calc R U P A 2
C58 C 0.3528(4) 0.0574(2) -0.0086(2) 0.0436(13) Uani 1 1 d . U . . .
N59 N 0.3846(4) 0.0522(2) -0.05319(19) 0.0587(13) Uani 1 1 d . . . . .
C60 C 0.1902(8) 0.0493(4) 0.2515(3) 0.038(2) Uiso 0.572(11) 1 d . . P A 1
H60 H 0.2127 0.0070 0.2437 0.046 Uiso 0.572(11) 1 calc R U P A 1
C61 C 0.1583(8) 0.0629(4) 0.3037(3) 0.040(2) Uiso 0.572(11) 1 d . . P A 1
H61 H 0.1600 0.0300 0.3319 0.047 Uiso 0.572(11) 1 calc R U P A 1
C62 C -0.2630(4) 0.0346(2) 0.53907(17) 0.0301(10) Uani 1 1 d . U . . .
C63 C -0.2364(4) -0.0302(2) 0.54019(18) 0.0338(11) Uani 1 1 d . U . . .
H63 H -0.1604 -0.0466 0.5315 0.041 Uiso 1 1 calc R U . . .
C64 C -0.3195(4) -0.0718(2) 0.55395(18) 0.0341(11) Uani 1 1 d . U . . .
H64 H -0.2991 -0.1159 0.5544 0.041 Uiso 1 1 calc R U . . .
C65 C -0.4303(4) -0.0498(2) 0.56689(18) 0.0326(11) Uani 1 1 d . U . . .
C66 C -0.4570(4) 0.0153(2) 0.5646(2) 0.0463(13) Uani 1 1 d . U . . .
H66 H -0.5331 0.0317 0.5729 0.056 Uiso 1 1 calc R U . . .
C67 C -0.3760(4) 0.0561(2) 0.5507(2) 0.0433(13) Uani 1 1 d . U . . .
H67 H -0.3973 0.1002 0.5490 0.052 Uiso 1 1 calc R U . . .
C68 C -0.5182(4) -0.0945(2) 0.58388(18) 0.0324(11) Uani 1 1 d . U . . .
C69 C -0.5122(4) -0.1506(2) 0.56126(19) 0.0357(11) Uani 1 1 d . U . . .
H69 H -0.4518 -0.1609 0.5341 0.043 Uiso 1 1 calc R U . . .
C70 C -0.5932(4) -0.1922(2) 0.57767(19) 0.0389(12) Uani 1 1 d . U . . .
H70 H -0.5881 -0.2308 0.5620 0.047 Uiso 1 1 calc R U . . .
C71 C -0.6816(4) -0.1772(2) 0.6170(2) 0.0394(12) Uani 1 1 d . U . . .
C72 C -0.7688(4) -0.2193(3) 0.6329(2) 0.0449(13) Uani 1 1 d . U . . .
C73 C -0.6876(4) -0.1207(3) 0.6402(2) 0.0550(15) Uani 1 1 d . U . . .
H73 H -0.7478 -0.1101 0.6673 0.066 Uiso 1 1 calc R U . . .
C74 C -0.6054(4) -0.0805(3) 0.6232(2) 0.0511(14) Uani 1 1 d . U . . .
H74 H -0.6093 -0.0422 0.6392 0.061 Uiso 1 1 calc R U . . .
C75 C 0.1775(4) 0.2721(2) -0.02040(17) 0.0287(10) Uani 1 1 d . U . . .
C76 C 0.1102(4) 0.2347(2) -0.04309(19) 0.0330(11) Uani 1 1 d . U . . .
H76 H 0.1235 0.2229 -0.0785 0.040 Uiso 1 1 calc R U . . .
C77 C 0.0250(4) 0.2193(2) -0.00522(18) 0.0325(11) Uani 1 1 d . U . . .
H77 H -0.0319 0.1937 -0.0088 0.039 Uiso 1 1 calc R U . . .
C78 C 0.0350(4) 0.2486(2) 0.04200(18) 0.0285(10) Uani 1 1 d . U . . .
C79 C -0.0391(4) 0.24504(19) 0.09022(17) 0.0261(10) Uani 1 1 d . U . . .
C80 C -0.1336(4) 0.2044(2) 0.09525(17) 0.0275(10) Uani 1 1 d . U . . .
C81 C -0.2108(4) 0.2116(2) 0.05966(18) 0.0315(11) Uani 1 1 d . U . . .
H81 H -0.2077 0.2459 0.0326 0.038 Uiso 1 1 calc R U . . .
C82 C -0.2919(4) 0.1704(2) 0.06252(19) 0.0340(11) Uani 1 1 d . U . . .
C83 C -0.2977(4) 0.1223(2) 0.10409(19) 0.0357(11) Uani 1 1 d . U . . .
H83 H -0.3540 0.0942 0.1069 0.043 Uiso 1 1 calc R U . . .
C84 C -0.2240(4) 0.1136(2) 0.1419(2) 0.0383(12) Uani 1 1 d . U . . .
C85 C -0.2329(5) 0.0596(2) 0.1853(2) 0.0502(14) Uani 1 1 d . U . . .
C86 C -0.3500(5) 0.0654(3) 0.2190(2) 0.0726(18) Uani 1 1 d . U . . .
H86A H -0.3632 0.1063 0.2339 0.109 Uiso 1 1 calc R U . . .
H86B H -0.3543 0.0314 0.2481 0.109 Uiso 1 1 calc R U . . .
H86C H -0.4070 0.0621 0.1964 0.109 Uiso 1 1 calc R U . . .
C87 C -0.1447(6) 0.0584(3) 0.2224(2) 0.077(2) Uani 1 1 d . U . . .
H87A H -0.0698 0.0501 0.2022 0.115 Uiso 1 1 calc R U . . .
H87B H -0.1575 0.0250 0.2517 0.115 Uiso 1 1 calc R U . . .
H87C H -0.1506 0.0993 0.2370 0.115 Uiso 1 1 calc R U . . .
C88 C -0.2169(5) -0.0037(2) 0.1610(3) 0.0662(17) Uani 1 1 d . U . . .
H88A H -0.2783 -0.0064 0.1408 0.099 Uiso 1 1 calc R U . . .
H88B H -0.2169 -0.0384 0.1895 0.099 Uiso 1 1 calc R U . . .
H88C H -0.1454 -0.0069 0.1370 0.099 Uiso 1 1 calc R U . . .
C89 C -0.1417(4) 0.1552(2) 0.13586(18) 0.0305(11) Uani 1 1 d . U . . .
H89 H -0.0892 0.1499 0.1603 0.037 Uiso 1 1 calc R U . . .
C90 C -0.3735(4) 0.1763(2) 0.0212(2) 0.0418(12) Uani 1 1 d . U . . .
C91 C -0.3693(6) 0.1125(3) -0.0015(3) 0.0713(19) Uani 1 1 d . U . . .
H91A H -0.2950 0.1026 -0.0218 0.107 Uiso 1 1 calc R U . . .
H91B H -0.4264 0.1147 -0.0250 0.107 Uiso 1 1 calc R U . . .
H91C H -0.3840 0.0795 0.0279 0.107 Uiso 1 1 calc R U . . .
C92 C -0.4922(4) 0.1948(3) 0.0490(2) 0.0517(14) Uani 1 1 d . U . . .
H92A H -0.5125 0.1631 0.0788 0.078 Uiso 1 1 calc R U . . .
H92B H -0.5453 0.1971 0.0235 0.078 Uiso 1 1 calc R U . . .
H92C H -0.4948 0.2361 0.0626 0.078 Uiso 1 1 calc R U . . .
C93 C -0.3422(4) 0.2257(2) -0.0249(2) 0.0460(13) Uani 1 1 d . U . . .
H93A H -0.3500 0.2674 -0.0116 0.069 Uiso 1 1 calc R U . . .
H93B H -0.3921 0.2260 -0.0516 0.069 Uiso 1 1 calc R U . . .
H93C H -0.2645 0.2156 -0.0412 0.069 Uiso 1 1 calc R U . . .
C94 C -0.0288(3) 0.27552(19) 0.13485(17) 0.0254(10) Uani 1 1 d . U . . .
C95 C -0.1101(4) 0.2795(2) 0.18185(18) 0.0334(11) Uani 1 1 d . U . . .
H95 H -0.1798 0.2617 0.1882 0.040 Uiso 1 1 calc R U . . .
C96 C -0.0709(4) 0.3126(2) 0.21554(18) 0.0333(11) Uani 1 1 d . U . . .
H96 H -0.1076 0.3227 0.2497 0.040 Uiso 1 1 calc R U . . .
C97 C 0.0374(4) 0.3298(2) 0.18990(17) 0.0298(10) Uani 1 1 d . U . . .
C98 C 0.1086(4) 0.36266(19) 0.21290(17) 0.0280(10) Uani 1 1 d . U . . .
C99 C 0.0648(4) 0.3830(2) 0.26779(17) 0.0291(10) Uani 1 1 d . U . . .
C100 C 0.0866(5) 0.3445(2) 0.3121(2) 0.0526(15) Uani 1 1 d . U . . .
H100 H 0.1313 0.3055 0.3082 0.063 Uiso 1 1 calc R U . . .
C101 C 0.0437(5) 0.3621(2) 0.3626(2) 0.0501(14) Uani 1 1 d . U . . .
H101 H 0.0592 0.3346 0.3929 0.060 Uiso 1 1 calc R U . . .
C102 C -0.0209(4) 0.4188(2) 0.36994(17) 0.0289(10) Uani 1 1 d . U . . .
C103 C -0.0656(4) 0.4370(2) 0.42460(17) 0.0289(10) Uani 1 1 d . U . . .
C104 C -0.1588(4) 0.4813(2) 0.43406(19) 0.0363(11) Uani 1 1 d . U . . .
H104 H -0.1959 0.4998 0.4052 0.044 Uiso 1 1 calc R U . . .
C105 C -0.1973(4) 0.4985(2) 0.48465(19) 0.0393(12) Uani 1 1 d . U . . .
H105 H -0.2600 0.5290 0.4903 0.047 Uiso 1 1 calc R U . . .
C106 C -0.1452(4) 0.4717(2) 0.52734(18) 0.0320(10) Uani 1 1 d . U . . .
C107 C -0.0550(4) 0.4273(2) 0.51926(18) 0.0343(11) Uani 1 1 d . U . . .
H107 H -0.0194 0.4086 0.5486 0.041 Uiso 1 1 calc R U . . .
C108 C -0.0157(4) 0.4099(2) 0.46836(18) 0.0363(11) Uani 1 1 d . U . . .
H108 H 0.0465 0.3789 0.4632 0.044 Uiso 1 1 calc R U . . .
C109 C -0.1819(4) 0.4905(2) 0.5808(2) 0.0384(12) Uani 1 1 d . U . . .
N110 N -0.2075(4) 0.5061(2) 0.62233(18) 0.0525(12) Uani 1 1 d . . . . .
C111 C -0.0376(4) 0.4569(2) 0.32497(18) 0.0421(13) Uani 1 1 d . U . . .
H111 H -0.0789 0.4970 0.3284 0.051 Uiso 1 1 calc R U . . .
C112 C 0.0033(4) 0.4394(2) 0.27441(19) 0.0443(13) Uani 1 1 d . U . . .
H112 H -0.0118 0.4670 0.2440 0.053 Uiso 1 1 calc R U . . .
C113 C 0.2152(4) 0.37795(19) 0.18909(18) 0.0295(10) Uani 1 1 d . U . . .
C114 C 0.2924(4) 0.4058(2) 0.2154(2) 0.0360(11) Uani 1 1 d . U . . .
H114 H 0.2800 0.4170 0.2510 0.043 Uiso 1 1 calc R U . . .
C115 C 0.3849(4) 0.4128(2) 0.1796(2) 0.0383(12) Uani 1 1 d . U . . .
H115 H 0.4501 0.4302 0.1855 0.046 Uiso 1 1 calc R U . . .
C116 C 0.3690(4) 0.3896(2) 0.13101(18) 0.0310(10) Uani 1 1 d . U . . .
C117 C 0.4450(4) 0.3893(2) 0.08346(19) 0.0313(10) Uani 1 1 d . U . . .
C118 C 0.5546(4) 0.4159(2) 0.08250(18) 0.0294(10) Uani 1 1 d . U . . .
C119 C 0.5588(4) 0.4800(2) 0.0832(2) 0.0378(12) Uani 1 1 d . U . . .
H119 H 0.4915 0.5074 0.0850 0.045 Uiso 1 1 calc R U . . .
C120 C 0.6611(4) 0.5049(2) 0.0812(2) 0.0396(12) Uani 1 1 d . U . . .
H120 H 0.6625 0.5490 0.0826 0.047 Uiso 1 1 calc R U . . .
C121 C 0.7611(4) 0.4658(2) 0.07734(17) 0.0295(10) Uani 1 1 d . U . . .
C122 C 0.7562(4) 0.4009(2) 0.07839(19) 0.0351(11) Uani 1 1 d . U . . .
H122 H 0.8231 0.3732 0.0776 0.042 Uiso 1 1 calc R U . . .
C123 C 0.6533(4) 0.3765(2) 0.08064(19) 0.0352(11) Uani 1 1 d . U . . .
H123 H 0.6511 0.3322 0.0809 0.042 Uiso 1 1 calc R U . . .
C124 C 0.8687(4) 0.4942(2) 0.07395(18) 0.0304(10) Uani 1 1 d . U . . .
C125 C 0.8882(4) 0.5500(2) 0.04323(18) 0.0323(11) Uani 1 1 d . U . . .
H125 H 0.8331 0.5692 0.0224 0.039 Uiso 1 1 calc R U . . .
C126 C 0.9843(4) 0.5788(2) 0.04161(19) 0.0368(11) Uani 1 1 d . U . . .
H126 H 0.9953 0.6174 0.0201 0.044 Uiso 1 1 calc R U . . .
C127 C 1.0647(4) 0.5510(2) 0.07159(19) 0.0393(12) Uani 1 1 d . U . . .
C128 C 1.1644(5) 0.5824(3) 0.0718(2) 0.0588(16) Uani 1 1 d . U . . .
N129 N 1.2409(5) 0.6081(3) 0.0726(2) 0.094(2) Uani 1 1 d . . . . .
C130 C 1.0488(4) 0.4936(2) 0.10253(19) 0.0426(12) Uani 1 1 d . U . . .
H130 H 1.1052 0.4742 0.1226 0.051 Uiso 1 1 calc R U . . .
C131 C 0.9522(4) 0.4650(2) 0.10418(19) 0.0391(12) Uani 1 1 d . U . . .
H131 H 0.9414 0.4262 0.1253 0.047 Uiso 1 1 calc R U . . .
C132 C 0.4254(4) 0.36786(19) 0.03610(18) 0.0283(10) Uani 1 1 d . U . . .
C133 C 0.5010(4) 0.3721(2) -0.01322(18) 0.0320(11) Uani 1 1 d . U . . .
H133 H 0.5710 0.3896 -0.0193 0.038 Uiso 1 1 calc R U . . .
C134 C 0.4542(4) 0.3465(2) -0.04907(19) 0.0308(10) Uani 1 1 d . U . . .
H134 H 0.4848 0.3430 -0.0854 0.037 Uiso 1 1 calc R U . . .
C135 C 0.3502(4) 0.3256(2) -0.02270(18) 0.0297(10) Uani 1 1 d . U . . .
C136 C 0.2770(4) 0.2952(2) -0.04667(17) 0.0288(10) Uani 1 1 d . U . . .
C137 C 0.3075(3) 0.2872(2) -0.10465(17) 0.0270(10) Uani 1 1 d . U . . .
C138 C 0.3813(4) 0.2379(2) -0.12395(18) 0.0288(10) Uani 1 1 d . U . . .
H138 H 0.4124 0.2071 -0.0992 0.035 Uiso 1 1 calc R U . . .
C139 C 0.4114(4) 0.2320(2) -0.17835(17) 0.0275(10) Uani 1 1 d . U . . .
C140 C 0.3632(3) 0.2780(2) -0.21327(18) 0.0290(10) Uani 1 1 d . U . . .
H140 H 0.3828 0.2752 -0.2506 0.035 Uiso 1 1 calc R U . . .
C141 C 0.2872(4) 0.3279(2) -0.19561(17) 0.0285(10) Uani 1 1 d . U . . .
C142 C 0.2341(4) 0.3790(2) -0.23393(18) 0.0342(11) Uani 1 1 d . U . . .
C143 C 0.2739(5) 0.3679(3) -0.29243(19) 0.0491(14) Uani 1 1 d . U . . .
H14A H 0.3555 0.3686 -0.3002 0.074 Uiso 1 1 calc R U . . .
H14B H 0.2381 0.4012 -0.3154 0.074 Uiso 1 1 calc R U . . .
H14C H 0.2538 0.3267 -0.2991 0.074 Uiso 1 1 calc R U . . .
C144 C 0.2669(4) 0.4438(2) -0.2239(2) 0.0456(13) Uani 1 1 d . U . . .
H14D H 0.2379 0.4524 -0.1871 0.068 Uiso 1 1 calc R U . . .
H14E H 0.2349 0.4767 -0.2485 0.068 Uiso 1 1 calc R U . . .
H14F H 0.3488 0.4434 -0.2299 0.068 Uiso 1 1 calc R U . . .
C145 C 0.1066(4) 0.3789(3) -0.2223(2) 0.0492(14) Uani 1 1 d . U . . .
H14G H 0.0859 0.3368 -0.2260 0.074 Uiso 1 1 calc R U . . .
H14H H 0.0723 0.4099 -0.2477 0.074 Uiso 1 1 calc R U . . .
H14I H 0.0799 0.3900 -0.1859 0.074 Uiso 1 1 calc R U . . .
C146 C 0.2613(4) 0.3316(2) -0.14067(18) 0.0312(10) Uani 1 1 d . U . . .
H146 H 0.2108 0.3655 -0.1277 0.037 Uiso 1 1 calc R U . . .
C147 C 0.4906(4) 0.1762(2) -0.19868(18) 0.0295(10) Uani 1 1 d . U . . .
C148 C 0.5833(4) 0.1572(3) -0.1642(2) 0.0528(15) Uani 1 1 d . U . . .
H14J H 0.6241 0.1938 -0.1627 0.079 Uiso 1 1 calc R U . . .
H14K H 0.6352 0.1234 -0.1798 0.079 Uiso 1 1 calc R U . . .
H14L H 0.5501 0.1422 -0.1281 0.079 Uiso 1 1 calc R U . . .
C149 C 0.5476(4) 0.1915(2) -0.2563(2) 0.0505(14) Uani 1 1 d . U . . .
H14M H 0.4911 0.1971 -0.2804 0.076 Uiso 1 1 calc R U . . .
H14N H 0.6036 0.1566 -0.2665 0.076 Uiso 1 1 calc R U . . .
H14O H 0.5843 0.2304 -0.2587 0.076 Uiso 1 1 calc R U . . .
C150 C 0.4218(4) 0.1204(2) -0.1976(2) 0.0487(14) Uani 1 1 d . U . . .
H15A H 0.3854 0.1097 -0.1611 0.073 Uiso 1 1 calc R U . . .
H15B H 0.4713 0.0839 -0.2100 0.073 Uiso 1 1 calc R U . . .
H15C H 0.3646 0.1317 -0.2211 0.073 Uiso 1 1 calc R U . . .
Cl1 Cl 0.73545(15) 0.88104(8) 0.43878(6) 0.0755(5) Uani 1 1 d . . . . .
Cl2 Cl 0.82809(18) 0.92416(7) 0.33349(7) 0.0915(6) Uani 1 1 d . . . . .
C1C C 0.7802(5) 0.8605(3) 0.3759(2) 0.0648(17) Uani 1 1 d . . . . .
H1C H 0.8435 0.8265 0.3773 0.078 Uiso 1 1 calc R U . . .
Cl4 Cl 0.6717(3) 0.83087(14) 0.35157(12) 0.1484(11) Uani 1 1 d . . . . .
O1 O -0.1083(3) 0.27016(17) 0.46275(15) 0.0574(10) Uani 1 1 d . . . . .
H1A H -0.1791 0.2710 0.4818 0.086 Uiso 1 1 d R U . . .
H1B H -0.1150 0.2643 0.4284 0.086 Uiso 1 1 d R U . . .
loop_
_atom_site_aniso_label
_atom_site_aniso_U_11
_atom_site_aniso_U_22
_atom_site_aniso_U_33
_atom_site_aniso_U_23
_atom_site_aniso_U_13
_atom_site_aniso_U_12
Zn1 0.0356(3) 0.0317(3) 0.0255(3) -0.0037(2) -0.0059(2) -0.0035(2)
Zn2 0.0327(3) 0.0351(3) 0.0299(3) -0.0078(2) -0.0087(2) -0.0068(2)
N1 0.033(2) 0.026(2) 0.025(2) -0.0016(17) -0.0078(17) -0.0014(17)
C2 0.023(2) 0.028(2) 0.028(2) -0.0017(17) -0.0069(18) -0.0070(18)
N3 0.029(2) 0.028(2) 0.028(2) 0.0001(17) -0.0067(17) -0.0026(17)
N4 0.038(2) 0.025(2) 0.025(2) 0.0023(17) -0.0044(17) -0.0003(18)
N5 0.041(2) 0.034(2) 0.024(2) -0.0025(18) -0.0129(18) 0.0028(19)
N6 0.049(3) 0.063(3) 0.055(3) -0.008(2) -0.014(2) -0.016(3)
N8 0.029(2) 0.030(2) 0.025(2) 0.0006(17) -0.0106(17) 0.0004(17)
N9 0.035(2) 0.024(2) 0.023(2) -0.0019(16) -0.0100(17) -0.0004(17)
N10 0.032(2) 0.027(2) 0.028(2) -0.0003(17) -0.0120(17) -0.0013(17)
N11 0.032(2) 0.031(2) 0.029(2) 0.0007(17) -0.0095(18) -0.0085(18)
C1 0.028(2) 0.027(2) 0.023(2) 0.0001(18) -0.0052(19) 0.0016(18)
C3 0.030(2) 0.037(3) 0.026(2) -0.0023(19) -0.0077(19) -0.002(2)
C4 0.027(2) 0.033(2) 0.035(3) 0.000(2) -0.009(2) -0.003(2)
C5 0.033(3) 0.026(2) 0.028(2) 0.0037(18) -0.0112(19) -0.002(2)
C6 0.035(2) 0.025(2) 0.033(2) 0.0000(18) -0.0172(19) 0.0032(19)
C7 0.046(3) 0.029(3) 0.028(2) 0.0004(19) -0.011(2) -0.005(2)
C8 0.075(4) 0.039(3) 0.029(3) -0.006(2) -0.009(2) -0.017(3)
C9 0.083(4) 0.038(3) 0.028(3) -0.007(2) -0.008(3) -0.016(3)
C10 0.050(3) 0.032(3) 0.025(3) -0.001(2) -0.009(2) 0.000(2)
C11 0.059(3) 0.028(2) 0.025(2) -0.003(2) -0.009(2) 0.001(2)
C12 0.050(3) 0.027(2) 0.023(3) -0.002(2) -0.005(2) 0.005(2)
C13 0.054(3) 0.041(3) 0.028(3) -0.002(2) 0.002(2) -0.005(2)
C14 0.047(3) 0.038(3) 0.024(2) 0.003(2) 0.000(2) -0.003(2)
C15 0.034(3) 0.029(2) 0.025(2) 0.0044(18) -0.0047(19) 0.000(2)
C16 0.030(2) 0.025(2) 0.030(2) 0.0035(18) -0.0043(18) 0.0003(19)
C17 0.030(2) 0.027(2) 0.031(2) -0.0035(19) 0.0011(19) 0.0038(18)
C18 0.032(2) 0.037(3) 0.032(3) 0.004(2) -0.009(2) -0.001(2)
C19 0.035(2) 0.024(2) 0.040(3) 0.0031(19) -0.005(2) 0.0005(19)
C1A 0.038(3) 0.037(3) 0.044(3) 0.008(2) -0.005(2) -0.005(2)
C20 0.043(3) 0.069(4) 0.049(3) 0.014(3) -0.004(2) -0.004(3)
C21 0.060(4) 0.040(3) 0.054(3) 0.012(2) -0.011(3) -0.014(2)
C22 0.053(3) 0.048(3) 0.039(3) 0.013(2) -0.010(2) -0.009(3)
C23 0.032(3) 0.035(3) 0.042(3) 0.000(2) -0.005(2) -0.008(2)
C24 0.037(3) 0.028(2) 0.033(2) -0.0025(19) -0.009(2) 0.003(2)
C25 0.045(3) 0.044(3) 0.044(3) 0.001(2) -0.016(2) -0.008(2)
C26 0.064(4) 0.070(4) 0.045(3) -0.004(3) -0.012(3) -0.015(3)
C27 0.065(4) 0.080(4) 0.059(4) 0.011(3) -0.026(3) -0.027(3)
C28 0.064(4) 0.052(3) 0.085(5) 0.016(3) -0.038(3) -0.008(3)
C29 0.037(2) 0.024(2) 0.023(2) 0.0001(19) -0.0052(19) 0.0008(19)
C30 0.030(2) 0.024(2) 0.029(2) 0.0021(18) -0.0083(19) 0.0027(19)
C31 0.032(3) 0.030(2) 0.036(3) -0.001(2) -0.008(2) -0.002(2)
C32 0.033(2) 0.029(2) 0.027(2) -0.0004(19) -0.0119(19) -0.001(2)
C33 0.033(2) 0.026(2) 0.025(2) -0.0006(19) -0.0104(19) 0.0018(19)
C34 0.026(2) 0.027(2) 0.023(2) 0.0001(18) -0.0103(18) 0.0032(18)
C35 0.028(2) 0.031(2) 0.028(2) -0.0022(19) -0.0085(19) -0.0050(19)
C36 0.025(2) 0.031(2) 0.031(2) -0.0057(18) -0.0059(18) -0.0083(18)
C37 0.028(2) 0.041(3) 0.026(2) -0.0093(19) -0.0029(19) -0.009(2)
C38 0.029(2) 0.041(2) 0.023(2) -0.0042(18) -0.0089(18) -0.0099(19)
C39 0.025(2) 0.033(2) 0.030(2) -0.0063(19) -0.0054(18) 0.0000(19)
C40 0.035(3) 0.047(3) 0.024(2) -0.003(2) -0.0103(19) -0.002(2)
C41 0.042(3) 0.081(4) 0.028(3) -0.003(2) -0.013(2) 0.008(3)
C42 0.053(3) 0.046(3) 0.038(3) 0.006(2) -0.021(3) -0.008(2)
C43 0.035(3) 0.048(3) 0.035(3) -0.002(2) -0.014(2) 0.000(2)
C44 0.034(3) 0.035(3) 0.043(3) -0.004(2) -0.004(2) 0.001(2)
C45 0.048(3) 0.039(3) 0.080(4) -0.021(3) 0.007(3) -0.008(2)
C46 0.048(3) 0.051(3) 0.052(3) -0.004(3) -0.004(3) 0.019(3)
C47 0.040(3) 0.047(3) 0.042(3) -0.010(2) 0.005(2) -0.002(2)
C48 0.057(3) 0.033(3) 0.026(3) -0.004(2) -0.005(2) 0.000(2)
C51 0.061(3) 0.039(3) 0.027(3) -0.006(2) -0.006(2) 0.004(3)
C52 0.053(3) 0.038(3) 0.028(3) -0.005(2) -0.009(2) 0.009(2)
C55A 0.044(3) 0.034(3) 0.031(3) -0.006(2) -0.005(2) 0.002(2)
C58 0.054(3) 0.036(3) 0.040(3) -0.004(2) -0.007(3) -0.001(3)
N59 0.077(4) 0.057(3) 0.037(3) 0.000(2) 0.000(3) 0.002(3)
C62 0.038(2) 0.029(2) 0.026(2) -0.0010(19) -0.013(2) -0.0022(19)
C63 0.035(3) 0.032(2) 0.034(3) -0.001(2) -0.007(2) 0.0031(19)
C64 0.040(3) 0.026(2) 0.034(3) -0.001(2) -0.003(2) -0.0005(19)
C65 0.032(2) 0.034(2) 0.032(3) -0.001(2) -0.014(2) 0.0061(19)
C66 0.031(3) 0.035(3) 0.078(4) -0.012(2) -0.023(3) 0.004(2)
C67 0.041(3) 0.024(2) 0.069(4) -0.006(2) -0.025(2) 0.005(2)
C68 0.029(2) 0.035(2) 0.035(3) -0.002(2) -0.014(2) 0.0025(19)
C69 0.038(3) 0.032(2) 0.034(3) -0.002(2) 0.001(2) -0.002(2)
C70 0.044(3) 0.031(3) 0.041(3) -0.006(2) -0.004(2) -0.002(2)
C71 0.030(3) 0.050(3) 0.040(3) -0.005(2) -0.010(2) -0.005(2)
C72 0.037(3) 0.054(3) 0.047(3) -0.012(3) -0.009(2) -0.006(3)
C73 0.037(3) 0.065(3) 0.067(4) -0.031(3) 0.006(3) -0.013(3)
C74 0.036(3) 0.055(3) 0.067(4) -0.032(3) 0.002(2) -0.010(2)
C75 0.034(2) 0.031(2) 0.023(2) -0.0011(19) -0.0127(19) 0.0018(19)
C76 0.038(3) 0.037(3) 0.027(2) -0.008(2) -0.013(2) -0.003(2)
C77 0.036(3) 0.036(3) 0.029(2) -0.004(2) -0.015(2) -0.006(2)
C78 0.027(2) 0.028(2) 0.033(2) -0.0029(19) -0.0124(19) -0.002(2)
C79 0.029(2) 0.025(2) 0.026(2) 0.0033(18) -0.0152(18) 0.0015(18)
C80 0.029(2) 0.028(2) 0.027(2) -0.0046(18) -0.0064(19) -0.0032(18)
C81 0.033(2) 0.033(2) 0.030(3) -0.004(2) -0.011(2) -0.001(2)
C82 0.036(3) 0.033(2) 0.036(3) -0.006(2) -0.013(2) -0.005(2)
C83 0.038(3) 0.031(2) 0.043(3) -0.001(2) -0.016(2) -0.011(2)
C84 0.047(3) 0.027(2) 0.044(3) -0.002(2) -0.015(2) -0.008(2)
C85 0.062(3) 0.038(3) 0.056(3) 0.008(2) -0.027(3) -0.016(2)
C86 0.086(4) 0.067(4) 0.064(4) 0.020(3) -0.013(3) -0.027(3)
C87 0.101(5) 0.068(4) 0.068(4) 0.040(3) -0.042(4) -0.040(4)
C88 0.082(4) 0.034(3) 0.089(4) 0.007(3) -0.038(4) -0.014(3)
C89 0.033(2) 0.029(2) 0.033(3) -0.0036(19) -0.016(2) -0.0010(19)
C90 0.042(3) 0.041(3) 0.050(3) -0.004(2) -0.029(2) -0.007(2)
C91 0.103(5) 0.052(3) 0.077(4) -0.014(3) -0.068(4) -0.002(3)
C92 0.037(3) 0.057(3) 0.065(4) 0.013(3) -0.027(2) -0.012(2)
C93 0.040(3) 0.057(3) 0.045(3) -0.002(2) -0.022(2) -0.003(2)
C94 0.026(2) 0.024(2) 0.028(2) 0.0046(18) -0.0114(18) -0.0031(19)
C95 0.036(3) 0.034(3) 0.032(3) 0.001(2) -0.008(2) -0.010(2)
C96 0.039(3) 0.036(3) 0.027(2) 0.001(2) -0.008(2) -0.009(2)
C97 0.039(3) 0.024(2) 0.027(3) 0.0002(19) -0.011(2) 0.0001(19)
C98 0.039(2) 0.021(2) 0.026(2) 0.0003(18) -0.0136(19) -0.0022(19)
C99 0.033(2) 0.029(2) 0.028(2) -0.0051(18) -0.0107(19) -0.0085(19)
C100 0.086(4) 0.036(3) 0.032(3) -0.004(2) -0.015(3) 0.017(3)
C101 0.083(4) 0.035(3) 0.029(3) 0.003(2) -0.017(3) 0.009(3)
C102 0.032(2) 0.028(2) 0.029(2) 0.0005(18) -0.0116(19) -0.0094(19)
C103 0.034(2) 0.028(2) 0.027(2) 0.0023(18) -0.0076(18) -0.0135(19)
C104 0.039(3) 0.039(3) 0.032(3) 0.001(2) -0.011(2) -0.007(2)
C105 0.038(3) 0.042(3) 0.038(3) -0.002(2) -0.008(2) -0.005(2)
C106 0.033(3) 0.037(3) 0.028(2) 0.0032(19) -0.0032(19) -0.017(2)
C107 0.041(3) 0.038(3) 0.026(2) 0.004(2) -0.011(2) -0.012(2)
C108 0.046(3) 0.032(3) 0.032(2) 0.000(2) -0.010(2) -0.004(2)
C109 0.032(3) 0.051(3) 0.032(3) 0.001(2) -0.006(2) -0.007(2)
N110 0.046(3) 0.077(3) 0.038(3) -0.006(3) -0.004(2) -0.018(2)
C111 0.057(3) 0.038(3) 0.028(2) 0.000(2) -0.008(2) 0.010(2)
C112 0.063(3) 0.041(3) 0.026(3) 0.002(2) -0.013(2) 0.012(2)
C113 0.038(2) 0.021(2) 0.031(3) -0.0007(19) -0.013(2) -0.0025(19)
C114 0.039(3) 0.037(3) 0.037(3) -0.010(2) -0.012(2) -0.006(2)
C115 0.039(3) 0.036(3) 0.046(3) -0.008(2) -0.018(2) -0.007(2)
C116 0.039(3) 0.022(2) 0.035(2) -0.0031(19) -0.016(2) 0.000(2)
C117 0.034(2) 0.023(2) 0.039(3) -0.0011(19) -0.0134(19) -0.0034(19)
C118 0.033(2) 0.024(2) 0.034(3) -0.0026(19) -0.012(2) -0.0043(18)
C119 0.029(2) 0.024(2) 0.062(3) -0.003(2) -0.016(2) -0.0011(19)
C120 0.034(2) 0.027(2) 0.060(3) -0.006(2) -0.016(2) 0.000(2)
C121 0.031(2) 0.031(2) 0.027(3) 0.0022(19) -0.0118(19) -0.0040(18)
C122 0.033(2) 0.030(2) 0.045(3) -0.005(2) -0.013(2) 0.0013(19)
C123 0.036(2) 0.026(2) 0.044(3) -0.003(2) -0.007(2) -0.0031(19)
C124 0.032(2) 0.029(2) 0.032(3) -0.0076(19) -0.008(2) 0.0014(18)
C125 0.032(2) 0.031(2) 0.037(3) -0.006(2) -0.011(2) -0.0007(19)
C126 0.037(3) 0.039(3) 0.037(3) -0.008(2) -0.007(2) -0.008(2)
C127 0.028(2) 0.062(3) 0.030(3) -0.012(2) -0.007(2) -0.005(2)
C128 0.038(3) 0.105(5) 0.038(3) -0.005(3) -0.008(3) -0.023(3)
N129 0.056(4) 0.178(7) 0.059(4) -0.009(4) -0.008(3) -0.057(4)
C130 0.029(3) 0.064(3) 0.036(3) -0.003(2) -0.015(2) 0.000(2)
C131 0.032(3) 0.048(3) 0.037(3) -0.003(2) -0.012(2) 0.002(2)
C132 0.032(3) 0.022(2) 0.032(2) 0.0021(18) -0.0098(19) -0.003(2)
C133 0.030(2) 0.026(2) 0.041(3) 0.001(2) -0.012(2) -0.002(2)
C134 0.031(2) 0.030(2) 0.031(3) 0.001(2) -0.009(2) 0.002(2)
C135 0.032(2) 0.030(2) 0.028(3) 0.000(2) -0.0106(19) 0.0008(19)
C136 0.032(2) 0.029(2) 0.025(2) 0.0016(19) -0.0102(18) 0.0004(19)
C137 0.022(2) 0.032(2) 0.028(2) -0.0008(18) -0.0076(18) -0.0043(19)
C138 0.027(2) 0.029(2) 0.029(2) 0.0034(18) -0.0083(19) -0.0006(19)
C139 0.025(2) 0.030(2) 0.030(2) -0.0017(18) -0.0085(18) -0.0091(18)
C140 0.028(2) 0.032(2) 0.028(2) -0.0036(19) -0.0048(19) -0.0070(19)
C141 0.029(2) 0.033(2) 0.026(2) 0.0009(18) -0.0092(18) -0.0084(19)
C142 0.037(3) 0.037(2) 0.029(2) 0.004(2) -0.011(2) -0.002(2)
C143 0.060(3) 0.051(3) 0.033(3) 0.008(2) -0.011(2) 0.003(3)
C144 0.054(3) 0.036(3) 0.047(3) 0.005(2) -0.016(3) 0.000(2)
C145 0.040(3) 0.057(3) 0.048(3) 0.019(3) -0.016(2) -0.001(2)
C146 0.031(3) 0.031(2) 0.032(2) -0.0023(19) -0.0075(19) -0.001(2)
C147 0.026(2) 0.033(2) 0.029(2) -0.0010(19) -0.0027(18) -0.0058(18)
C148 0.046(3) 0.054(3) 0.062(4) -0.020(3) -0.025(3) 0.020(3)
C149 0.052(3) 0.048(3) 0.043(3) -0.005(2) 0.014(2) 0.003(3)
C150 0.044(3) 0.045(3) 0.058(4) -0.013(3) 0.000(3) -0.013(2)
Cl1 0.0827(12) 0.0744(11) 0.0577(10) 0.0016(8) -0.0019(9) 0.0236(9)
Cl2 0.1331(17) 0.0477(9) 0.0747(12) 0.0059(8) 0.0351(11) -0.0103(10)
C1C 0.072(4) 0.060(4) 0.056(4) -0.002(3) -0.005(3) 0.009(3)
Cl4 0.167(2) 0.155(2) 0.151(2) 0.0054(19) -0.085(2) -0.069(2)
O1 0.048(2) 0.065(2) 0.058(3) -0.005(2) -0.0045(19) -0.0054(19)
loop_
_atom_type_symbol
_atom_type_description
_atom_type_scat_dispersion_real
_atom_type_scat_dispersion_imag
_atom_type_scat_source
C C 0.0033 0.0016 'International Tables Vol C Tables 4.2.6.8 and 6.1.1.4'
N N 0.0061 0.0033 'International Tables Vol C Tables 4.2.6.8 and 6.1.1.4'
O O 0.0106 0.0060 'International Tables Vol C Tables 4.2.6.8 and 6.1.1.4'
Zn Zn 0.2839 1.4301 'International Tables Vol C Tables 4.2.6.8 and 6.1.1.4'
Cl Cl 0.1484 0.1585 'International Tables Vol C Tables 4.2.6.8 and 6.1.1.4'
H H 0.0000 0.0000 'International Tables Vol C Tables 4.2.6.8 and 6.1.1.4'
loop_
_geom_angle_atom_site_label_1
_geom_angle_atom_site_label_2
_geom_angle_atom_site_label_3
_geom_angle
_geom_angle_site_symmetry_1
_geom_angle_site_symmetry_3
N1 Zn1 N3 89.59(14) . .
N1 Zn1 N4 167.51(14) . .
N1 Zn1 N5 89.39(14) . .
N1 Zn1 O1 99.20(14) . .
N3 Zn1 O1 95.53(13) . .
N4 Zn1 N3 88.68(14) . .
N4 Zn1 N5 89.93(15) . .
N4 Zn1 O1 93.29(14) . .
N5 Zn1 N3 168.92(14) . .
N5 Zn1 O1 95.53(14) . .
N9 Zn2 N8 89.26(14) . .
N9 Zn2 N11 90.56(14) . .
N10 Zn2 N8 90.25(14) . .
N10 Zn2 N9 175.99(14) . .
N10 Zn2 N11 89.63(14) . .
N11 Zn2 N8 175.77(14) . .
C1 N1 Zn1 126.9(3) . .
C1 N1 C5 106.4(4) . .
C5 N1 Zn1 126.7(3) . .
C35 C2 C34 122.0(4) . .
C39 C2 C34 118.5(4) . .
C39 C2 C35 119.3(4) . .
C30 N3 Zn1 127.6(3) . .
C30 N3 C33 106.3(3) . .
C33 N3 Zn1 126.0(3) . .
C12 N4 Zn1 125.6(3) . .
C12 N4 C15 106.4(4) . .
C15 N4 Zn1 127.9(3) . .
C7 N5 Zn1 126.9(3) . .
C7 N5 C10 106.7(4) . .
C10 N5 Zn1 126.1(3) . .
C75 N8 Zn2 126.1(3) . .
C78 N8 Zn2 126.9(3) . .
C78 N8 C75 106.6(3) . .
C94 N9 Zn2 127.3(3) . .
C97 N9 Zn2 126.3(3) . .
C97 N9 C94 106.4(4) . .
C132 N10 Zn2 127.1(3) . .
C132 N10 C135 105.6(4) . .
C135 N10 Zn2 127.3(3) . .
C113 N11 Zn2 126.1(3) . .
C113 N11 C116 106.6(4) . .
C116 N11 Zn2 127.1(3) . .
N1 C1 C3 110.2(4) . .
N1 C1 C34 125.6(4) . .
C34 C1 C3 124.2(4) . .
C1 C3 H3 126.6 . .
C4 C3 C1 106.9(4) . .
C4 C3 H3 126.6 . .
C3 C4 H4 126.3 . .
C3 C4 C5 107.5(4) . .
C5 C4 H4 126.3 . .
N1 C5 C4 109.1(4) . .
N1 C5 C6 125.8(4) . .
C6 C5 C4 125.1(4) . .
C5 C6 C62 116.6(4) . .
C7 C6 C5 125.0(4) . .
C7 C6 C62 118.4(4) . .
N5 C7 C6 125.6(4) . .
N5 C7 C8 109.3(4) . .
C6 C7 C8 125.0(4) . .
C7 C8 H8 126.6 . .
C9 C8 C7 106.9(5) . .
C9 C8 H8 126.6 . .
C8 C9 H9 125.9 . .
C8 C9 C10 108.1(5) . .
C10 C9 H9 125.9 . .
N5 C10 C9 109.0(4) . .
N5 C10 C11 125.2(4) . .
C11 C10 C9 125.8(4) . .
C10 C11 C12 125.5(4) . .
C10 C11 C48 118.2(4) . .
C12 C11 C48 116.2(4) . .
N4 C12 C11 126.2(4) . .
N4 C12 C13 109.6(4) . .
C11 C12 C13 124.0(4) . .
C12 C13 H13 126.5 . .
C14 C13 C12 106.9(4) . .
C14 C13 H13 126.5 . .
C13 C14 H14 125.9 . .
C13 C14 C15 108.2(4) . .
C15 C14 H14 125.9 . .
N4 C15 C14 108.8(4) . .
N4 C15 C16 125.2(4) . .
C16 C15 C14 126.0(4) . .
C15 C16 C17 117.5(4) . .
C15 C16 C30 125.1(4) . .
C30 C16 C17 117.2(4) . .
C18 C17 C16 122.6(4) . .
C29 C17 C16 118.2(4) . .
C29 C17 C18 119.1(4) . .
C17 C18 H18 119.3 . .
C17 C18 C19 121.4(4) . .
C19 C18 H18 119.3 . .
C18 C19 C1A 122.8(4) . .
C23 C19 C18 116.9(4) . .
C23 C19 C1A 120.3(4) . .
C19 C1A C22 112.6(4) . .
C20 C1A C19 109.7(4) . .
C20 C1A C22 106.9(4) . .
C21 C1A C19 108.9(4) . .
C21 C1A C20 109.6(4) . .
C21 C1A C22 109.1(4) . .
C1A C20 H20A 109.5 . .
C1A C20 H20B 109.5 . .
C1A C20 H20C 109.5 . .
H20A C20 H20B 109.5 . .
H20A C20 H20C 109.5 . .
H20B C20 H20C 109.5 . .
C1A C21 H21A 109.5 . .
C1A C21 H21B 109.5 . .
C1A C21 H21C 109.5 . .
H21A C21 H21B 109.5 . .
H21A C21 H21C 109.5 . .
H21B C21 H21C 109.5 . .
C1A C22 H22A 109.5 . .
C1A C22 H22B 109.5 . .
C1A C22 H22C 109.5 . .
H22A C22 H22B 109.5 . .
H22A C22 H22C 109.5 . .
H22B C22 H22C 109.5 . .
C19 C23 H23 118.2 . .
C24 C23 C19 123.5(4) . .
C24 C23 H23 118.2 . .
C23 C24 C25 123.9(4) . .
C23 C24 C29 117.2(4) . .
C29 C24 C25 118.9(4) . .
C24 C25 C26 108.2(4) . .
C27 C25 C24 113.1(4) . .
C27 C25 C26 105.6(5) . .
C27 C25 C28 113.3(5) . .
C28 C25 C24 109.8(4) . .
C28 C25 C26 106.4(5) . .
C25 C26 H26A 109.5 . .
C25 C26 H26B 109.5 . .
C25 C26 H26C 109.5 . .
H26A C26 H26B 109.5 . .
H26A C26 H26C 109.5 . .
H26B C26 H26C 109.5 . .
C25 C27 H27A 109.5 . .
C25 C27 H27B 109.5 . .
C25 C27 H27C 109.5 . .
H27A C27 H27B 109.5 . .
H27A C27 H27C 109.5 . .
H27B C27 H27C 109.5 . .
C25 C28 H28A 109.5 . .
C25 C28 H28B 109.5 . .
C25 C28 H28C 109.5 . .
H28A C28 H28B 109.5 . .
H28A C28 H28C 109.5 . .
H28B C28 H28C 109.5 . .
C17 C29 C24 121.6(4) . .
C17 C29 H29 119.2 . .
C24 C29 H29 119.2 . .
N3 C30 C16 125.1(4) . .
N3 C30 C31 109.4(4) . .
C16 C30 C31 125.5(4) . .
C30 C31 H31 126.4 . .
C32 C31 C30 107.2(4) . .
C32 C31 H31 126.4 . .
C31 C32 H32 126.4 . .
C31 C32 C33 107.3(4) . .
C33 C32 H32 126.4 . .
N3 C33 C32 109.8(4) . .
N3 C33 C34 124.8(4) . .
C34 C33 C32 125.1(4) . .
C1 C34 C2 115.7(4) . .
C33 C34 C2 118.3(4) . .
C33 C34 C1 125.7(4) . .
C2 C35 H35 119.6 . .
C2 C35 C36 120.7(4) . .
C36 C35 H35 119.6 . .
C35 C36 C44 122.2(4) . .
C37 C36 C35 118.1(4) . .
C37 C36 C44 119.6(4) . .
C36 C37 H37 118.6 . .
C36 C37 C38 122.7(4) . .
C38 C37 H37 118.6 . .
C37 C38 C40 123.3(4) . .
C39 C38 C37 116.8(4) . .
C39 C38 C40 119.8(4) . .
C2 C39 C38 122.2(4) . .
C2 C39 H39 118.9 . .
C38 C39 H39 118.9 . .
C38 C40 C41 112.3(4) . .
C38 C40 C42 108.4(4) . .
C38 C40 C43 109.5(4) . .
C41 C40 C42 107.3(4) . .
C43 C40 C41 109.2(4) . .
C43 C40 C42 110.1(4) . .
C40 C41 H41A 109.5 . .
C40 C41 H41B 109.5 . .
C40 C41 H41C 109.5 . .
H41A C41 H41B 109.5 . .
H41A C41 H41C 109.5 . .
H41B C41 H41C 109.5 . .
C40 C42 H42A 109.5 . .
C40 C42 H42B 109.5 . .
C40 C42 H42C 109.5 . .
H42A C42 H42B 109.5 . .
H42A C42 H42C 109.5 . .
H42B C42 H42C 109.5 . .
C40 C43 H43A 109.5 . .
C40 C43 H43B 109.5 . .
C40 C43 H43C 109.5 . .
H43A C43 H43B 109.5 . .
H43A C43 H43C 109.5 . .
H43B C43 H43C 109.5 . .
C45 C44 C36 107.5(4) . .
C45 C44 C46 109.0(4) . .
C45 C44 C47 109.5(4) . .
C46 C44 C36 111.4(4) . .
C47 C44 C36 112.0(4) . .
C47 C44 C46 107.4(4) . .
C44 C45 H45A 109.5 . .
C44 C45 H45B 109.5 . .
C44 C45 H45C 109.5 . .
H45A C45 H45B 109.5 . .
H45A C45 H45C 109.5 . .
H45B C45 H45C 109.5 . .
C44 C46 H46A 109.5 . .
C44 C46 H46B 109.5 . .
C44 C46 H46C 109.5 . .
H46A C46 H46B 109.5 . .
H46A C46 H46C 109.5 . .
H46B C46 H46C 109.5 . .
C44 C47 H47A 109.5 . .
C44 C47 H47B 109.5 . .
C44 C47 H47C 109.5 . .
H47A C47 H47B 109.5 . .
H47A C47 H47C 109.5 . .
H47B C47 H47C 109.5 . .
C49A C48 C11 119.4(3) . .
C49A C48 C61A 120.0 . .
C61A C48 C11 120.5(3) . .
C49 C48 C11 118.9(4) . .
C49 C48 C61 118.0(5) . .
C61 C48 C11 122.3(5) . .
C48 C49A H49A 120.0 . .
C50A C49A C48 120.0 . .
C50A C49A H49A 120.0 . .
C49A C50A H50A 120.0 . .
C49A C50A C51 120.0 . .
C51 C50A H50A 120.0 . .
C50A C51 C60A 120.0 . .
C50A C51 C52 120.2(3) . .
C60A C51 C52 119.7(3) . .
C50 C51 C52 119.3(5) . .
C50 C51 C60 119.4(6) . .
C60 C51 C52 120.8(5) . .
C51 C60A H60A 120.0 . .
C61A C60A C51 120.0 . .
C61A C60A H60A 120.0 . .
C48 C61A H61A 120.0 . .
C60A C61A C48 120.0 . .
C60A C61A H61A 120.0 . .
C48 C49 H49 119.2 . .
C48 C49 C50 121.6(6) . .
C50 C49 H49 119.2 . .
C51 C50 C49 118.5(7) . .
C51 C50 H50 120.7 . .
C49 C50 H50 120.7 . .
C53A C52 C51 119.5(3) . .
C53A C52 C57A 120.0 . .
C57A C52 C51 120.4(3) . .
C53 C52 C51 121.7(5) . .
C53 C52 C57 118.1(6) . .
C57 C52 C51 119.2(5) . .
C52 C53A H53A 120.0 . .
C54A C53A C52 120.0 . .
C54A C53A H53A 120.0 . .
C53A C54A H54A 120.0 . .
C53A C54A C55A 120.0 . .
C55A C54A H54A 120.0 . .
C54A C55A C58 120.6(3) . .
C56A C55A C54A 120.0 . .
C56A C55A C58 119.3(3) . .
C54 C55A C56 120.3(6) . .
C54 C55A C58 121.5(5) . .
C56 C55A C58 118.0(5) . .
C55A C56A H56A 120.0 . .
C55A C56A C57A 120.0 . .
C57A C56A H56A 120.0 . .
C52 C57A H57A 120.0 . .
C56A C57A C52 120.0 . .
C56A C57A H57A 120.0 . .
C52 C53 H53 119.1 . .
C52 C53 C54 121.9(8) . .
C54 C53 H53 119.1 . .
C55A C54 C53 119.2(8) . .
C55A C54 H54 120.4 . .
C53 C54 H54 120.4 . .
C55A C56 H56 120.5 . .
C57 C56 C55A 119.0(8) . .
C57 C56 H56 120.5 . .
C52 C57 H57 119.7 . .
C56 C57 C52 120.6(8) . .
C56 C57 H57 119.7 . .
N59 C58 C55A 178.2(6) . .
C51 C60 H60 120.1 . .
C61 C60 C51 119.8(8) . .
C61 C60 H60 120.1 . .
C48 C61 H61 119.9 . .
C60 C61 C48 120.2(8) . .
C60 C61 H61 119.9 . .
C63 C62 C6 122.1(4) . .
C63 C62 C67 117.0(4) . .
C67 C62 C6 120.8(4) . .
C62 C63 H63 119.5 . .
C62 C63 C64 121.0(4) . .
C64 C63 H63 119.5 . .
C63 C64 H64 119.4 . .
C65 C64 C63 121.1(4) . .
C65 C64 H64 119.4 . .
C64 C65 C66 117.7(4) . .
C64 C65 C68 120.9(4) . .
C66 C65 C68 121.4(4) . .
C65 C66 H66 119.3 . .
C67 C66 C65 121.3(5) . .
C67 C66 H66 119.3 . .
C62 C67 H67 119.1 . .
C66 C67 C62 121.8(4) . .
C66 C67 H67 119.1 . .
C69 C68 C65 121.1(4) . .
C74 C68 C65 120.0(4) . .
C74 C68 C69 118.9(5) . .
C68 C69 H69 119.6 . .
C68 C69 C70 120.8(5) . .
C70 C69 H69 119.6 . .
C69 C70 H70 120.1 . .
C69 C70 C71 119.7(5) . .
C71 C70 H70 120.1 . .
C70 C71 C72 120.0(5) . .
C70 C71 C73 119.6(5) . .
C73 C71 C72 120.3(5) . .
N6 C72 C71 178.4(6) . .
C71 C73 H73 120.4 . .
C74 C73 C71 119.3(5) . .
C74 C73 H73 120.4 . .
C68 C74 C73 121.7(5) . .
C68 C74 H74 119.2 . .
C73 C74 H74 119.2 . .
N8 C75 C76 109.3(4) . .
N8 C75 C136 125.7(4) . .
C136 C75 C76 124.9(4) . .
C75 C76 H76 126.2 . .
C77 C76 C75 107.5(4) . .
C77 C76 H76 126.2 . .
C76 C77 H77 126.0 . .
C76 C77 C78 107.9(4) . .
C78 C77 H77 126.0 . .
N8 C78 C77 108.5(4) . .
N8 C78 C79 125.7(4) . .
C79 C78 C77 125.7(4) . .
C78 C79 C80 118.2(4) . .
C94 C79 C78 124.4(4) . .
C94 C79 C80 117.4(4) . .
C81 C80 C79 122.9(4) . .
C81 C80 C89 118.4(4) . .
C89 C80 C79 118.7(4) . .
C80 C81 H81 119.1 . .
C82 C81 C80 121.9(4) . .
C82 C81 H81 119.1 . .
C81 C82 C83 117.8(4) . .
C81 C82 C90 122.0(4) . .
C83 C82 C90 120.2(4) . .
C82 C83 H83 118.6 . .
C82 C83 C84 122.8(4) . .
C84 C83 H83 118.6 . .
C83 C84 C85 120.3(4) . .
C89 C84 C83 116.8(4) . .
C89 C84 C85 122.9(4) . .
C84 C85 C86 109.7(4) . .
C84 C85 C87 112.1(4) . .
C84 C85 C88 110.4(5) . .
C87 C85 C86 108.6(5) . .
C87 C85 C88 107.9(5) . .
C88 C85 C86 108.0(5) . .
C85 C86 H86A 109.5 . .
C85 C86 H86B 109.5 . .
C85 C86 H86C 109.5 . .
H86A C86 H86B 109.5 . .
H86A C86 H86C 109.5 . .
H86B C86 H86C 109.5 . .
C85 C87 H87A 109.5 . .
C85 C87 H87B 109.5 . .
C85 C87 H87C 109.5 . .
H87A C87 H87B 109.5 . .
H87A C87 H87C 109.5 . .
H87B C87 H87C 109.5 . .
C85 C88 H88A 109.5 . .
C85 C88 H88B 109.5 . .
C85 C88 H88C 109.5 . .
H88A C88 H88B 109.5 . .
H88A C88 H88C 109.5 . .
H88B C88 H88C 109.5 . .
C80 C89 H89 118.8 . .
C84 C89 C80 122.3(4) . .
C84 C89 H89 118.8 . .
C91 C90 C82 109.1(4) . .
C92 C90 C82 108.7(4) . .
C92 C90 C91 109.9(5) . .
C93 C90 C82 111.6(4) . .
C93 C90 C91 108.2(5) . .
C93 C90 C92 109.3(4) . .
C90 C91 H91A 109.5 . .
C90 C91 H91B 109.5 . .
C90 C91 H91C 109.5 . .
H91A C91 H91B 109.5 . .
H91A C91 H91C 109.5 . .
H91B C91 H91C 109.5 . .
C90 C92 H92A 109.5 . .
C90 C92 H92B 109.5 . .
C90 C92 H92C 109.5 . .
H92A C92 H92B 109.5 . .
H92A C92 H92C 109.5 . .
H92B C92 H92C 109.5 . .
C90 C93 H93A 109.5 . .
C90 C93 H93B 109.5 . .
C90 C93 H93C 109.5 . .
H93A C93 H93B 109.5 . .
H93A C93 H93C 109.5 . .
H93B C93 H93C 109.5 . .
N9 C94 C79 125.5(4) . .
N9 C94 C95 108.8(4) . .
C79 C94 C95 125.6(4) . .
C94 C95 H95 125.8 . .
C96 C95 C94 108.4(4) . .
C96 C95 H95 125.8 . .
C95 C96 H96 126.6 . .
C95 C96 C97 106.9(4) . .
C97 C96 H96 126.6 . .
N9 C97 C96 109.5(4) . .
N9 C97 C98 125.6(4) . .
C98 C97 C96 124.8(4) . .
C97 C98 C99 116.6(4) . .
C113 C98 C97 125.4(4) . .
C113 C98 C99 118.0(4) . .
C100 C99 C98 120.0(4) . .
C112 C99 C98 121.3(4) . .
C112 C99 C100 118.6(4) . .
C99 C100 H100 119.9 . .
C99 C100 C101 120.3(5) . .
C101 C100 H100 119.9 . .
C100 C101 H101 119.1 . .
C102 C101 C100 121.7(5) . .
C102 C101 H101 119.1 . .
C101 C102 C103 120.9(4) . .
C111 C102 C101 116.4(4) . .
C111 C102 C103 122.7(4) . .
C104 C103 C102 121.8(4) . .
C108 C103 C102 120.6(4) . .
C108 C103 C104 117.6(4) . .
C103 C104 H104 119.6 . .
C105 C104 C103 120.8(4) . .
C105 C104 H104 119.6 . .
C104 C105 H105 119.8 . .
C104 C105 C106 120.5(5) . .
C106 C105 H105 119.8 . .
C105 C106 C109 121.4(5) . .
C107 C106 C105 119.8(4) . .
C107 C106 C109 118.7(4) . .
C106 C107 H107 120.0 . .
C106 C107 C108 120.0(4) . .
C108 C107 H107 120.0 . .
C103 C108 H108 119.4 . .
C107 C108 C103 121.2(5) . .
C107 C108 H108 119.4 . .
N110 C109 C106 177.8(5) . .
C102 C111 H111 118.8 . .
C102 C111 C112 122.3(5) . .
C112 C111 H111 118.8 . .
C99 C112 C111 120.6(4) . .
C99 C112 H112 119.7 . .
C111 C112 H112 119.7 . .
N11 C113 C98 125.8(4) . .
N11 C113 C114 109.4(4) . .
C98 C113 C114 124.8(4) . .
C113 C114 H114 126.7 . .
C115 C114 C113 106.6(4) . .
C115 C114 H114 126.7 . .
C114 C115 H115 125.7 . .
C114 C115 C116 108.5(4) . .
C116 C115 H115 125.7 . .
N11 C116 C115 108.8(4) . .
N11 C116 C117 124.5(4) . .
C117 C116 C115 126.7(4) . .
C116 C117 C118 117.6(4) . .
C132 C117 C116 125.2(4) . .
C132 C117 C118 117.2(4) . .
C119 C118 C117 120.7(4) . .
C119 C118 C123 119.0(4) . .
C123 C118 C117 120.4(4) . .
C118 C119 H119 119.7 . .
C118 C119 C120 120.7(4) . .
C120 C119 H119 119.7 . .
C119 C120 H120 119.7 . .
C121 C120 C119 120.6(4) . .
C121 C120 H120 119.7 . .
C120 C121 C122 118.5(4) . .
C120 C121 C124 119.1(4) . .
C122 C121 C124 122.4(4) . .
C121 C122 H122 119.8 . .
C121 C122 C123 120.3(4) . .
C123 C122 H122 119.8 . .
C118 C123 C122 120.8(4) . .
C118 C123 H123 119.6 . .
C122 C123 H123 119.6 . .
C125 C124 C121 121.3(4) . .
C125 C124 C131 118.6(4) . .
C131 C124 C121 120.1(4) . .
C124 C125 H125 118.8 . .
C126 C125 C124 122.4(4) . .
C126 C125 H125 118.8 . .
C125 C126 H126 120.4 . .
C125 C126 C127 119.1(5) . .
C127 C126 H126 120.4 . .
C126 C127 C128 119.5(5) . .
C126 C127 C130 120.1(4) . .
C130 C127 C128 120.4(5) . .
N129 C128 C127 178.4(7) . .
C127 C130 H130 119.7 . .
C131 C130 C127 120.6(4) . .
C131 C130 H130 119.7 . .
C124 C131 H131 120.4 . .
C130 C131 C124 119.3(5) . .
C130 C131 H131 120.4 . .
N10 C132 C117 125.8(4) . .
N10 C132 C133 110.0(4) . .
C117 C132 C133 124.3(4) . .
C132 C133 H133 126.5 . .
C134 C133 C132 107.0(4) . .
C134 C133 H133 126.5 . .
C133 C134 H134 126.2 . .
C133 C134 C135 107.6(4) . .
C135 C134 H134 126.2 . .
N10 C135 C134 109.8(4) . .
N10 C135 C136 125.4(4) . .
C136 C135 C134 124.9(4) . .
C75 C136 C135 125.1(4) . .
C75 C136 C137 117.4(4) . .
C135 C136 C137 117.5(4) . .
C138 C137 C136 122.9(4) . .
C146 C137 C136 118.3(4) . .
C146 C137 C138 118.8(4) . .
C137 C138 H138 118.9 . .
C137 C138 C139 122.2(4) . .
C139 C138 H138 118.9 . .
C138 C139 C140 117.0(4) . .
C138 C139 C147 121.3(4) . .
C140 C139 C147 121.6(4) . .
C139 C140 H140 118.7 . .
C139 C140 C141 122.7(4) . .
C141 C140 H140 118.7 . .
C140 C141 C142 122.9(4) . .
C146 C141 C140 117.6(4) . .
C146 C141 C142 119.5(4) . .
C141 C142 C144 108.5(4) . .
C143 C142 C141 112.1(4) . .
C143 C142 C144 108.9(4) . .
C145 C142 C141 109.0(4) . .
C145 C142 C143 109.1(4) . .
C145 C142 C144 109.3(4) . .
C142 C143 H14A 109.5 . .
C142 C143 H14B 109.5 . .
C142 C143 H14C 109.5 . .
H14A C143 H14B 109.5 . .
H14A C143 H14C 109.5 . .
H14B C143 H14C 109.5 . .
C142 C144 H14D 109.5 . .
C142 C144 H14E 109.5 . .
C142 C144 H14F 109.5 . .
H14D C144 H14E 109.5 . .
H14D C144 H14F 109.5 . .
H14E C144 H14F 109.5 . .
C142 C145 H14G 109.5 . .
C142 C145 H14H 109.5 . .
C142 C145 H14I 109.5 . .
H14G C145 H14H 109.5 . .
H14G C145 H14I 109.5 . .
H14H C145 H14I 109.5 . .
C137 C146 C141 121.6(4) . .
C137 C146 H146 119.2 . .
C141 C146 H146 119.2 . .
C139 C147 C149 111.7(4) . .
C148 C147 C139 111.7(4) . .
C148 C147 C149 107.4(4) . .
C150 C147 C139 108.3(4) . .
C150 C147 C148 109.3(4) . .
C150 C147 C149 108.3(4) . .
C147 C148 H14J 109.5 . .
C147 C148 H14K 109.5 . .
C147 C148 H14L 109.5 . .
H14J C148 H14K 109.5 . .
H14J C148 H14L 109.5 . .
H14K C148 H14L 109.5 . .
C147 C149 H14M 109.5 . .
C147 C149 H14N 109.5 . .
C147 C149 H14O 109.5 . .
H14M C149 H14N 109.5 . .
H14M C149 H14O 109.5 . .
H14N C149 H14O 109.5 . .
C147 C150 H15A 109.5 . .
C147 C150 H15B 109.5 . .
C147 C150 H15C 109.5 . .
H15A C150 H15B 109.5 . .
H15A C150 H15C 109.5 . .
H15B C150 H15C 109.5 . .
Cl1 C1C Cl2 111.4(3) . .
Cl1 C1C H1C 108.4 . .
Cl1 C1C Cl4 109.9(4) . .
Cl2 C1C H1C 108.4 . .
Cl2 C1C Cl4 110.2(4) . .
Cl4 C1C H1C 108.4 . .
Zn1 O1 H1A 112.3 . .
Zn1 O1 H1B 111.2 . .
H1A O1 H1B 106.7 . .
loop_
_geom_bond_atom_site_label_1
_geom_bond_atom_site_label_2
_geom_bond_distance
_geom_bond_site_symmetry_2
Zn1 N1 2.040(4) .
Zn1 N3 2.063(4) .
Zn1 N4 2.044(4) .
Zn1 N5 2.057(4) .
Zn1 O1 2.226(4) .
Zn2 N8 2.044(3) .
Zn2 N9 2.033(4) .
Zn2 N10 2.021(4) .
Zn2 N11 2.040(4) .
N1 C1 1.371(5) .
N1 C5 1.382(5) .
C2 C34 1.503(6) .
C2 C35 1.388(6) .
C2 C39 1.379(6) .
N3 C30 1.378(5) .
N3 C33 1.391(5) .
N4 C12 1.381(6) .
N4 C15 1.386(6) .
N5 C7 1.368(6) .
N5 C10 1.381(6) .
N6 C72 1.156(6) .
N8 C75 1.388(5) .
N8 C78 1.377(5) .
N9 C94 1.385(5) .
N9 C97 1.377(5) .
N10 C132 1.373(5) .
N10 C135 1.382(5) .
N11 C113 1.375(6) .
N11 C116 1.382(6) .
C1 C3 1.437(6) .
C1 C34 1.409(6) .
C3 H3 0.9500 .
C3 C4 1.354(6) .
C4 H4 0.9500 .
C4 C5 1.444(6) .
C5 C6 1.401(6) .
C6 C7 1.400(6) .
C6 C62 1.491(6) .
C7 C8 1.439(6) .
C8 H8 0.9500 .
C8 C9 1.345(7) .
C9 H9 0.9500 .
C9 C10 1.422(7) .
C10 C11 1.392(7) .
C11 C12 1.407(7) .
C11 C48 1.511(5) .
C12 C13 1.443(7) .
C13 H13 0.9500 .
C13 C14 1.346(7) .
C14 H14 0.9500 .
C14 C15 1.438(6) .
C15 C16 1.405(6) .
C16 C17 1.510(6) .
C16 C30 1.406(6) .
C17 C18 1.396(6) .
C17 C29 1.388(6) .
C18 H18 0.9500 .
C18 C19 1.403(6) .
C19 C1A 1.534(6) .
C19 C23 1.397(6) .
C1A C20 1.531(7) .
C1A C21 1.526(7) .
C1A C22 1.545(7) .
C20 H20A 0.9800 .
C20 H20B 0.9800 .
C20 H20C 0.9800 .
C21 H21A 0.9800 .
C21 H21B 0.9800 .
C21 H21C 0.9800 .
C22 H22A 0.9800 .
C22 H22B 0.9800 .
C22 H22C 0.9800 .
C23 H23 0.9500 .
C23 C24 1.388(6) .
C24 C25 1.532(6) .
C24 C29 1.401(6) .
C25 C26 1.573(7) .
C25 C27 1.482(7) .
C25 C28 1.495(7) .
C26 H26A 0.9800 .
C26 H26B 0.9800 .
C26 H26C 0.9800 .
C27 H27A 0.9800 .
C27 H27B 0.9800 .
C27 H27C 0.9800 .
C28 H28A 0.9800 .
C28 H28B 0.9800 .
C28 H28C 0.9800 .
C29 H29 0.9500 .
C30 C31 1.444(6) .
C31 H31 0.9500 .
C31 C32 1.366(6) .
C32 H32 0.9500 .
C32 C33 1.427(6) .
C33 C34 1.398(6) .
C35 H35 0.9500 .
C35 C36 1.393(6) .
C36 C37 1.386(6) .
C36 C44 1.551(6) .
C37 H37 0.9500 .
C37 C38 1.399(6) .
C38 C39 1.387(6) .
C38 C40 1.527(6) .
C39 H39 0.9500 .
C40 C41 1.530(6) .
C40 C42 1.550(7) .
C40 C43 1.530(6) .
C41 H41A 0.9800 .
C41 H41B 0.9800 .
C41 H41C 0.9800 .
C42 H42A 0.9800 .
C42 H42B 0.9800 .
C42 H42C 0.9800 .
C43 H43A 0.9800 .
C43 H43B 0.9800 .
C43 H43C 0.9800 .
C44 C45 1.519(7) .
C44 C46 1.534(7) .
C44 C47 1.531(6) .
C45 H45A 0.9800 .
C45 H45B 0.9800 .
C45 H45C 0.9800 .
C46 H46A 0.9800 .
C46 H46B 0.9800 .
C46 H46C 0.9800 .
C47 H47A 0.9800 .
C47 H47B 0.9800 .
C47 H47C 0.9800 .
C48 C49A 1.3900 .
C48 C61A 1.3900 .
C48 C49 1.364(8) .
C48 C61 1.404(10) .
C49A H49A 0.9500 .
C49A C50A 1.3900 .
C50A H50A 0.9500 .
C50A C51 1.3900 .
C51 C60A 1.3900 .
C51 C50 1.394(9) .
C51 C52 1.523(4) .
C51 C60 1.397(10) .
C60A H60A 0.9500 .
C60A C61A 1.3900 .
C61A H61A 0.9500 .
C49 H49 0.9500 .
C49 C50 1.396(10) .
C50 H50 0.9500 .
C52 C53A 1.3900 .
C52 C57A 1.3900 .
C52 C53 1.342(10) .
C52 C57 1.424(11) .
C53A H53A 0.9500 .
C53A C54A 1.3900 .
C54A H54A 0.9500 .
C54A C55A 1.3900 .
C55A C56A 1.3900 .
C55A C54 1.363(10) .
C55A C56 1.413(10) .
C55A C58 1.446(6) .
C56A H56A 0.9500 .
C56A C57A 1.3900 .
C57A H57A 0.9500 .
C53 H53 0.9500 .
C53 C54 1.406(12) .
C54 H54 0.9500 .
C56 H56 0.9500 .
C56 C57 1.364(12) .
C57 H57 0.9500 .
C58 N59 1.154(6) .
C60 H60 0.9500 .
C60 C61 1.380(11) .
C61 H61 0.9500 .
C62 C63 1.389(6) .
C62 C67 1.393(6) .
C63 H63 0.9500 .
C63 C64 1.396(6) .
C64 H64 0.9500 .
C64 C65 1.375(6) .
C65 C66 1.393(6) .
C65 C68 1.494(6) .
C66 H66 0.9500 .
C66 C67 1.366(7) .
C67 H67 0.9500 .
C68 C69 1.380(6) .
C68 C74 1.369(7) .
C69 H69 0.9500 .
C69 C70 1.384(6) .
C70 H70 0.9500 .
C70 C71 1.384(7) .
C71 C72 1.446(7) .
C71 C73 1.393(7) .
C73 H73 0.9500 .
C73 C74 1.377(7) .
C74 H74 0.9500 .
C75 C76 1.429(6) .
C75 C136 1.398(6) .
C76 H76 0.9500 .
C76 C77 1.342(6) .
C77 H77 0.9500 .
C77 C78 1.446(6) .
C78 C79 1.404(6) .
C79 C80 1.498(6) .
C79 C94 1.402(6) .
C80 C81 1.390(6) .
C80 C89 1.393(6) .
C81 H81 0.9500 .
C81 C82 1.382(6) .
C82 C83 1.393(6) .
C82 C90 1.543(6) .
C83 H83 0.9500 .
C83 C84 1.400(6) .
C84 C85 1.511(7) .
C84 C89 1.390(6) .
C85 C86 1.539(8) .
C85 C87 1.533(7) .
C85 C88 1.535(7) .
C86 H86A 0.9800 .
C86 H86B 0.9800 .
C86 H86C 0.9800 .
C87 H87A 0.9800 .
C87 H87B 0.9800 .
C87 H87C 0.9800 .
C88 H88A 0.9800 .
C88 H88B 0.9800 .
C88 H88C 0.9800 .
C89 H89 0.9500 .
C90 C91 1.534(7) .
C90 C92 1.532(7) .
C90 C93 1.523(7) .
C91 H91A 0.9800 .
C91 H91B 0.9800 .
C91 H91C 0.9800 .
C92 H92A 0.9800 .
C92 H92B 0.9800 .
C92 H92C 0.9800 .
C93 H93A 0.9800 .
C93 H93B 0.9800 .
C93 H93C 0.9800 .
C94 C95 1.430(6) .
C95 H95 0.9500 .
C95 C96 1.344(6) .
C96 H96 0.9500 .
C96 C97 1.440(6) .
C97 C98 1.405(6) .
C98 C99 1.510(6) .
C98 C113 1.397(6) .
C99 C100 1.365(6) .
C99 C112 1.359(6) .
C100 H100 0.9500 .
C100 C101 1.387(7) .
C101 H101 0.9500 .
C101 C102 1.383(7) .
C102 C103 1.491(6) .
C102 C111 1.361(6) .
C103 C104 1.402(6) .
C103 C108 1.393(6) .
C104 H104 0.9500 .
C104 C105 1.376(6) .
C105 H105 0.9500 .
C105 C106 1.383(6) .
C106 C107 1.373(7) .
C106 C109 1.451(7) .
C107 H107 0.9500 .
C107 C108 1.387(6) .
C108 H108 0.9500 .
C109 N110 1.133(6) .
C111 H111 0.9500 .
C111 C112 1.383(6) .
C112 H112 0.9500 .
C113 C114 1.449(6) .
C114 H114 0.9500 .
C114 C115 1.340(6) .
C115 H115 0.9500 .
C115 C116 1.434(6) .
C116 C117 1.403(6) .
C117 C118 1.501(6) .
C117 C132 1.401(6) .
C118 C119 1.381(6) .
C118 C123 1.384(6) .
C119 H119 0.9500 .
C119 C120 1.397(6) .
C120 H120 0.9500 .
C120 C121 1.393(6) .
C121 C122 1.393(6) .
C121 C124 1.487(6) .
C122 H122 0.9500 .
C122 C123 1.398(6) .
C123 H123 0.9500 .
C124 C125 1.376(6) .
C124 C131 1.418(6) .
C125 H125 0.9500 .
C125 C126 1.373(6) .
C126 H126 0.9500 .
C126 C127 1.377(6) .
C127 C128 1.449(7) .
C127 C130 1.400(7) .
C128 N129 1.134(7) .
C130 H130 0.9500 .
C130 C131 1.375(7) .
C131 H131 0.9500 .
C132 C133 1.435(6) .
C133 H133 0.9500 .
C133 C134 1.343(6) .
C134 H134 0.9500 .
C134 C135 1.427(6) .
C135 C136 1.406(6) .
C136 C137 1.490(6) .
C137 C138 1.388(6) .
C137 C146 1.383(6) .
C138 H138 0.9500 .
C138 C139 1.393(6) .
C139 C140 1.396(6) .
C139 C147 1.532(6) .
C140 H140 0.9500 .
C140 C141 1.397(6) .
C141 C142 1.540(6) .
C141 C146 1.395(6) .
C142 C143 1.530(7) .
C142 C144 1.544(6) .
C142 C145 1.529(6) .
C143 H14A 0.9800 .
C143 H14B 0.9800 .
C143 H14C 0.9800 .
C144 H14D 0.9800 .
C144 H14E 0.9800 .
C144 H14F 0.9800 .
C145 H14G 0.9800 .
C145 H14H 0.9800 .
C145 H14I 0.9800 .
C146 H146 0.9500 .
C147 C148 1.529(6) .
C147 C149 1.538(6) .
C147 C150 1.527(6) .
C148 H14J 0.9800 .
C148 H14K 0.9800 .
C148 H14L 0.9800 .
C149 H14M 0.9800 .
C149 H14N 0.9800 .
C149 H14O 0.9800 .
C150 H15A 0.9800 .
C150 H15B 0.9800 .
C150 H15C 0.9800 .
Cl1 C1C 1.698(6) .
Cl2 C1C 1.737(6) .
C1C H1C 1.0000 .
C1C Cl4 1.748(7) .
O1 H1A 0.9173 .
O1 H1B 0.9149 .
loop_
_geom_torsion_atom_site_label_1
_geom_torsion_atom_site_label_2
_geom_torsion_atom_site_label_3
_geom_torsion_atom_site_label_4
_geom_torsion
_geom_torsion_site_symmetry_1
_geom_torsion_site_symmetry_2
_geom_torsion_site_symmetry_3
_geom_torsion_site_symmetry_4
Zn1 N1 C1 C3 179.9(3) . . . .
Zn1 N1 C1 C34 0.1(6) . . . .
Zn1 N1 C5 C4 -180.0(3) . . . .
Zn1 N1 C5 C6 -0.1(6) . . . .
Zn1 N3 C30 C16 -6.8(6) . . . .
Zn1 N3 C30 C31 175.2(3) . . . .
Zn1 N3 C33 C32 -175.5(3) . . . .
Zn1 N3 C33 C34 11.4(6) . . . .
Zn1 N4 C12 C11 -2.1(6) . . . .
Zn1 N4 C12 C13 -176.6(3) . . . .
Zn1 N4 C15 C14 175.2(3) . . . .
Zn1 N4 C15 C16 -5.0(6) . . . .
Zn1 N5 C7 C6 -5.7(6) . . . .
Zn1 N5 C7 C8 173.1(3) . . . .
Zn1 N5 C10 C9 -173.6(3) . . . .
Zn1 N5 C10 C11 8.0(6) . . . .
Zn2 N8 C75 C76 172.9(3) . . . .
Zn2 N8 C75 C136 -4.6(6) . . . .
Zn2 N8 C78 C77 -171.8(3) . . . .
Zn2 N8 C78 C79 6.9(6) . . . .
Zn2 N9 C94 C79 2.2(6) . . . .
Zn2 N9 C94 C95 -177.5(3) . . . .
Zn2 N9 C97 C96 177.3(3) . . . .
Zn2 N9 C97 C98 -5.0(6) . . . .
Zn2 N10 C132 C117 -0.2(6) . . . .
Zn2 N10 C132 C133 179.3(3) . . . .
Zn2 N10 C135 C134 -179.6(3) . . . .
Zn2 N10 C135 C136 0.2(6) . . . .
Zn2 N11 C113 C98 -5.6(6) . . . .
Zn2 N11 C113 C114 172.8(3) . . . .
Zn2 N11 C116 C115 -172.9(3) . . . .
Zn2 N11 C116 C117 7.6(6) . . . .
N1 C1 C3 C4 -0.6(5) . . . .
N1 C1 C34 C2 179.2(4) . . . .
N1 C1 C34 C33 -6.9(7) . . . .
N1 C5 C6 C7 5.2(7) . . . .
N1 C5 C6 C62 -174.7(4) . . . .
C2 C35 C36 C37 -0.1(6) . . . .
C2 C35 C36 C44 178.5(4) . . . .
N3 C30 C31 C32 1.6(5) . . . .
N3 C33 C34 C2 174.4(4) . . . .
N3 C33 C34 C1 0.6(7) . . . .
N4 C12 C13 C14 1.6(5) . . . .
N4 C15 C16 C17 175.9(4) . . . .
N4 C15 C16 C30 0.6(7) . . . .
N5 C7 C8 C9 0.8(6) . . . .
N5 C10 C11 C12 4.5(8) . . . .
N5 C10 C11 C48 -179.5(4) . . . .
N8 C75 C76 C77 -0.4(5) . . . .
N8 C75 C136 C135 5.1(7) . . . .
N8 C75 C136 C137 -174.5(4) . . . .
N8 C78 C79 C80 -174.6(4) . . . .
N8 C78 C79 C94 3.4(7) . . . .
N9 C94 C95 C96 0.1(5) . . . .
N9 C97 C98 C99 -179.6(4) . . . .
N9 C97 C98 C113 0.6(7) . . . .
N10 C132 C133 C134 0.1(5) . . . .
N10 C135 C136 C75 -2.7(7) . . . .
N10 C135 C136 C137 176.9(4) . . . .
N11 C113 C114 C115 1.2(5) . . . .
N11 C116 C117 C118 179.2(4) . . . .
N11 C116 C117 C132 1.3(7) . . . .
C1 N1 C5 C4 -1.2(4) . . . .
C1 N1 C5 C6 178.7(4) . . . .
C1 C3 C4 C5 -0.1(5) . . . .
C3 C1 C34 C2 -0.5(6) . . . .
C3 C1 C34 C33 173.4(4) . . . .
C3 C4 C5 N1 0.8(5) . . . .
C3 C4 C5 C6 -179.0(4) . . . .
C4 C5 C6 C7 -175.0(4) . . . .
C4 C5 C6 C62 5.1(6) . . . .
C5 N1 C1 C3 1.1(5) . . . .
C5 N1 C1 C34 -178.6(4) . . . .
C5 C6 C7 N5 -2.1(7) . . . .
C5 C6 C7 C8 179.3(4) . . . .
C5 C6 C62 C63 -114.9(5) . . . .
C5 C6 C62 C67 64.4(5) . . . .
C6 C7 C8 C9 179.6(5) . . . .
C6 C62 C63 C64 177.6(4) . . . .
C6 C62 C67 C66 -177.0(5) . . . .
C7 N5 C10 C9 0.0(5) . . . .
C7 N5 C10 C11 -178.4(4) . . . .
C7 C6 C62 C63 65.2(6) . . . .
C7 C6 C62 C67 -115.5(5) . . . .
C7 C8 C9 C10 -0.8(6) . . . .
C8 C9 C10 N5 0.5(6) . . . .
C8 C9 C10 C11 178.9(5) . . . .
C9 C10 C11 C12 -173.6(5) . . . .
C9 C10 C11 C48 2.4(7) . . . .
C10 N5 C7 C6 -179.3(4) . . . .
C10 N5 C7 C8 -0.5(5) . . . .
C10 C11 C12 N4 -7.7(8) . . . .
C10 C11 C12 C13 166.0(4) . . . .
C10 C11 C48 C49A 93.3(6) . . . .
C10 C11 C48 C61A -90.2(6) . . . .
C10 C11 C48 C49 112.3(7) . . . .
C10 C11 C48 C61 -56.8(8) . . . .
C11 C12 C13 C14 -173.0(4) . . . .
C11 C48 C49A C50A 176.6(4) . . . .
C11 C48 C61A C60A -176.5(4) . . . .
C11 C48 C49 C50 173.7(6) . . . .
C11 C48 C61 C60 -177.9(7) . . . .
C12 N4 C15 C14 -1.0(5) . . . .
C12 N4 C15 C16 178.8(4) . . . .
C12 C11 C48 C49A -90.4(6) . . . .
C12 C11 C48 C61A 86.2(6) . . . .
C12 C11 C48 C49 -71.4(7) . . . .
C12 C11 C48 C61 119.5(6) . . . .
C12 C13 C14 C15 -2.1(5) . . . .
C13 C14 C15 N4 2.0(5) . . . .
C13 C14 C15 C16 -177.8(4) . . . .
C14 C15 C16 C17 -4.3(6) . . . .
C14 C15 C16 C30 -179.6(4) . . . .
C15 N4 C12 C11 174.1(4) . . . .
C15 N4 C12 C13 -0.3(5) . . . .
C15 C16 C17 C18 54.4(6) . . . .
C15 C16 C17 C29 -122.7(4) . . . .
C15 C16 C30 N3 5.6(7) . . . .
C15 C16 C30 C31 -176.7(4) . . . .
C16 C17 C18 C19 -175.4(4) . . . .
C16 C17 C29 C24 180.0(4) . . . .
C16 C30 C31 C32 -176.4(4) . . . .
C17 C16 C30 N3 -169.7(4) . . . .
C17 C16 C30 C31 8.0(6) . . . .
C17 C18 C19 C1A 175.3(4) . . . .
C17 C18 C19 C23 -4.8(7) . . . .
C18 C17 C29 C24 2.8(7) . . . .
C18 C19 C1A C20 -130.7(5) . . . .
C18 C19 C1A C21 109.3(5) . . . .
C18 C19 C1A C22 -11.8(6) . . . .
C18 C19 C23 C24 3.7(7) . . . .
C19 C23 C24 C25 179.3(4) . . . .
C19 C23 C24 C29 0.4(7) . . . .
C1A C19 C23 C24 -176.3(4) . . . .
C23 C19 C1A C20 49.4(6) . . . .
C23 C19 C1A C21 -70.6(6) . . . .
C23 C19 C1A C22 168.3(4) . . . .
C23 C24 C25 C26 128.4(5) . . . .
C23 C24 C25 C27 11.8(7) . . . .
C23 C24 C25 C28 -115.9(5) . . . .
C23 C24 C29 C17 -3.8(7) . . . .
C25 C24 C29 C17 177.2(4) . . . .
C29 C17 C18 C19 1.7(7) . . . .
C29 C24 C25 C26 -52.7(6) . . . .
C29 C24 C25 C27 -169.3(5) . . . .
C29 C24 C25 C28 63.0(6) . . . .
C30 N3 C33 C32 2.0(4) . . . .
C30 N3 C33 C34 -171.1(4) . . . .
C30 C16 C17 C18 -130.0(5) . . . .
C30 C16 C17 C29 52.9(5) . . . .
C30 C31 C32 C33 -0.3(5) . . . .
C31 C32 C33 N3 -1.0(5) . . . .
C31 C32 C33 C34 172.1(4) . . . .
C32 C33 C34 C2 2.3(6) . . . .
C32 C33 C34 C1 -171.5(4) . . . .
C33 N3 C30 C16 175.8(4) . . . .
C33 N3 C30 C31 -2.2(4) . . . .
C34 C2 C35 C36 174.4(4) . . . .
C34 C2 C39 C38 -174.3(4) . . . .
C34 C1 C3 C4 179.1(4) . . . .
C35 C2 C34 C1 -100.4(5) . . . .
C35 C2 C34 C33 85.2(5) . . . .
C35 C2 C39 C38 1.0(6) . . . .
C35 C36 C37 C38 0.5(6) . . . .
C35 C36 C44 C45 -95.9(5) . . . .
C35 C36 C44 C46 23.5(6) . . . .
C35 C36 C44 C47 143.8(4) . . . .
C36 C37 C38 C39 -0.2(6) . . . .
C36 C37 C38 C40 -178.0(4) . . . .
C37 C36 C44 C45 82.7(5) . . . .
C37 C36 C44 C46 -158.0(4) . . . .
C37 C36 C44 C47 -37.7(6) . . . .
C37 C38 C39 C2 -0.6(6) . . . .
C37 C38 C40 C41 3.1(6) . . . .
C37 C38 C40 C42 121.5(5) . . . .
C37 C38 C40 C43 -118.4(5) . . . .
C39 C2 C34 C1 74.8(5) . . . .
C39 C2 C34 C33 -99.6(5) . . . .
C39 C2 C35 C36 -0.7(6) . . . .
C39 C38 C40 C41 -174.6(4) . . . .
C39 C38 C40 C42 -56.2(5) . . . .
C39 C38 C40 C43 63.9(5) . . . .
C40 C38 C39 C2 177.3(4) . . . .
C44 C36 C37 C38 -178.1(4) . . . .
C48 C11 C12 N4 176.2(4) . . . .
C48 C11 C12 C13 -10.1(7) . . . .
C48 C49A C50A C51 0.0 . . . .
C48 C49 C50 C51 6.4(11) . . . .
C49A C48 C61A C60A 0.0 . . . .
C49A C48 C49 C50 -89.8(14) . . . .
C49A C48 C61 C60 30.1(9) . . . .
C49A C50A C51 C60A 0.0 . . . .
C49A C50A C51 C50 -84.5(11) . . . .
C49A C50A C51 C52 -177.5(4) . . . .
C49A C50A C51 C60 31.1(5) . . . .
C50A C51 C60A C61A 0.0 . . . .
C50A C51 C50 C49 81.1(12) . . . .
C50A C51 C52 C53A 165.3(4) . . . .
C50A C51 C52 C57A -10.9(6) . . . .
C50A C51 C52 C53 -171.5(7) . . . .
C50A C51 C52 C57 20.3(7) . . . .
C50A C51 C60 C61 -31.5(9) . . . .
C51 C60A C61A C48 0.0 . . . .
C51 C52 C53A C54A -176.3(4) . . . .
C51 C52 C57A C56A 176.2(4) . . . .
C51 C52 C53 C54 -177.2(8) . . . .
C51 C52 C57 C56 -179.6(7) . . . .
C51 C60 C61 C48 0.9(12) . . . .
C60A C51 C50 C49 -24.7(8) . . . .
C60A C51 C52 C53A -12.2(6) . . . .
C60A C51 C52 C57A 171.6(4) . . . .
C60A C51 C52 C53 11.0(8) . . . .
C60A C51 C52 C57 -157.2(6) . . . .
C60A C51 C60 C61 80.6(10) . . . .
C61A C48 C49A C50A 0.0 . . . .
C61A C48 C49 C50 15.4(10) . . . .
C61A C48 C61 C60 -82.4(10) . . . .
C49 C48 C49A C50A 83.7(12) . . . .
C49 C48 C61A C60A -18.6(6) . . . .
C49 C48 C61 C60 12.9(11) . . . .
C50 C51 C60A C61A 21.7(5) . . . .
C50 C51 C52 C53A 142.9(5) . . . .
C50 C51 C52 C57A -33.3(7) . . . .
C50 C51 C52 C53 166.1(7) . . . .
C50 C51 C52 C57 -2.1(8) . . . .
C50 C51 C60 C61 -11.4(11) . . . .
C52 C51 C60A C61A 177.5(4) . . . .
C52 C51 C50 C49 179.4(6) . . . .
C52 C51 C60 C61 177.2(7) . . . .
C52 C53A C54A C55A 0.0 . . . .
C52 C53 C54 C55A 1.7(14) . . . .
C53A C52 C57A C56A 0.0 . . . .
C53A C52 C53 C54 -87.3(15) . . . .
C53A C52 C57 C56 33.1(10) . . . .
C53A C54A C55A C56A 0.0 . . . .
C53A C54A C55A C54 -83.3(12) . . . .
C53A C54A C55A C56 26.6(4) . . . .
C53A C54A C55A C58 178.1(4) . . . .
C54A C55A C56A C57A 0.0 . . . .
C54A C55A C54 C53 83.7(14) . . . .
C54A C55A C56 C57 -22.7(9) . . . .
C55A C56A C57A C52 0.0 . . . .
C55A C56 C57 C52 -7.4(13) . . . .
C56A C55A C54 C53 -23.9(10) . . . .
C56A C55A C56 C57 85.4(12) . . . .
C57A C52 C53A C54A 0.0 . . . .
C57A C52 C53 C54 21.3(12) . . . .
C57A C52 C57 C56 -79.3(11) . . . .
C53 C52 C53A C54A 81.7(13) . . . .
C53 C52 C57A C56A -22.0(6) . . . .
C53 C52 C57 C56 11.8(12) . . . .
C54 C55A C56A C57A 23.0(5) . . . .
C54 C55A C56 C57 0.1(10) . . . .
C56 C55A C56A C57A -84.4(10) . . . .
C56 C55A C54 C53 2.8(11) . . . .
C57 C52 C53A C54A -29.0(5) . . . .
C57 C52 C57A C56A 80.8(10) . . . .
C57 C52 C53 C54 -8.8(13) . . . .
C58 C55A C56A C57A -178.1(4) . . . .
C58 C55A C54 C53 177.7(8) . . . .
C58 C55A C56 C57 -174.9(7) . . . .
C60 C51 C60A C61A -81.9(8) . . . .
C60 C51 C50 C49 7.8(9) . . . .
C60 C51 C52 C53A -45.7(7) . . . .
C60 C51 C52 C57A 138.1(6) . . . .
C60 C51 C52 C53 -22.5(9) . . . .
C60 C51 C52 C57 169.3(7) . . . .
C61 C48 C49A C50A -30.5(5) . . . .
C61 C48 C61A C60A 81.2(8) . . . .
C61 C48 C49 C50 -16.7(11) . . . .
C62 C6 C7 N5 177.8(4) . . . .
C62 C6 C7 C8 -0.8(7) . . . .
C62 C63 C64 C65 -0.1(7) . . . .
C63 C62 C67 C66 2.3(7) . . . .
C63 C64 C65 C66 1.4(7) . . . .
C63 C64 C65 C68 -177.3(4) . . . .
C64 C65 C66 C67 -0.9(8) . . . .
C64 C65 C68 C69 -36.6(6) . . . .
C64 C65 C68 C74 142.2(5) . . . .
C65 C66 C67 C62 -1.0(8) . . . .
C65 C68 C69 C70 179.1(4) . . . .
C65 C68 C74 C73 -179.6(5) . . . .
C66 C65 C68 C69 144.7(5) . . . .
C66 C65 C68 C74 -36.5(7) . . . .
C67 C62 C63 C64 -1.8(7) . . . .
C68 C65 C66 C67 177.8(5) . . . .
C68 C69 C70 C71 0.4(7) . . . .
C69 C68 C74 C73 -0.8(8) . . . .
C69 C70 C71 C72 177.6(4) . . . .
C69 C70 C71 C73 -0.7(7) . . . .
C70 C71 C73 C74 0.3(8) . . . .
C71 C73 C74 C68 0.4(9) . . . .
C72 C71 C73 C74 -178.0(5) . . . .
C74 C68 C69 C70 0.4(7) . . . .
C75 N8 C78 C77 2.2(4) . . . .
C75 N8 C78 C79 -179.0(4) . . . .
C75 C76 C77 C78 1.8(5) . . . .
C75 C136 C137 C138 -97.0(5) . . . .
C75 C136 C137 C146 84.2(5) . . . .
C76 C75 C136 C135 -172.1(4) . . . .
C76 C75 C136 C137 8.2(6) . . . .
C76 C77 C78 N8 -2.6(5) . . . .
C76 C77 C78 C79 178.7(4) . . . .
C77 C78 C79 C80 3.9(6) . . . .
C77 C78 C79 C94 -178.1(4) . . . .
C78 N8 C75 C76 -1.2(5) . . . .
C78 N8 C75 C136 -178.7(4) . . . .
C78 C79 C80 C81 -55.6(6) . . . .
C78 C79 C80 C89 121.4(4) . . . .
C78 C79 C94 N9 -8.2(7) . . . .
C78 C79 C94 C95 171.5(4) . . . .
C79 C80 C81 C82 174.7(4) . . . .
C79 C80 C89 C84 -177.2(4) . . . .
C79 C94 C95 C96 -179.6(4) . . . .
C80 C79 C94 N9 169.8(4) . . . .
C80 C79 C94 C95 -10.6(6) . . . .
C80 C81 C82 C83 2.9(7) . . . .
C80 C81 C82 C90 -176.6(4) . . . .
C81 C80 C89 C84 -0.1(7) . . . .
C81 C82 C83 C84 -1.2(7) . . . .
C81 C82 C90 C91 127.2(5) . . . .
C81 C82 C90 C92 -113.0(5) . . . .
C81 C82 C90 C93 7.6(7) . . . .
C82 C83 C84 C85 -178.6(5) . . . .
C82 C83 C84 C89 -1.0(7) . . . .
C83 C82 C90 C91 -52.3(6) . . . .
C83 C82 C90 C92 67.6(6) . . . .
C83 C82 C90 C93 -171.8(4) . . . .
C83 C84 C85 C86 -59.4(6) . . . .
C83 C84 C85 C87 179.9(5) . . . .
C83 C84 C85 C88 59.5(7) . . . .
C83 C84 C89 C80 1.7(7) . . . .
C85 C84 C89 C80 179.2(5) . . . .
C89 C80 C81 C82 -2.2(7) . . . .
C89 C84 C85 C86 123.1(5) . . . .
C89 C84 C85 C87 2.4(8) . . . .
C89 C84 C85 C88 -117.9(5) . . . .
C90 C82 C83 C84 178.3(5) . . . .
C94 N9 C97 C96 -0.4(4) . . . .
C94 N9 C97 C98 177.3(4) . . . .
C94 C79 C80 C81 126.3(4) . . . .
C94 C79 C80 C89 -56.7(5) . . . .
C94 C95 C96 C97 -0.3(5) . . . .
C95 C96 C97 N9 0.5(5) . . . .
C95 C96 C97 C98 -177.2(4) . . . .
C96 C97 C98 C99 -2.3(6) . . . .
C96 C97 C98 C113 178.0(4) . . . .
C97 N9 C94 C79 179.9(4) . . . .
C97 N9 C94 C95 0.2(4) . . . .
C97 C98 C99 C100 91.4(5) . . . .
C97 C98 C99 C112 -88.4(5) . . . .
C97 C98 C113 N11 5.1(7) . . . .
C97 C98 C113 C114 -173.1(4) . . . .
C98 C99 C100 C101 -178.0(5) . . . .
C98 C99 C112 C111 179.0(4) . . . .
C98 C113 C114 C115 179.6(4) . . . .
C99 C98 C113 N11 -174.6(4) . . . .
C99 C98 C113 C114 7.2(6) . . . .
C99 C100 C101 C102 -0.6(9) . . . .
C100 C99 C112 C111 -0.8(8) . . . .
C100 C101 C102 C103 -179.7(5) . . . .
C100 C101 C102 C111 -1.6(8) . . . .
C101 C102 C103 C104 -158.2(5) . . . .
C101 C102 C103 C108 21.6(7) . . . .
C101 C102 C111 C112 2.6(7) . . . .
C102 C103 C104 C105 -178.5(4) . . . .
C102 C103 C108 C107 178.7(4) . . . .
C102 C111 C112 C99 -1.5(8) . . . .
C103 C102 C111 C112 -179.4(5) . . . .
C103 C104 C105 C106 -0.7(7) . . . .
C104 C103 C108 C107 -1.6(7) . . . .
C104 C105 C106 C107 -0.4(7) . . . .
C104 C105 C106 C109 178.0(4) . . . .
C105 C106 C107 C108 0.5(7) . . . .
C106 C107 C108 C103 0.5(7) . . . .
C108 C103 C104 C105 1.7(7) . . . .
C109 C106 C107 C108 -177.9(4) . . . .
C111 C102 C103 C104 23.9(7) . . . .
C111 C102 C103 C108 -156.3(5) . . . .
C112 C99 C100 C101 1.8(8) . . . .
C113 N11 C116 C115 1.3(5) . . . .
C113 N11 C116 C117 -178.2(4) . . . .
C113 C98 C99 C100 -88.9(5) . . . .
C113 C98 C99 C112 91.3(5) . . . .
C113 C114 C115 C116 -0.4(5) . . . .
C114 C115 C116 N11 -0.6(5) . . . .
C114 C115 C116 C117 178.9(4) . . . .
C115 C116 C117 C118 -0.2(7) . . . .
C115 C116 C117 C132 -178.1(4) . . . .
C116 N11 C113 C98 -180.0(4) . . . .
C116 N11 C113 C114 -1.5(5) . . . .
C116 C117 C118 C119 -70.5(6) . . . .
C116 C117 C118 C123 109.8(5) . . . .
C116 C117 C132 N10 -5.3(7) . . . .
C116 C117 C132 C133 175.3(4) . . . .
C117 C118 C119 C120 -178.8(4) . . . .
C117 C118 C123 C122 178.4(4) . . . .
C117 C132 C133 C134 179.6(4) . . . .
C118 C117 C132 N10 176.8(4) . . . .
C118 C117 C132 C133 -2.5(6) . . . .
C118 C119 C120 C121 1.5(8) . . . .
C119 C118 C123 C122 -1.3(7) . . . .
C119 C120 C121 C122 -3.5(7) . . . .
C119 C120 C121 C124 178.4(4) . . . .
C120 C121 C122 C123 3.1(7) . . . .
C120 C121 C124 C125 -41.2(6) . . . .
C120 C121 C124 C131 136.5(5) . . . .
C121 C122 C123 C118 -0.8(7) . . . .
C121 C124 C125 C126 176.6(4) . . . .
C121 C124 C131 C130 -176.9(4) . . . .
C122 C121 C124 C125 140.8(5) . . . .
C122 C121 C124 C131 -41.5(7) . . . .
C123 C118 C119 C120 0.9(7) . . . .
C124 C121 C122 C123 -178.9(4) . . . .
C124 C125 C126 C127 0.2(7) . . . .
C125 C124 C131 C130 0.9(7) . . . .
C125 C126 C127 C128 -177.5(5) . . . .
C125 C126 C127 C130 1.0(7) . . . .
C126 C127 C130 C131 -1.3(7) . . . .
C127 C130 C131 C124 0.3(7) . . . .
C128 C127 C130 C131 177.2(5) . . . .
C131 C124 C125 C126 -1.2(7) . . . .
C132 N10 C135 C134 -0.8(5) . . . .
C132 N10 C135 C136 179.0(4) . . . .
C132 C117 C118 C119 107.5(5) . . . .
C132 C117 C118 C123 -72.1(6) . . . .
C132 C133 C134 C135 -0.6(5) . . . .
C133 C134 C135 N10 0.9(5) . . . .
C133 C134 C135 C136 -178.9(4) . . . .
C134 C135 C136 C75 177.0(4) . . . .
C134 C135 C136 C137 -3.3(6) . . . .
C135 N10 C132 C117 -179.0(4) . . . .
C135 N10 C132 C133 0.4(5) . . . .
C135 C136 C137 C138 83.3(5) . . . .
C135 C136 C137 C146 -95.5(5) . . . .
C136 C75 C76 C77 177.2(4) . . . .
C136 C137 C138 C139 -178.1(4) . . . .
C136 C137 C146 C141 179.0(4) . . . .
C137 C138 C139 C140 -0.5(6) . . . .
C137 C138 C139 C147 -178.3(4) . . . .
C138 C137 C146 C141 0.1(6) . . . .
C138 C139 C140 C141 -0.5(6) . . . .
C138 C139 C147 C148 -37.3(6) . . . .
C138 C139 C147 C149 -157.7(4) . . . .
C138 C139 C147 C150 83.1(5) . . . .
C139 C140 C141 C142 179.7(4) . . . .
C139 C140 C141 C146 1.2(6) . . . .
C140 C139 C147 C148 145.0(4) . . . .
C140 C139 C147 C149 24.6(6) . . . .
C140 C139 C147 C150 -94.6(5) . . . .
C140 C141 C142 C143 0.3(6) . . . .
C140 C141 C142 C144 -119.9(5) . . . .
C140 C141 C142 C145 121.2(5) . . . .
C140 C141 C146 C137 -1.0(6) . . . .
C142 C141 C146 C137 -179.6(4) . . . .
C146 C137 C138 C139 0.7(6) . . . .
C146 C141 C142 C143 178.8(4) . . . .
C146 C141 C142 C144 58.6(5) . . . .
C146 C141 C142 C145 -60.3(5) . . . .
C147 C139 C140 C141 177.3(4) . . . .
loop_
_smtbx_masks_void_nr
_smtbx_masks_void_average_x
_smtbx_masks_void_average_y
_smtbx_masks_void_average_z
_smtbx_masks_void_volume
_smtbx_masks_void_count_electrons
1 0.000 0.000 0.000 163.5 35.2
2 0.479 0.790 0.762 220.8 39.7
3 0.521 0.210 0.238 220.8 38.9
