#------------------------------------------------------------------------------
#$Date: 2016-01-23 05:25:30 +0200 (Sat, 23 Jan 2016) $
#$Revision: 174803 $
#$URL: svn://www.crystallography.net/cod/cif/7/11/85/7118584.cif $
#------------------------------------------------------------------------------
#
# This file is available in the Crystallography Open Database (COD),
# http://www.crystallography.net/
#
# All data on this site have been placed in the public domain by the
# contributors.
#
data_7118584
loop_
_publ_author_name
'Diev, Vyacheslav V.'
'Femia, Denise'
'Zhong, Qiwen'
'Djurovich, Peter I.'
'Haiges, Ralf'
'Thompson, Mark E.'
_publ_section_title
;
 A quinoidal bis-phenalenyl-fused porphyrin with supramolecular
 organization and broad near-infrared absorption.
;
_journal_issue                   9
_journal_name_full
'Chemical communications (Cambridge, England)'
_journal_page_first              1949
_journal_page_last               1952
_journal_paper_doi               10.1039/c5cc09128d
_journal_volume                  52
_journal_year                    2016
_chemical_formula_moiety         'C79 H67 N5 Zn, 3(C6 H6)'
_chemical_formula_sum            'C97 H85 N5 Zn'
_chemical_formula_weight         1386.06
_space_group_crystal_system      triclinic
_space_group_IT_number           2
_space_group_name_Hall           '-P 1'
_space_group_name_H-M_alt        'P -1'
_symmetry_space_group_name_Hall  '-P 1'
_symmetry_space_group_name_H-M   'P -1'
_atom_sites_solution_hydrogens   geom
_audit_update_record
;
2015-10-30 deposited with the CCDC.
2015-12-11 downloaded from the CCDC.
;
_cell_angle_alpha                81.213(3)
_cell_angle_beta                 86.010(3)
_cell_angle_gamma                75.367(3)
_cell_formula_units_Z            4
_cell_length_a                   13.8075(4)
_cell_length_b                   20.3411(7)
_cell_length_c                   27.8465(9)
_cell_measurement_temperature    100.(2)
_cell_volume                     7474.5(4)
_computing_cell_refinement       'APEX2 v2010.11-3 (Bruker AXS)'
_computing_data_collection       'Bruker Instrument Service v2011.6.0.0'
_computing_data_reduction        'SAINT V7.68A (Bruker AXS, 2009)'
_computing_structure_refinement  'SHELXL-2014/6 (Sheldrick, 2014)'
_computing_structure_solution    'SHELXS-97 (Sheldrick, 2008)'
_diffrn_ambient_temperature      100.(2)
_diffrn_detector_area_resol_mean 8.3333
_diffrn_measured_fraction_theta_full 0.951
_diffrn_measured_fraction_theta_max 0.890
_diffrn_measurement_device_type  'Bruker APEX II CCD'
_diffrn_measurement_method       'omega- and phi-scans'
_diffrn_radiation_monochromator  'multi-layer optics'
_diffrn_radiation_type           'CuK\a '
_diffrn_radiation_wavelength     1.54178
_diffrn_reflns_av_R_equivalents  0.1733
_diffrn_reflns_av_unetI/netI     0.2156
_diffrn_reflns_limit_h_max       16
_diffrn_reflns_limit_h_min       -16
_diffrn_reflns_limit_k_max       24
_diffrn_reflns_limit_k_min       -24
_diffrn_reflns_limit_l_max       33
_diffrn_reflns_limit_l_min       -30
_diffrn_reflns_number            80677
_diffrn_reflns_theta_full        55.00
_diffrn_reflns_theta_max         69.36
_diffrn_reflns_theta_min         2.27
_diffrn_source                   'IuS microsource'
_exptl_absorpt_coefficient_mu    0.853
_exptl_absorpt_correction_T_max  0.94
_exptl_absorpt_correction_T_min  0.80
_exptl_absorpt_correction_type   multi-scan
_exptl_absorpt_process_details   'Bruker SADABS V2008/1'
_exptl_crystal_colour            'metallic dark green'
_exptl_crystal_density_diffrn    1.232
_exptl_crystal_density_method    'not measured'
_exptl_crystal_description       plate
_exptl_crystal_F_000             2928
_exptl_crystal_size_max          0.270
_exptl_crystal_size_mid          0.118
_exptl_crystal_size_min          0.069
_refine_diff_density_max         0.764
_refine_diff_density_min         -0.543
_refine_ls_extinction_method     none
_refine_ls_goodness_of_fit_ref   1.008
_refine_ls_hydrogen_treatment    constr
_refine_ls_matrix_type           full
_refine_ls_number_parameters     1919
_refine_ls_number_reflns         24937
_refine_ls_number_restraints     282
_refine_ls_restrained_S_all      1.011
_refine_ls_R_factor_all          0.2037
_refine_ls_R_factor_gt           0.0843
_refine_ls_shift/su_max          0.000
_refine_ls_shift/su_mean         0.000
_refine_ls_structure_factor_coef Fsqd
_refine_ls_weighting_details
'w=1/[\s^2^(Fo^2^)+(0.0650P)^2^] where P=(Fo^2^+2Fc^2^)/3'
_refine_ls_weighting_scheme      calc
_refine_ls_wR_factor_gt          0.1683
_refine_ls_wR_factor_ref         0.2144
_reflns_number_gt                10989
_reflns_number_total             24937
_reflns_threshold_expression     'I > 2\s(I)'
_cod_data_source_file            c5cc09128d2.cif
_cod_data_source_block           C97H85N5Zn
_cod_database_code               7118584
_shelx_res_file
;
TITL cu_SDiev1_0m in P-1
CELL 1.54178 13.8075 20.3411 27.8465 81.213 86.010 75.367
ZERR 4.00 0.0004 0.0007 0.0009 0.003 0.003 0.003
LATT 1
SFAC C  H  N  Zn
UNIT 388 340 20 4
LIST 4
L.S. 10
ACTA
BOND $H
FMAP 2
PLAN 10
DFIX 1.3944 0.001 C159 C160 C160 C161 C161 C162 C162 C163 C163 C164 C164 C159
EADP C151 C1'
EADP C152 C2'
EADP C153 C3'
FLAT C192 > C197
ISOR 0.01 C159 > C164
ISOR 0.005 C137 C138 C139
ISOR 0.001 C192 > C197
TEMP -173.130
WGHT    0.065000
FVAR       0.03769   0.58580
C1    1    0.759496    0.360690    0.257981    11.00000    0.02335    0.02236 =
         0.03059   -0.00396   -0.00882   -0.01033
C2    1    0.734370    0.433768    0.249990    11.00000    0.02317    0.02637 =
         0.04134   -0.00051   -0.01928   -0.00522
AFIX  43
H2    2    0.753987    0.462022    0.222570    11.00000   -1.20000
AFIX   0
C3    1    0.676665    0.455687    0.289208    11.00000    0.02779    0.01305 =
         0.04861   -0.00372   -0.02222   -0.00005
AFIX  43
H3    2    0.647063    0.502023    0.293486    11.00000   -1.20000
AFIX   0
C4    1    0.669154    0.397325    0.321942    11.00000    0.01713    0.01692 =
         0.05311   -0.01307   -0.01180   -0.00169
C5    1    0.624110    0.397510    0.369220    11.00000    0.01457    0.01525 =
         0.04408   -0.00758   -0.01270   -0.00065
C6    1    0.624191    0.340806    0.404333    11.00000    0.01700    0.02238 =
         0.03482   -0.00799   -0.01229   -0.00280
C7    1    0.598553    0.342844    0.454163    11.00000    0.02488    0.01739 =
         0.03535   -0.00628   -0.01337   -0.00056
AFIX  43
H7    2    0.576426    0.383125    0.469267    11.00000   -1.20000
AFIX   0
C8    1    0.610913    0.277548    0.476725    11.00000    0.02157    0.02504 =
         0.03846   -0.00490   -0.01119   -0.00392
AFIX  43
H8    2    0.599875    0.263530    0.510364    11.00000   -1.20000
AFIX   0
C9    1    0.644059    0.233393    0.439853    11.00000    0.01826    0.00860 =
         0.04840    0.00088   -0.01306   -0.00318
C10   1    0.664950    0.158593    0.446959    11.00000    0.01988    0.01700 =
         0.02549    0.00534   -0.01282   -0.00730
C11   1    0.614864    0.121175    0.483119    11.00000    0.01933    0.02420 =
         0.03294   -0.00640   -0.01373   -0.00308
C12   1    0.526405    0.154733    0.508710    11.00000    0.02246    0.01659 =
         0.03764   -0.00297   -0.00867   -0.00299
AFIX  43
H12   2    0.499937    0.202668    0.500098    11.00000   -1.20000
AFIX   0
C13   1    0.479520    0.120207    0.544733    11.00000    0.02223    0.02449 =
         0.03855   -0.00958   -0.00591   -0.00484
AFIX  43
H13   2    0.422565    0.145331    0.560986    11.00000   -1.20000
AFIX   0
C14   1    0.511768    0.047966    0.559328    11.00000    0.02076    0.02198 =
         0.03194   -0.00050   -0.01405   -0.00590
C15   1    0.464979    0.012277    0.595095    11.00000    0.02901    0.03713 =
         0.03047   -0.00525   -0.01102   -0.00766
AFIX  43
H15   2    0.409527    0.036754    0.612642    11.00000   -1.20000
AFIX   0
C16   1    0.495302   -0.057899    0.606629    11.00000    0.03545    0.02908 =
         0.03203    0.00714   -0.01061   -0.00781
AFIX  43
H16   2    0.461623   -0.081266    0.631935    11.00000   -1.20000
AFIX   0
C17   1    0.575840   -0.094268    0.580821    11.00000    0.02930    0.02085 =
         0.04589    0.00172   -0.01507   -0.00431
AFIX  43
H17   2    0.596613   -0.142768    0.588526    11.00000   -1.20000
AFIX   0
C18   1    0.626607   -0.060656    0.543795    11.00000    0.02511    0.02013 =
         0.04018   -0.00145   -0.01283   -0.00753
C19   1    0.594275    0.012081    0.532057    11.00000    0.01983    0.02454 =
         0.03200   -0.00459   -0.01370   -0.00317
C20   1    0.707761   -0.096792    0.515684    11.00000    0.02653    0.01817 =
         0.04229    0.00343   -0.01021   -0.00526
AFIX  43
H20   2    0.728755   -0.145404    0.522240    11.00000   -1.20000
AFIX   0
C21   1    0.754817   -0.062704    0.480000    11.00000    0.01844    0.02017 =
         0.04146   -0.00566   -0.00596    0.00037
AFIX  43
H21   2    0.808826   -0.088132    0.462160    11.00000   -1.20000
AFIX   0
C22   1    0.726579    0.009840    0.468111    11.00000    0.02433    0.02119 =
         0.03602   -0.00329   -0.01339   -0.00773
C23   1    0.645077    0.047389    0.494472    11.00000    0.02299    0.02005 =
         0.03314   -0.00554   -0.01166   -0.00745
C24   1    0.773795    0.046108    0.430197    11.00000    0.02522    0.01975 =
         0.04079   -0.00575   -0.01798   -0.00386
C25   1    0.742222    0.119189    0.418410    11.00000    0.02062    0.02096 =
         0.03429   -0.00408   -0.01064   -0.00409
C26   1    0.859629    0.085435    0.365686    11.00000    0.02091    0.01713 =
         0.03580   -0.00267   -0.01575   -0.00172
C27   1    0.849563    0.026375    0.396220    11.00000    0.01826    0.01655 =
         0.04469   -0.00690   -0.00579   -0.00213
AFIX  43
H27   2    0.887699   -0.019098    0.394112    11.00000   -1.20000
AFIX   0
C28   1    0.921668    0.087288    0.322921    11.00000    0.01701    0.01878 =
         0.04210   -0.00335   -0.01305   -0.00345
C29   1    0.920092    0.143990    0.287677    11.00000    0.01630    0.02024 =
         0.04112   -0.00304   -0.01147   -0.00502
C30   1    0.980628    0.144339    0.244078    11.00000    0.01283    0.02926 =
         0.04138   -0.01297   -0.00489    0.00107
AFIX  43
H30   2    1.032626    0.107101    0.235526    11.00000   -1.20000
AFIX   0
C31   1    0.951267    0.207296    0.216629    11.00000    0.01641    0.01955 =
         0.04153   -0.00243   -0.01149   -0.00403
C32   1    0.983956    0.236425    0.171301    11.00000    0.01784    0.02691 =
         0.05343   -0.00471   -0.01622   -0.00349
C33   1    1.066710    0.200510    0.143990    11.00000    0.02176    0.03541 =
         0.04210    0.00834   -0.00395   -0.01046
AFIX  43
H33   2    1.100241    0.155002    0.156688    11.00000   -1.20000
AFIX   0
C34   1    1.098633    0.228806    0.101097    11.00000    0.02501    0.04335 =
         0.05668   -0.00302   -0.01374   -0.01184
AFIX  43
H34   2    1.154456    0.203558    0.084204    11.00000   -1.20000
AFIX   0
C35   1    1.049299    0.296358    0.080845    11.00000    0.02687    0.04531 =
         0.04333    0.00976   -0.01272   -0.02141
C36   1    1.081152    0.329350    0.036278    11.00000    0.04184    0.04470 =
         0.05247    0.00656   -0.01303   -0.01674
AFIX  43
H36   2    1.139100    0.306422    0.019481    11.00000   -1.20000
AFIX   0
C37   1    1.029981    0.393666    0.016958    11.00000    0.04985    0.05950 =
         0.04617    0.00670   -0.00832   -0.02234
AFIX  43
H37   2    1.054222    0.415247   -0.012472    11.00000   -1.20000
AFIX   0
C38   1    0.943340    0.427882    0.039604    11.00000    0.05114    0.03632 =
         0.04937    0.00524   -0.01844   -0.00993
AFIX  43
H38   2    0.907289    0.471896    0.025237    11.00000   -1.20000
AFIX   0
C39   1    0.909481    0.397197    0.083653    11.00000    0.04244    0.03566 =
         0.03496    0.00749   -0.02649   -0.01470
C40   1    0.961538    0.332418    0.105341    11.00000    0.02840    0.02901 =
         0.04160    0.00358   -0.02135   -0.01128
C41   1    0.815663    0.427529    0.106841    11.00000    0.04537    0.02725 =
         0.04521    0.00379   -0.02684   -0.00889
AFIX  43
H41   2    0.772997    0.467970    0.090815    11.00000   -1.20000
AFIX   0
C42   1    0.787727    0.399553    0.150650    11.00000    0.03469    0.02799 =
         0.04472   -0.00421   -0.01602   -0.00624
AFIX  43
H42   2    0.725056    0.421092    0.164472    11.00000   -1.20000
AFIX   0
C43   1    0.846416    0.339579    0.177584    11.00000    0.02837    0.02128 =
         0.04433   -0.00391   -0.00855   -0.00747
C44   1    0.930627    0.301859    0.151331    11.00000    0.03276    0.02547 =
         0.03236    0.00214   -0.01824   -0.01153
C45   1    0.822627    0.315273    0.226550    11.00000    0.02148    0.02185 =
         0.04376   -0.00770   -0.01145   -0.00965
C46   1    0.871332    0.246790    0.244907    11.00000    0.01862    0.02130 =
         0.04114   -0.00592   -0.01411   -0.00418
C47   1    0.994218    0.022102    0.312752    11.00000    0.01414    0.01956 =
         0.04231    0.00000   -0.01050   -0.00380
C48   1    1.074233   -0.010380    0.342958    11.00000    0.01511    0.02215 =
         0.03494   -0.00230   -0.00790   -0.00298
AFIX  43
H48   2    1.078263    0.005808    0.372823    11.00000   -1.20000
AFIX   0
C49   1    1.148031   -0.065938    0.330107    11.00000    0.01007    0.02226 =
         0.04055    0.00371   -0.00503   -0.00388
C50   1    1.139006   -0.088608    0.285707    11.00000    0.01882    0.02601 =
         0.04024   -0.00222   -0.00041   -0.00259
AFIX  43
H50   2    1.189759   -0.125739    0.276037    11.00000   -1.20000
AFIX   0
C51   1    1.059907   -0.059335    0.255726    11.00000    0.01980    0.02317 =
         0.03859    0.00068   -0.01218    0.00088
C52   1    0.986479   -0.004449    0.270008    11.00000    0.01668    0.02644 =
         0.03718    0.00223   -0.01763   -0.00262
AFIX  43
H52   2    0.930017    0.015380    0.250373    11.00000   -1.20000
AFIX   0
C53   1    1.239206   -0.100849    0.360612    11.00000    0.01970    0.02542 =
         0.05644    0.00235   -0.02368   -0.00196
C54   1    1.234522   -0.072958    0.408492    11.00000    0.06819    0.04517 =
         0.07123   -0.01710   -0.04785    0.01489
AFIX 137
H54A  2    1.238719   -0.025007    0.402145    11.00000   -1.50000
H54B  2    1.290617   -0.100181    0.428306    11.00000   -1.50000
H54C  2    1.171207   -0.075679    0.425934    11.00000   -1.50000
AFIX   0
C55   1    1.249602   -0.178148    0.372337    11.00000    0.03389    0.04051 =
         0.04571   -0.00694   -0.01409    0.00368
AFIX 137
H55A  2    1.261682   -0.198612    0.342143    11.00000   -1.50000
H55B  2    1.187832   -0.186700    0.388624    11.00000   -1.50000
H55C  2    1.305961   -0.198704    0.393764    11.00000   -1.50000
AFIX   0
C56   1    1.333442   -0.088269    0.331817    11.00000    0.01997    0.09392 =
         0.10485    0.02438   -0.01584   -0.01536
AFIX 137
H56A  2    1.338156   -0.105932    0.300684    11.00000   -1.50000
H56B  2    1.392876   -0.111936    0.350544    11.00000   -1.50000
H56C  2    1.329386   -0.038918    0.325860    11.00000   -1.50000
AFIX   0
C57   1    1.051849   -0.082200    0.206481    11.00000    0.03627    0.03455 =
         0.03426   -0.00537   -0.00872    0.00167
C58   1    1.134432   -0.145457    0.197319    11.00000    0.05626    0.04089 =
         0.05627   -0.01892   -0.01619    0.01219
AFIX 137
H58A  2    1.123506   -0.159674    0.166468    11.00000   -1.50000
H58B  2    1.132993   -0.182914    0.223851    11.00000   -1.50000
H58C  2    1.199708   -0.134314    0.195767    11.00000   -1.50000
AFIX   0
C59   1    1.058959   -0.023995    0.166043    11.00000    0.03955    0.05388 =
         0.04724   -0.01565   -0.00253    0.00653
AFIX 137
H59A  2    1.047008   -0.036646    0.134796    11.00000   -1.50000
H59B  2    1.125883   -0.015507    0.165149    11.00000   -1.50000
H59C  2    1.008565    0.017654    0.172141    11.00000   -1.50000
AFIX   0
C60   1    0.949941   -0.099861    0.204528    11.00000    0.05508    0.05568 =
         0.05138   -0.02077   -0.00677   -0.01369
AFIX 137
H60A  2    0.895682   -0.059360    0.208854    11.00000   -1.50000
H60B  2    0.944947   -0.137314    0.230528    11.00000   -1.50000
H60C  2    0.944511   -0.114120    0.172963    11.00000   -1.50000
AFIX   0
C61   1    0.573188    0.466521    0.383239    11.00000    0.02203    0.01881 =
         0.03438    0.00253   -0.01319   -0.00617
C62   1    0.472458    0.479540    0.397325    11.00000    0.02741    0.02271 =
         0.04309   -0.00898   -0.00799   -0.00858
AFIX  43
H62   2    0.438280    0.444185    0.398602    11.00000   -1.20000
AFIX   0
C63   1    0.420094    0.543348    0.409671    11.00000    0.02481    0.02069 =
         0.03208   -0.00168   -0.00903   -0.00457
C64   1    0.472910    0.593251    0.406739    11.00000    0.02230    0.02026 =
         0.04836   -0.00933   -0.00987   -0.00105
AFIX  43
H64   2    0.438617    0.636977    0.414985    11.00000   -1.20000
AFIX   0
C65   1    0.573478    0.583004    0.392388    11.00000    0.02657    0.02206 =
         0.03713    0.00011   -0.01140   -0.00757
C66   1    0.622479    0.517817    0.381563    11.00000    0.01850    0.02380 =
         0.03883   -0.00339   -0.00955   -0.00617
AFIX  43
H66   2    0.691829    0.508592    0.372788    11.00000   -1.20000
AFIX   0
C67   1    0.310700    0.553797    0.426342    11.00000    0.02021    0.03039 =
         0.05087   -0.00920   -0.00729   -0.00936
C68   1    0.251146    0.531752    0.389195    11.00000    0.02202    0.05396 =
         0.07088   -0.02592   -0.00685   -0.00540
AFIX 137
H68A  2    0.255937    0.559242    0.357396    11.00000   -1.50000
H68B  2    0.180734    0.538973    0.400170    11.00000   -1.50000
H68C  2    0.279046    0.483078    0.386488    11.00000   -1.50000
AFIX   0
C69   1    0.304659    0.508904    0.475027    11.00000    0.03104    0.04033 =
         0.06290    0.00035    0.00318   -0.00604
AFIX 137
H69A  2    0.335115    0.460802    0.471433    11.00000   -1.50000
H69B  2    0.234339    0.514053    0.485728    11.00000   -1.50000
H69C  2    0.340640    0.522994    0.499222    11.00000   -1.50000
AFIX   0
C70   1    0.260192    0.628052    0.432211    11.00000    0.03225    0.03551 =
         0.06121   -0.01045   -0.01327   -0.00342
AFIX 137
H70A  2    0.265781    0.657629    0.401404    11.00000   -1.50000
H70B  2    0.292977    0.642199    0.457607    11.00000   -1.50000
H70C  2    0.189334    0.632084    0.441396    11.00000   -1.50000
AFIX   0
C71   1    0.628832    0.640504    0.385037    11.00000    0.02715    0.02581 =
         0.04278   -0.00591   -0.01116   -0.00691
C72   1    0.654571    0.656101    0.329874    11.00000    0.06934    0.04305 =
         0.07505   -0.00150   -0.00983   -0.03518
AFIX 137
H72A  2    0.699815    0.615310    0.318931    11.00000   -1.50000
H72B  2    0.687233    0.694264    0.324326    11.00000   -1.50000
H72C  2    0.592884    0.668556    0.311603    11.00000   -1.50000
AFIX   0
C73   1    0.727297    0.617030    0.411349    11.00000    0.03408    0.03007 =
         0.08162   -0.01519   -0.01457   -0.01172
AFIX 137
H73A  2    0.767063    0.574496    0.400393    11.00000   -1.50000
H73B  2    0.713588    0.608848    0.446469    11.00000   -1.50000
H73C  2    0.764634    0.652632    0.404124    11.00000   -1.50000
AFIX   0
C74   1    0.567676    0.706504    0.401522    11.00000    0.03680    0.02656 =
         0.12342   -0.02235   -0.00033   -0.01365
AFIX 137
H74A  2    0.606424    0.741371    0.395395    11.00000   -1.50000
H74B  2    0.551288    0.698279    0.436381    11.00000   -1.50000
H74C  2    0.505692    0.722626    0.383471    11.00000   -1.50000
AFIX   0
C75   1    0.529739    0.219467    0.317462    11.00000    0.02017    0.02909 =
         0.03612   -0.00288   -0.00915   -0.01000
AFIX  43
H75   2    0.510679    0.249170    0.341535    11.00000   -1.20000
AFIX   0
C76   1    0.456829    0.195874    0.299175    11.00000    0.02241    0.03269 =
         0.03892    0.00136   -0.01496   -0.00857
AFIX  43
H76   2    0.389145    0.208545    0.310569    11.00000   -1.20000
AFIX   0
C77   1    0.484802    0.153059    0.263629    11.00000    0.03891    0.03165 =
         0.04689    0.00308   -0.03303   -0.01383
AFIX  43
H77   2    0.436830    0.135178    0.250433    11.00000   -1.20000
AFIX   0
C78   1    0.583980    0.137054    0.247890    11.00000    0.03423    0.03875 =
         0.05146   -0.02071   -0.01616   -0.00425
AFIX  43
H78   2    0.604908    0.108201    0.223393    11.00000   -1.20000
AFIX   0
C79   1    0.652353    0.163042    0.267812    11.00000    0.02351    0.02661 =
         0.04897   -0.01467   -0.01504    0.00372
AFIX  43
H79   2    0.720069    0.152530    0.256201    11.00000   -1.20000
AFIX   0
C80   1    0.343998    0.277664    0.066429    11.00000    0.02149    0.03424 =
         0.03442    0.00019   -0.01183   -0.00204
C81   1    0.375719    0.227196    0.033681    11.00000    0.02871    0.04269 =
         0.03779   -0.01311    0.00071   -0.00677
AFIX  43
H81   2    0.390706    0.236569   -0.000108    11.00000   -1.20000
AFIX   0
C82   1    0.380525    0.164792    0.058913    11.00000    0.03239    0.03341 =
         0.04382   -0.01774   -0.00666    0.00260
AFIX  43
H82   2    0.399491    0.122300    0.046381    11.00000   -1.20000
AFIX   0
C83   1    0.351523    0.174322    0.108579    11.00000    0.02207    0.03034 =
         0.05172   -0.02196    0.00243   -0.00601
C84   1    0.343227    0.123219    0.146442    11.00000    0.01774    0.02536 =
         0.04471   -0.00966   -0.00562   -0.00258
C85   1    0.295305    0.131900    0.191582    11.00000    0.01741    0.03352 =
         0.03589   -0.01775   -0.00481   -0.00121
C86   1    0.274117    0.078162    0.225178    11.00000    0.02784    0.02124 =
         0.04594   -0.01171   -0.01103   -0.00329
AFIX  43
H86   2    0.294821    0.030703    0.222179    11.00000   -1.20000
AFIX   0
C87   1    0.218843    0.105787    0.262746    11.00000    0.01888    0.03509 =
         0.03818   -0.00735   -0.01259   -0.00420
AFIX  43
H87   2    0.192457    0.081657    0.290401    11.00000   -1.20000
AFIX   0
C88   1    0.208106    0.178339    0.252542    11.00000    0.02147    0.02568 =
         0.02618   -0.00367   -0.00765   -0.00386
C89   1    0.146173    0.229379    0.280500    11.00000    0.01788    0.02514 =
         0.03482   -0.01114   -0.00625   -0.01071
C90   1    0.115196    0.211036    0.329243    11.00000    0.02083    0.03252 =
         0.02588   -0.00640   -0.00463   -0.00950
C91   1    0.163677    0.149070    0.359165    11.00000    0.02975    0.02814 =
         0.03134   -0.00378   -0.00807   -0.00781
AFIX  43
H91   2    0.225513    0.122504    0.347810    11.00000   -1.20000
AFIX   0
C92   1    0.125016    0.126867    0.402899    11.00000    0.04304    0.03747 =
         0.03962   -0.00185   -0.02194   -0.01537
AFIX  43
H92   2    0.157317    0.084017    0.420507    11.00000   -1.20000
AFIX   0
C93   1    0.034110    0.168571    0.422913    11.00000    0.04257    0.04908 =
         0.03653   -0.01570   -0.00294   -0.02429
C94   1   -0.007058    0.143381    0.467770    11.00000    0.04660    0.06100 =
         0.04624    0.00107   -0.01105   -0.02139
AFIX  43
H94   2    0.020775    0.098619    0.483994    11.00000   -1.20000
AFIX   0
C95   1   -0.091334    0.187579    0.487454    11.00000    0.04454    0.08911 =
         0.03392   -0.02034    0.01728   -0.03352
AFIX  43
H95   2   -0.122694    0.171085    0.516660    11.00000   -1.20000
AFIX   0
C96   1   -0.128695    0.252437    0.466115    11.00000    0.03049    0.06902 =
         0.05394   -0.02257   -0.00297   -0.01697
AFIX  43
H96   2   -0.183144    0.281375    0.481447    11.00000   -1.20000
AFIX   0
C97   1   -0.087665    0.278129    0.420933    11.00000    0.02840    0.05701 =
         0.03338   -0.01093    0.00062   -0.02246
C98   1   -0.006615    0.233553    0.399000    11.00000    0.02694    0.04921 =
         0.03431   -0.00852   -0.01131   -0.01625
C99   1   -0.125691    0.344359    0.398006    11.00000    0.01919    0.06127 =
         0.04372   -0.02403    0.00073   -0.01270
AFIX  43
H99   2   -0.177388    0.374813    0.413788    11.00000   -1.20000
AFIX   0
C100  1   -0.089968    0.366376    0.353169    11.00000    0.02110    0.04335 =
         0.03922   -0.01422   -0.00420   -0.00643
AFIX  43
H100  2   -0.117904    0.411544    0.337650    11.00000   -1.20000
AFIX   0
C101  1   -0.010730    0.321782    0.329470    11.00000    0.01314    0.03691 =
         0.03902   -0.01982   -0.00209   -0.00724
C102  1    0.031599    0.256567    0.352389    11.00000    0.02441    0.03749 =
         0.04528   -0.01994   -0.00569   -0.01011
C103  1    0.027211    0.344586    0.282250    11.00000    0.00928    0.02920 =
         0.03469   -0.01471   -0.00115   -0.00645
C104  1    0.105046    0.297135    0.258829    11.00000    0.00849    0.02645 =
         0.04287   -0.01019   -0.00186   -0.00863
C105  1    0.004867    0.404682    0.251518    11.00000    0.01523    0.02755 =
         0.04105   -0.01608   -0.00627    0.00112
AFIX  43
H105  2   -0.045121    0.444632    0.257200    11.00000   -1.20000
AFIX   0
C106  1    0.068560    0.397637    0.209730    11.00000    0.01698    0.02439 =
         0.02816   -0.00441   -0.00469   -0.00531
C107  1    0.075732    0.449520    0.171718    11.00000    0.02279    0.02247 =
         0.03616   -0.00332   -0.01255   -0.00168
C108  1    0.140797    0.442629    0.130727    11.00000    0.02262    0.03932 =
         0.04345   -0.01195   -0.00676   -0.00745
C109  1    0.157222    0.497148    0.095698    11.00000    0.02813    0.02471 =
         0.05568   -0.00993   -0.01076   -0.00090
AFIX  43
H109  2    0.122496    0.544095    0.094114    11.00000   -1.20000
AFIX   0
C110  1    0.233362    0.469433    0.064094    11.00000    0.02664    0.04384 =
         0.03311   -0.00534   -0.00233   -0.00618
C111  1    0.286044    0.498448    0.024494    11.00000    0.03230    0.02635 =
         0.03590   -0.00096   -0.01024   -0.00254
C112  1    0.266762    0.568957    0.009188    11.00000    0.03552    0.04237 =
         0.04491   -0.00424    0.00035   -0.00465
AFIX  43
H112  2    0.214583    0.598829    0.025146    11.00000   -1.20000
AFIX   0
C113  1    0.321166    0.596573   -0.028400    11.00000    0.04236    0.04211 =
         0.03795   -0.00374   -0.00810   -0.00548
AFIX  43
H113  2    0.306253    0.644793   -0.038143    11.00000   -1.20000
AFIX   0
C114  1    0.400226    0.552255   -0.052681    11.00000    0.03287    0.03515 =
         0.04468    0.00478   -0.01284   -0.00964
C115  1    0.457170    0.580369   -0.090849    11.00000    0.04692    0.04111 =
         0.04165    0.00164   -0.01120   -0.01037
AFIX  43
H115  2    0.441921    0.628490   -0.101064    11.00000   -1.20000
AFIX   0
C116  1    0.535473    0.537145   -0.113263    11.00000    0.04034    0.05589 =
         0.04133    0.00639   -0.00580   -0.01132
AFIX  43
H116  2    0.572899    0.555936   -0.139320    11.00000   -1.20000
AFIX   0
C117  1    0.559618    0.467806   -0.098390    11.00000    0.02788    0.04360 =
         0.04073   -0.00150   -0.00679   -0.00857
AFIX  43
H117  2    0.614764    0.439129   -0.113478    11.00000   -1.20000
AFIX   0
C118  1    0.503087    0.438881   -0.060863    11.00000    0.03027    0.03691 =
         0.03778    0.00364   -0.01160   -0.00561
C119  1    0.421715    0.482293   -0.037562    11.00000    0.02537    0.04235 =
         0.03792   -0.00259   -0.01251   -0.00737
C120  1    0.528819    0.367634   -0.041743    11.00000    0.02863    0.03949 =
         0.04920   -0.01245   -0.00386   -0.00376
AFIX  43
H120  2    0.585692    0.338542   -0.055340    11.00000   -1.20000
AFIX   0
C121  1    0.475819    0.339940   -0.005227    11.00000    0.03194    0.03501 =
         0.03703   -0.00383    0.00425   -0.01220
AFIX  43
H121  2    0.496933    0.292289    0.006278    11.00000   -1.20000
AFIX   0
C122  1    0.387184    0.380984    0.017060    11.00000    0.02791    0.03650 =
         0.03530   -0.00563   -0.01502   -0.00774
C123  1    0.365242    0.453060    0.001626    11.00000    0.02454    0.04149 =
         0.03001    0.00052   -0.00757   -0.00477
C124  1    0.332554    0.350956    0.054875    11.00000    0.01888    0.03958 =
         0.02001   -0.00269   -0.00538   -0.00589
C125  1    0.259086    0.397053    0.079935    11.00000    0.02478    0.04024 =
         0.03500   -0.00781   -0.01322   -0.00513
C126  1    0.390272    0.049417    0.139793    11.00000    0.02848    0.03326 =
         0.05259   -0.01830    0.00306   -0.00593
C127  1    0.358553    0.018288    0.104604    11.00000    0.03097    0.04957 =
         0.04948   -0.02263    0.00639   -0.01131
AFIX  43
H127  2    0.305680    0.043578    0.084088    11.00000   -1.20000
AFIX   0
C128  1    0.404997   -0.051177    0.099277    11.00000    0.03880    0.04796 =
         0.07802   -0.03674    0.02184   -0.01521
C129  1    0.481634   -0.085474    0.130853    11.00000    0.03919    0.05332 =
         0.10791   -0.04508    0.00589   -0.00613
AFIX  43
H129  2    0.512978   -0.132115    0.128185    11.00000   -1.20000
AFIX   0
C130  1    0.514348   -0.055457    0.165669    11.00000    0.03243    0.04314 =
         0.10404   -0.02867   -0.00875   -0.00279
C131  1    0.468703    0.012487    0.169056    11.00000    0.02956    0.03618 =
         0.07759   -0.01902   -0.01662   -0.00225
AFIX  43
H131  2    0.491670    0.034586    0.192092    11.00000   -1.20000
AFIX   0
C132  1    0.370267   -0.081855    0.059502    11.00000    0.05373    0.06416 =
         0.08060   -0.04279    0.02197   -0.03063
C133  1    0.260351   -0.080385    0.067150    11.00000    0.04362    0.10121 =
         0.11031   -0.07621    0.01347   -0.01916
AFIX 137
H13A  2    0.220599   -0.032753    0.061980    11.00000   -1.50000
H13B  2    0.248039   -0.101182    0.100411    11.00000   -1.50000
H13C  2    0.241133   -0.106266    0.044020    11.00000   -1.50000
AFIX   0
C134  1    0.385422   -0.041927    0.009401    11.00000    0.12908    0.12269 =
         0.06956   -0.04995    0.02604   -0.07711
AFIX 137
H13D  2    0.361095   -0.062223   -0.015647    11.00000   -1.50000
H13E  2    0.456828   -0.044095    0.003213    11.00000   -1.50000
H13F  2    0.348036    0.006068    0.008599    11.00000   -1.50000
AFIX   0
C135  1    0.429298   -0.157689    0.058816    11.00000    0.06870    0.08510 =
         0.14144   -0.08147    0.02071   -0.02160
AFIX 137
H13G  2    0.408184   -0.175327    0.031478    11.00000   -1.50000
H13H  2    0.415748   -0.185413    0.089344    11.00000   -1.50000
H13I  2    0.501183   -0.160142    0.055193    11.00000   -1.50000
AFIX   0
C136  1    0.597163   -0.097677    0.199567    11.00000    0.04228    0.02861 =
         0.12095   -0.01453   -0.02230    0.01331
C137  1    0.693833   -0.118514    0.168584    11.00000    0.05236    0.06452 =
         0.14197   -0.01056    0.00051   -0.00801
AFIX 137
H13J  2    0.680634   -0.141573    0.142194    11.00000   -1.50000
H13K  2    0.745881   -0.149784    0.189025    11.00000   -1.50000
H13L  2    0.716504   -0.077446    0.154816    11.00000   -1.50000
AFIX   0
C138  1    0.567414   -0.162268    0.224908    11.00000    0.06784    0.07295 =
         0.11589   -0.00889   -0.00527   -0.00877
AFIX 137
H13M  2    0.552936   -0.188020    0.200419    11.00000   -1.50000
H13N  2    0.507685   -0.149144    0.245835    11.00000   -1.50000
H13O  2    0.622570   -0.191003    0.244698    11.00000   -1.50000
AFIX   0
C139  1    0.617224   -0.059022    0.239128    11.00000    0.09740    0.07521 =
         0.13495   -0.02310   -0.05590   -0.00082
AFIX 137
H13P  2    0.634807   -0.016599    0.224081    11.00000   -1.50000
H13Q  2    0.672739   -0.087822    0.258662    11.00000   -1.50000
H13R  2    0.557017   -0.047806    0.260065    11.00000   -1.50000
AFIX   0
C140  1    0.012545    0.518529    0.178718    11.00000    0.02144    0.03086 =
         0.03580   -0.00576   -0.00821   -0.00660
C141  1    0.033989    0.550331    0.215442    11.00000    0.03738    0.02274 =
         0.05230   -0.00576   -0.01245   -0.00695
AFIX  43
H141  2    0.092116    0.529415    0.233724    11.00000   -1.20000
AFIX   0
C142  1   -0.027028    0.612342    0.226638    11.00000    0.05074    0.03233 =
         0.05555   -0.01207   -0.00841   -0.00923
C143  1   -0.110554    0.641388    0.199211    11.00000    0.04596    0.03369 =
         0.05396   -0.01460   -0.00088   -0.00221
AFIX  43
H143  2   -0.153426    0.683466    0.206373    11.00000   -1.20000
AFIX   0
C144  1   -0.134301    0.611173    0.161336    11.00000    0.02304    0.02889 =
         0.05305   -0.00847   -0.00389   -0.00136
C145  1   -0.071679    0.549749    0.151176    11.00000    0.02364    0.03527 =
         0.05218   -0.01449   -0.01350    0.00123
AFIX  43
H145  2   -0.086178    0.528700    0.125250    11.00000   -1.20000
AFIX   0
C146  1   -0.002993    0.644024    0.269856    11.00000    0.08273    0.03458 =
         0.04453   -0.00767    0.00289   -0.02472
C147  1    0.102063    0.656326    0.262034    11.00000    0.11548    0.07791 =
         0.06856   -0.02733   -0.00464   -0.06409
AFIX 137
H14A  2    0.105556    0.686656    0.231370    11.00000   -1.50000
H14B  2    0.151248    0.612408    0.260747    11.00000   -1.50000
H14C  2    0.116732    0.677800    0.288970    11.00000   -1.50000
AFIX   0
C148  1   -0.007817    0.595530    0.316684    11.00000    0.09624    0.07821 =
         0.05145   -0.02682   -0.00109   -0.02031
AFIX 137
H14D  2    0.038861    0.551013    0.313965    11.00000   -1.50000
H14E  2   -0.076038    0.589426    0.322443    11.00000   -1.50000
H14F  2    0.010611    0.614857    0.343864    11.00000   -1.50000
AFIX   0
C149  1   -0.077746    0.712359    0.275627    11.00000    0.12886    0.05554 =
         0.09946   -0.04658   -0.02271   -0.00044
AFIX 137
H14G  2   -0.076055    0.744939    0.245952    11.00000   -1.50000
H14H  2   -0.059729    0.730876    0.303302    11.00000   -1.50000
H14I  2   -0.145309    0.705008    0.281320    11.00000   -1.50000
AFIX   0
C150  1   -0.229932    0.644531    0.132578    11.00000    0.02809    0.05039 =
         0.07348   -0.00497   -0.01658    0.01496
PART 1
C151  1   -0.313545    0.600768    0.152216    21.00000    0.03046    0.10814 =
         0.06407   -0.02733   -0.00581   -0.00131
AFIX 137
H15A  2   -0.376099    0.621560    0.135206    21.00000   -1.50000
H15B  2   -0.325978    0.601446    0.187238    21.00000   -1.50000
H15C  2   -0.288361    0.553231    0.145900    21.00000   -1.50000
AFIX   0
C152  1   -0.273784    0.715893    0.132479    21.00000    0.08756    0.05695 =
         0.09131   -0.03384   -0.04111    0.03506
AFIX 137
H15D  2   -0.286146    0.725707    0.166048    21.00000   -1.50000
H15E  2   -0.337280    0.728715    0.115657    21.00000   -1.50000
H15F  2   -0.228098    0.742357    0.115663    21.00000   -1.50000
AFIX   0
C153  1   -0.216843    0.631987    0.077728    21.00000    0.04301    0.04437 =
         0.06470   -0.00793   -0.02084   -0.00671
AFIX 137
H15G  2   -0.281329    0.649721    0.061922    21.00000   -1.50000
H15H  2   -0.193202    0.582679    0.076159    21.00000   -1.50000
H15J  2   -0.167867    0.655767    0.061024    21.00000   -1.50000
AFIX   0
PART 2
SAME C151 > C153
C1'   1   -0.312688    0.669405    0.173110   -21.00000    0.03046    0.10814 =
         0.06407   -0.02733   -0.00581   -0.00131
AFIX 137
H1'A  2   -0.294202    0.704602    0.188426   -21.00000   -1.50000
H1'B  2   -0.317036    0.630292    0.197795   -21.00000   -1.50000
H1'C  2   -0.377730    0.688622    0.158039   -21.00000   -1.50000
AFIX   0
C2'   1   -0.209801    0.715015    0.104400   -21.00000    0.08756    0.05695 =
         0.09131   -0.03384   -0.04111    0.03506
AFIX 137
H2'A  2   -0.153653    0.704836    0.080941   -21.00000   -1.50000
H2'B  2   -0.193540    0.741642    0.127857   -21.00000   -1.50000
H2'C  2   -0.269918    0.741604    0.087196   -21.00000   -1.50000
AFIX   0
C3'   1   -0.261621    0.609827    0.101083   -21.00000    0.04301    0.04437 =
         0.06470   -0.00793   -0.02084   -0.00671
AFIX 137
H3'1  2   -0.265698    0.564475    0.117694   -21.00000   -1.50000
H3'2  2   -0.214093    0.604462    0.073292   -21.00000   -1.50000
H3'3  2   -0.327859    0.635590    0.089616   -21.00000   -1.50000
AFIX   0
PART 0
C154  1    0.458626    0.301392    0.188986    11.00000    0.01564    0.02998 =
         0.03420   -0.00342   -0.00328   -0.00680
AFIX  43
H154  2    0.478057    0.266910    0.168303    11.00000   -1.20000
AFIX   0
C155  1    0.531484    0.325625    0.206644    11.00000    0.02227    0.02800 =
         0.04291    0.00948   -0.00897   -0.00764
AFIX  43
H155  2    0.599944    0.307599    0.198285    11.00000   -1.20000
AFIX   0
C156  1    0.505721    0.375532    0.236165    11.00000    0.02661    0.03622 =
         0.04558    0.00287   -0.01613   -0.01512
AFIX  43
H156  2    0.555168    0.393269    0.248226    11.00000   -1.20000
AFIX   0
C157  1    0.405526    0.399325    0.247885    11.00000    0.03504    0.03818 =
         0.03859   -0.00907   -0.00546   -0.01609
AFIX  43
H157  2    0.384581    0.433539    0.268709    11.00000   -1.20000
AFIX   0
C158  1    0.336367    0.372971    0.229094    11.00000    0.01729    0.03485 =
         0.04011   -0.00651   -0.00242   -0.00877
AFIX  43
H158  2    0.267481    0.389858    0.237212    11.00000   -1.20000
AFIX   0
C159  1    0.188932    0.857080    0.863758    11.00000    0.07135    0.09255 =
         0.11037   -0.02161   -0.04572   -0.01558
AFIX  43
H159  2    0.125730    0.861942    0.850293    11.00000   -1.20000
AFIX   0
C160  1    0.245427    0.792326    0.882424    11.00000    0.07105    0.07214 =
         0.08688   -0.02250   -0.02295   -0.03409
AFIX  43
H160  2    0.219717    0.753075    0.882963    11.00000   -1.20000
AFIX   0
C161  1    0.339797    0.785406    0.900295    11.00000    0.04826    0.05091 =
         0.07470   -0.01191   -0.00357    0.00165
AFIX  43
H161  2    0.378498    0.741122    0.912611    11.00000   -1.20000
AFIX   0
C162  1    0.378248    0.842462    0.900372    11.00000    0.03452    0.08715 =
         0.04864   -0.00879   -0.00324   -0.01339
AFIX  43
H162  2    0.443119    0.837311    0.912088    11.00000   -1.20000
AFIX   0
C163  1    0.319914    0.907214    0.882970    11.00000    0.08130    0.07238 =
         0.07203   -0.01417   -0.01671   -0.03323
AFIX  43
H163  2    0.344715    0.946627    0.883413    11.00000   -1.20000
AFIX   0
C164  1    0.225527    0.914680    0.864923    11.00000    0.09461    0.08031 =
         0.11321   -0.01186   -0.04957   -0.01284
AFIX  43
H164  2    0.186086    0.959081    0.853401    11.00000   -1.20000
AFIX   0
SAME C159 > C164
C165  1    0.576297    0.344761    0.812368    11.00000    0.06772    0.06230 =
         0.05445   -0.00079   -0.00688   -0.01136
AFIX  43
H165  2    0.562059    0.347796    0.845942    11.00000   -1.20000
AFIX   0
C166  1    0.617109    0.282432    0.797339    11.00000    0.06681    0.05794 =
         0.07186   -0.00513   -0.02249   -0.00574
AFIX  43
H166  2    0.631938    0.242004    0.820402    11.00000   -1.20000
AFIX   0
C167  1    0.636451    0.278691    0.748836    11.00000    0.06454    0.06277 =
         0.06072   -0.01479   -0.02068    0.01387
AFIX  43
H167  2    0.663948    0.235233    0.738447    11.00000   -1.20000
AFIX   0
C168  1    0.616840    0.336689    0.714777    11.00000    0.05132    0.08189 =
         0.05193   -0.00995   -0.00556    0.00797
AFIX  43
H168  2    0.631790    0.333354    0.681285    11.00000   -1.20000
AFIX   0
C169  1    0.575146    0.399875    0.729813    11.00000    0.05266    0.05190 =
         0.07936   -0.00013   -0.01073   -0.00404
AFIX  43
H169  2    0.560076    0.440318    0.706773    11.00000   -1.20000
AFIX   0
C170  1    0.555856    0.403210    0.778656    11.00000    0.07465    0.07218 =
         0.07920   -0.02297    0.00187   -0.00983
AFIX  43
H170  2    0.528025    0.446456    0.789306    11.00000   -1.20000
AFIX   0
SAME C159 > C164
C171  1    0.679273    0.670765    0.629428    11.00000    0.02862    0.06170 =
         0.03679   -0.00885   -0.00504   -0.00886
AFIX  43
H171  2    0.641743    0.670378    0.659343    11.00000   -1.20000
AFIX   0
C172  1    0.629951    0.687506    0.586805    11.00000    0.02700    0.03734 =
         0.04339   -0.01710   -0.00812   -0.00492
AFIX  43
H172  2    0.558828    0.700024    0.587065    11.00000   -1.20000
AFIX   0
C173  1    0.683416    0.686122    0.543987    11.00000    0.04361    0.06427 =
         0.04435   -0.01310   -0.01740    0.01439
AFIX  43
H173  2    0.650100    0.696500    0.514032    11.00000   -1.20000
AFIX   0
C174  1    0.787160    0.669395    0.544469    11.00000    0.03887    0.08468 =
         0.04848    0.01258   -0.00490   -0.00019
AFIX  43
H174  2    0.824561    0.668460    0.514521    11.00000   -1.20000
AFIX   0
C175  1    0.837439    0.654021    0.587674    11.00000    0.02111    0.06060 =
         0.07058   -0.02560   -0.00512   -0.01755
AFIX  43
H175  2    0.908493    0.643465    0.587821    11.00000   -1.20000
AFIX   0
C176  1    0.781348    0.654560    0.630045    11.00000    0.02786    0.08028 =
         0.04603   -0.02200   -0.01769   -0.00621
AFIX  43
H176  2    0.813722    0.643539    0.660269    11.00000   -1.20000
AFIX   0
SAME C159 > C164
C177  1    0.803844    0.784963    0.418693    11.00000    0.04365    0.05107 =
         0.07290   -0.01897   -0.00337   -0.02009
AFIX  43
H177  2    0.756412    0.765840    0.438707    11.00000   -1.20000
AFIX   0
C178  1    0.775252    0.827812    0.376019    11.00000    0.04157    0.05411 =
         0.05181   -0.01756   -0.00182   -0.01728
AFIX  43
H178  2    0.708226    0.837123    0.365937    11.00000   -1.20000
AFIX   0
C179  1    0.843432    0.857021    0.348094    11.00000    0.05048    0.04567 =
         0.06407   -0.02023   -0.00033   -0.01192
AFIX  43
H179  2    0.822807    0.887781    0.319336    11.00000   -1.20000
AFIX   0
C180  1    0.940387    0.842164    0.361370    11.00000    0.05623    0.06355 =
         0.05369   -0.01315    0.00898   -0.03529
AFIX  43
H180  2    0.987612    0.861829    0.341613    11.00000   -1.20000
AFIX   0
C181  1    0.969945    0.798518    0.403551    11.00000    0.03769    0.08205 =
         0.07221   -0.00359   -0.01762   -0.02202
AFIX  43
H181  2    1.037536    0.787953    0.413033    11.00000   -1.20000
AFIX   0
C182  1    0.901032    0.770460    0.431727    11.00000    0.05355    0.05360 =
         0.08653    0.01292   -0.01485   -0.01988
AFIX  43
H182  2    0.921422    0.740413    0.460816    11.00000   -1.20000
AFIX   0
C183  1    1.018333    0.560969    0.509472    11.00000    0.02860    0.10316 =
         0.08102   -0.03991    0.00610    0.00470
AFIX  43
H183  2    1.031183    0.602762    0.515278    11.00000   -1.20000
AFIX   0
C184  1    0.987828    0.554844    0.463367    11.00000    0.04555    0.08760 =
         0.06343   -0.01769    0.00242    0.00793
AFIX  43
H184  2    0.978983    0.593120    0.438410    11.00000   -1.20000
AFIX   0
C185  1    0.970628    0.494122    0.453941    11.00000    0.03917    0.09737 =
         0.07476   -0.02496   -0.00655    0.01647
AFIX  43
H185  2    0.951388    0.490320    0.422580    11.00000   -1.20000
AFIX   0
SAME C159 > C164
C186  1    0.083527    0.693870    0.105506    11.00000    0.08829    0.11068 =
         0.11806   -0.06332    0.01117   -0.03940
AFIX  43
H186  2    0.045912    0.673247    0.130554    11.00000   -1.20000
AFIX   0
C187  1    0.050323    0.710126    0.058469    11.00000    0.06800    0.11851 =
         0.13363   -0.05591   -0.00381   -0.02495
AFIX  43
H187  2   -0.008153    0.697852    0.050770    11.00000   -1.20000
AFIX   0
C188  1    0.101620    0.744274    0.022272    11.00000    0.09233    0.09947 =
         0.10683   -0.02499   -0.04074   -0.00593
AFIX  43
H188  2    0.075735    0.758086   -0.009411    11.00000   -1.20000
AFIX   0
C189  1    0.188758    0.757767    0.032408    11.00000    0.08463    0.08195 =
         0.09557   -0.04068   -0.00188   -0.01460
AFIX  43
H189  2    0.226332    0.778758    0.007543    11.00000   -1.20000
AFIX   0
C190  1    0.222406    0.740397    0.079829    11.00000    0.05580    0.07099 =
         0.10955   -0.05149    0.00516   -0.01095
AFIX  43
H190  2    0.281931    0.751254    0.087620    11.00000   -1.20000
AFIX   0
C191  1    0.169954    0.707644    0.115395    11.00000    0.07513    0.07033 =
         0.07561   -0.03060    0.01247   -0.02277
AFIX  43
H191  2    0.194921    0.694582    0.147290    11.00000   -1.20000
AFIX   0
SAME C159 > C164
C192  1   -0.042878    0.950675    0.031895    10.50000    0.20773    0.20827 =
         0.20769   -0.02897   -0.00695   -0.05116
AFIX  43
H192  2   -0.014379    0.981522    0.045223    10.50000   -1.20000
AFIX   0
C193  1   -0.008385    0.930565   -0.011870    10.50000    0.12109    0.12101 =
         0.12112   -0.01725   -0.00441   -0.02930
AFIX  43
H193  2    0.048954    0.941177   -0.028965    10.50000   -1.20000
AFIX   0
C194  1   -0.066733    0.892626   -0.028775    10.50000    0.12909    0.12890 =
         0.12910   -0.01802   -0.00401   -0.03166
AFIX  43
H194  2   -0.045093    0.875854   -0.058736    10.50000   -1.20000
AFIX   0
C195  1   -0.152714    0.876571   -0.006872    10.50000    0.11182    0.11161 =
         0.11171   -0.01588   -0.00373   -0.02721
AFIX  43
H195  2   -0.193324    0.856706   -0.023584    10.50000   -1.20000
AFIX   0
C196  1   -0.177324    0.890492    0.040189    10.50000    0.20675    0.20666 =
         0.20663   -0.02893   -0.00660   -0.05065
AFIX  43
H196  2   -0.230102    0.876427    0.059363    10.50000   -1.20000
AFIX   0
C197  1   -0.117568    0.926731    0.056293    10.50000    0.24347    0.24358 =
         0.24339   -0.03424   -0.00815   -0.05985
AFIX  43
H197  2   -0.130523    0.936147    0.088825    10.50000   -1.20000
AFIX   0
N1    3    0.720631    0.338982    0.301697    11.00000    0.02383    0.01294 =
         0.03819    0.00151   -0.01263   -0.00755
N2    3    0.654603    0.271995    0.396801    11.00000    0.01957    0.01504 =
         0.03427   -0.00233   -0.01089   -0.00316
N3    3    0.793126    0.144006    0.379737    11.00000    0.02639    0.01990 =
         0.03039   -0.00245   -0.01213   -0.00398
N4    3    0.854836    0.208476    0.287198    11.00000    0.01419    0.01854 =
         0.03569    0.00010   -0.00493   -0.00522
N5    3    0.626285    0.202584    0.302969    11.00000    0.02104    0.01586 =
         0.03776   -0.00257   -0.00889   -0.00635
N6    3    0.328247    0.244232    0.110830    11.00000    0.02267    0.03216 =
         0.02144   -0.00704   -0.00050   -0.00633
N7    3    0.253800    0.194593    0.208852    11.00000    0.01484    0.02791 =
         0.03294   -0.00919   -0.01049    0.00103
N8    3    0.128572    0.330275    0.214855    11.00000    0.00512    0.02526 =
         0.03857   -0.01612    0.00409   -0.00132
N9    3    0.203621    0.381078    0.120473    11.00000    0.02221    0.03379 =
         0.03224   -0.00619   -0.00115   -0.00619
N10   3    0.361960    0.324576    0.199874    11.00000    0.01783    0.02457 =
         0.02980   -0.00247   -0.00816   -0.01099
ZN1   4    0.737583    0.236939    0.336081    11.00000    0.01946    0.01911 =
         0.03855   -0.00679   -0.01082   -0.00309
ZN2   4    0.247528    0.290946    0.168764    11.00000    0.01623    0.03078 =
         0.03358   -0.01144   -0.00369   -0.00372
HKLF 4 1 1 0 0 0 1 0 0 0 1

REM  cu_SDiev1_0m in P-1
REM R1 =  0.0843 for   10989 Fo > 4sig(Fo)  and  0.2037 for all   24937 data
REM   1919 parameters refined using    282 restraints

END

WGHT      0.0857      0.0000

REM Highest difference peak  0.764,  deepest hole -0.543,  1-sigma level  0.081
Q1    1  -0.0614  1.0001  0.0341  11.00000  0.05    0.67
Q2    1   0.2271  0.3398  0.1538  11.00000  0.05    0.65
Q3    1  -0.0304  0.9069  0.0194  11.00000  0.05    0.56
Q4    1   0.7428  0.1911  0.3635  11.00000  0.05    0.50
Q5    1   0.7074  0.2953  0.3199  11.00000  0.05    0.49
Q6    1   0.6696  0.2899  0.3264  11.00000  0.05    0.47
Q7    1   0.6715  0.2129  0.3406  11.00000  0.05    0.47
Q8    1   0.1796  0.2723  0.1745  11.00000  0.05    0.47
Q9    1   0.8017  0.2662  0.3307  11.00000  0.05    0.47
Q10   1   0.3232  0.3054  0.1622  11.00000  0.05    0.46
;
_shelx_res_checksum              79664
loop_
_space_group_symop_operation_xyz
'x, y, z'
'-x, -y, -z'
loop_
_atom_site_type_symbol
_atom_site_label
_atom_site_fract_x
_atom_site_fract_y
_atom_site_fract_z
_atom_site_U_iso_or_equiv
_atom_site_adp_type
_atom_site_calc_flag
_atom_site_refinement_flags_adp
_atom_site_refinement_flags_occupancy
_atom_site_refinement_flags_posn
_atom_site_occupancy
_atom_site_disorder_assembly
_atom_site_disorder_group
C C1 0.7595(4) 0.3607(3) 0.2580(2) 0.0242(15) Uani d . . . 1.0 . .
C C2 0.7344(4) 0.4338(3) 0.2500(3) 0.0300(17) Uani d . . . 1.0 . .
H H2 0.754 0.462 0.2226 0.036 Uiso calc U . R 1.0 . .
C C3 0.6767(4) 0.4557(3) 0.2892(3) 0.0298(17) Uani d . . . 1.0 . .
H H3 0.6471 0.502 0.2935 0.036 Uiso calc U . R 1.0 . .
C C4 0.6692(4) 0.3973(3) 0.3219(3) 0.0281(17) Uani d . . . 1.0 . .
C C5 0.6241(4) 0.3975(3) 0.3692(3) 0.0242(16) Uani d . . . 1.0 . .
C C6 0.6242(4) 0.3408(3) 0.4043(2) 0.0241(15) Uani d . . . 1.0 . .
C C7 0.5986(4) 0.3428(3) 0.4542(2) 0.0258(16) Uani d . . . 1.0 . .
H H7 0.5764 0.3831 0.4693 0.031 Uiso calc U . R 1.0 . .
C C8 0.6109(4) 0.2775(3) 0.4767(3) 0.0281(16) Uani d . . . 1.0 . .
H H8 0.5999 0.2635 0.5104 0.034 Uiso calc U . R 1.0 . .
C C9 0.6441(4) 0.2334(3) 0.4399(3) 0.0251(16) Uani d . . . 1.0 . .
C C10 0.6649(4) 0.1586(3) 0.4470(2) 0.0206(14) Uani d . . . 1.0 . .
C C11 0.6149(4) 0.1212(3) 0.4831(2) 0.0250(16) Uani d . . . 1.0 . .
C C12 0.5264(4) 0.1547(3) 0.5087(2) 0.0256(16) Uani d . . . 1.0 . .
H H12 0.4999 0.2027 0.5001 0.031 Uiso calc U . R 1.0 . .
C C13 0.4795(4) 0.1202(3) 0.5447(2) 0.0278(16) Uani d . . . 1.0 . .
H H13 0.4226 0.1453 0.561 0.033 Uiso calc U . R 1.0 . .
C C14 0.5118(4) 0.0480(3) 0.5593(2) 0.0245(15) Uani d . . . 1.0 . .
C C15 0.4650(5) 0.0123(3) 0.5951(2) 0.0317(17) Uani d . . . 1.0 . .
H H15 0.4095 0.0368 0.6126 0.038 Uiso calc U . R 1.0 . .
C C16 0.4953(5) -0.0579(3) 0.6066(3) 0.0330(17) Uani d . . . 1.0 . .
H H16 0.4616 -0.0813 0.6319 0.04 Uiso calc U . R 1.0 . .
C C17 0.5758(5) -0.0943(3) 0.5808(3) 0.0324(17) Uani d . . . 1.0 . .
H H17 0.5966 -0.1428 0.5885 0.039 Uiso calc U . R 1.0 . .
C C18 0.6266(4) -0.0607(3) 0.5438(3) 0.0278(16) Uani d . . . 1.0 . .
C C19 0.5943(4) 0.0121(3) 0.5321(2) 0.0252(15) Uani d . . . 1.0 . .
C C20 0.7078(4) -0.0968(3) 0.5157(3) 0.0294(16) Uani d . . . 1.0 . .
H H20 0.7288 -0.1454 0.5222 0.035 Uiso calc U . R 1.0 . .
C C21 0.7548(4) -0.0627(3) 0.4800(2) 0.0272(16) Uani d . . . 1.0 . .
H H21 0.8088 -0.0881 0.4622 0.033 Uiso calc U . R 1.0 . .
C C22 0.7266(4) 0.0098(3) 0.4681(2) 0.0263(16) Uani d . . . 1.0 . .
C C23 0.6451(4) 0.0474(3) 0.4945(2) 0.0243(15) Uani d . . . 1.0 . .
C C24 0.7738(4) 0.0461(3) 0.4302(3) 0.0279(17) Uani d . . . 1.0 . .
C C25 0.7422(4) 0.1192(3) 0.4184(2) 0.0250(16) Uani d . . . 1.0 . .
C C26 0.8596(4) 0.0854(3) 0.3657(2) 0.0245(16) Uani d . . . 1.0 . .
C C27 0.8496(4) 0.0264(3) 0.3962(2) 0.0264(16) Uani d . . . 1.0 . .
H H27 0.8877 -0.0191 0.3941 0.032 Uiso calc U . R 1.0 . .
C C28 0.9217(4) 0.0873(3) 0.3229(3) 0.0256(16) Uani d . . . 1.0 . .
C C29 0.9201(4) 0.1440(3) 0.2877(3) 0.0254(16) Uani d . . . 1.0 . .
C C30 0.9806(4) 0.1443(3) 0.2441(2) 0.0279(17) Uani d . . . 1.0 . .
H H30 1.0326 0.1071 0.2355 0.033 Uiso calc U . R 1.0 . .
C C31 0.9513(4) 0.2073(3) 0.2166(3) 0.0256(16) Uani d . . . 1.0 . .
C C32 0.9840(4) 0.2364(3) 0.1713(3) 0.0325(18) Uani d . . . 1.0 . .
C C33 1.0667(5) 0.2005(3) 0.1440(3) 0.0338(17) Uani d . . . 1.0 . .
H H33 1.1002 0.155 0.1567 0.041 Uiso calc U . R 1.0 . .
C C34 1.0986(5) 0.2288(4) 0.1011(3) 0.0409(19) Uani d . . . 1.0 . .
H H34 1.1545 0.2036 0.0842 0.049 Uiso calc U . R 1.0 . .
C C35 1.0493(5) 0.2964(4) 0.0808(3) 0.0374(18) Uani d . . . 1.0 . .
C C36 1.0812(6) 0.3293(4) 0.0363(3) 0.046(2) Uani d . . . 1.0 . .
H H36 1.1391 0.3064 0.0195 0.055 Uiso calc U . R 1.0 . .
C C37 1.0300(6) 0.3937(4) 0.0170(3) 0.051(2) Uani d . . . 1.0 . .
H H37 1.0542 0.4152 -0.0125 0.062 Uiso calc U . R 1.0 . .
C C38 0.9433(6) 0.4279(4) 0.0396(3) 0.046(2) Uani d . . . 1.0 . .
H H38 0.9073 0.4719 0.0252 0.055 Uiso calc U . R 1.0 . .
C C39 0.9095(5) 0.3972(3) 0.0837(3) 0.0369(18) Uani d . . . 1.0 . .
C C40 0.9615(5) 0.3324(3) 0.1053(3) 0.0322(17) Uani d . . . 1.0 . .
C C41 0.8157(5) 0.4275(3) 0.1068(3) 0.0390(19) Uani d . . . 1.0 . .
H H41 0.773 0.468 0.0908 0.047 Uiso calc U . R 1.0 . .
C C42 0.7877(5) 0.3996(3) 0.1507(3) 0.0354(18) Uani d . . . 1.0 . .
H H42 0.7251 0.4211 0.1645 0.043 Uiso calc U . R 1.0 . .
C C43 0.8464(5) 0.3396(3) 0.1776(3) 0.0308(17) Uani d . . . 1.0 . .
C C44 0.9306(5) 0.3019(3) 0.1513(3) 0.0292(16) Uani d . . . 1.0 . .
C C45 0.8226(4) 0.3153(3) 0.2266(3) 0.0274(16) Uani d . . . 1.0 . .
C C46 0.8713(4) 0.2468(3) 0.2449(3) 0.0263(16) Uani d . . . 1.0 . .
C C47 0.9942(4) 0.0221(3) 0.3128(2) 0.0254(16) Uani d . . . 1.0 . .
C C48 1.0742(4) -0.0104(3) 0.3430(2) 0.0242(15) Uani d . . . 1.0 . .
H H48 1.0783 0.0058 0.3728 0.029 Uiso calc U . R 1.0 . .
C C49 1.1480(4) -0.0659(3) 0.3301(2) 0.0250(15) Uani d . . . 1.0 . .
C C50 1.1390(4) -0.0886(3) 0.2857(2) 0.0292(16) Uani d . . . 1.0 . .
H H50 1.1898 -0.1257 0.276 0.035 Uiso calc U . R 1.0 . .
C C51 1.0599(4) -0.0593(3) 0.2557(3) 0.0283(16) Uani d . . . 1.0 . .
C C52 0.9865(4) -0.0044(3) 0.2700(2) 0.0272(16) Uani d . . . 1.0 . .
H H52 0.93 0.0154 0.2504 0.033 Uiso calc U . R 1.0 . .
C C53 1.2392(4) -0.1008(3) 0.3606(3) 0.0343(18) Uani d . . . 1.0 . .
C C54 1.2345(6) -0.0730(4) 0.4085(3) 0.064(3) Uani d . . . 1.0 . .
H H54A 1.2387 -0.025 0.4021 0.095 Uiso calc U . R 1.0 . .
H H54B 1.2906 -0.1002 0.4283 0.095 Uiso calc U . R 1.0 . .
H H54C 1.1712 -0.0757 0.4259 0.095 Uiso calc U . R 1.0 . .
C C55 1.2496(5) -0.1781(3) 0.3723(3) 0.0416(19) Uani d . . . 1.0 . .
H H55A 1.2617 -0.1986 0.3421 0.062 Uiso calc U . R 1.0 . .
H H55B 1.1878 -0.1867 0.3886 0.062 Uiso calc U . R 1.0 . .
H H55C 1.306 -0.1987 0.3938 0.062 Uiso calc U . R 1.0 . .
C C56 1.3334(5) -0.0883(4) 0.3318(4) 0.076(3) Uani d . . . 1.0 . .
H H56A 1.3382 -0.1059 0.3007 0.114 Uiso calc U . R 1.0 . .
H H56B 1.3929 -0.1119 0.3505 0.114 Uiso calc U . R 1.0 . .
H H56C 1.3294 -0.0389 0.3259 0.114 Uiso calc U . R 1.0 . .
C C57 1.0518(5) -0.0822(3) 0.2065(3) 0.0365(18) Uani d . . . 1.0 . .
C C58 1.1344(5) -0.1455(3) 0.1973(3) 0.054(2) Uani d . . . 1.0 . .
H H58A 1.1235 -0.1597 0.1665 0.08 Uiso calc U . R 1.0 . .
H H58B 1.133 -0.1829 0.2239 0.08 Uiso calc U . R 1.0 . .
H H58C 1.1997 -0.1343 0.1958 0.08 Uiso calc U . R 1.0 . .
C C59 1.0590(5) -0.0240(4) 0.1660(3) 0.049(2) Uani d . . . 1.0 . .
H H59A 1.047 -0.0366 0.1348 0.074 Uiso calc U . R 1.0 . .
H H59B 1.1259 -0.0155 0.1651 0.074 Uiso calc U . R 1.0 . .
H H59C 1.0086 0.0177 0.1721 0.074 Uiso calc U . R 1.0 . .
C C60 0.9499(5) -0.0999(4) 0.2045(3) 0.052(2) Uani d . . . 1.0 . .
H H60A 0.8957 -0.0594 0.2089 0.079 Uiso calc U . R 1.0 . .
H H60B 0.9449 -0.1373 0.2305 0.079 Uiso calc U . R 1.0 . .
H H60C 0.9445 -0.1141 0.173 0.079 Uiso calc U . R 1.0 . .
C C61 0.5732(4) 0.4665(3) 0.3832(2) 0.0249(15) Uani d . . . 1.0 . .
C C62 0.4725(4) 0.4795(3) 0.3973(2) 0.0298(17) Uani d . . . 1.0 . .
H H62 0.4383 0.4442 0.3986 0.036 Uiso calc U . R 1.0 . .
C C63 0.4201(4) 0.5433(3) 0.4097(2) 0.0259(15) Uani d . . . 1.0 . .
C C64 0.4729(4) 0.5933(3) 0.4067(2) 0.0302(17) Uani d . . . 1.0 . .
H H64 0.4386 0.637 0.415 0.036 Uiso calc U . R 1.0 . .
C C65 0.5735(4) 0.5830(3) 0.3924(2) 0.0283(16) Uani d . . . 1.0 . .
C C66 0.6225(4) 0.5178(3) 0.3816(2) 0.0266(16) Uani d . . . 1.0 . .
H H66 0.6918 0.5086 0.3728 0.032 Uiso calc U . R 1.0 . .
C C67 0.3107(4) 0.5538(3) 0.4263(3) 0.0326(18) Uani d . . . 1.0 . .
C C68 0.2511(5) 0.5318(3) 0.3892(3) 0.048(2) Uani d . . . 1.0 . .
H H68A 0.2559 0.5592 0.3574 0.071 Uiso calc U . R 1.0 . .
H H68B 0.1807 0.539 0.4002 0.071 Uiso calc U . R 1.0 . .
H H68C 0.279 0.4831 0.3865 0.071 Uiso calc U . R 1.0 . .
C C69 0.3047(5) 0.5089(3) 0.4750(3) 0.046(2) Uani d . . . 1.0 . .
H H69A 0.3351 0.4608 0.4714 0.069 Uiso calc U . R 1.0 . .
H H69B 0.2343 0.5141 0.4857 0.069 Uiso calc U . R 1.0 . .
H H69C 0.3406 0.523 0.4992 0.069 Uiso calc U . R 1.0 . .
C C70 0.2602(5) 0.6281(3) 0.4322(3) 0.043(2) Uani d . . . 1.0 . .
H H70A 0.2658 0.6576 0.4014 0.064 Uiso calc U . R 1.0 . .
H H70B 0.293 0.6422 0.4576 0.064 Uiso calc U . R 1.0 . .
H H70C 0.1893 0.6321 0.4414 0.064 Uiso calc U . R 1.0 . .
C C71 0.6288(5) 0.6405(3) 0.3850(3) 0.0312(17) Uani d . . . 1.0 . .
C C72 0.6546(6) 0.6561(4) 0.3299(3) 0.059(2) Uani d . . . 1.0 . .
H H72A 0.6998 0.6153 0.3189 0.088 Uiso calc U . R 1.0 . .
H H72B 0.6872 0.6943 0.3243 0.088 Uiso calc U . R 1.0 . .
H H72C 0.5929 0.6686 0.3116 0.088 Uiso calc U . R 1.0 . .
C C73 0.7273(5) 0.6170(3) 0.4113(3) 0.046(2) Uani d . . . 1.0 . .
H H73A 0.7671 0.5745 0.4004 0.07 Uiso calc U . R 1.0 . .
H H73B 0.7136 0.6088 0.4465 0.07 Uiso calc U . R 1.0 . .
H H73C 0.7646 0.6526 0.4041 0.07 Uiso calc U . R 1.0 . .
C C74 0.5677(5) 0.7065(3) 0.4015(3) 0.060(3) Uani d . . . 1.0 . .
H H74A 0.6064 0.7414 0.3954 0.09 Uiso calc U . R 1.0 . .
H H74B 0.5513 0.6983 0.4364 0.09 Uiso calc U . R 1.0 . .
H H74C 0.5057 0.7226 0.3835 0.09 Uiso calc U . R 1.0 . .
C C75 0.5297(4) 0.2195(3) 0.3175(2) 0.0275(16) Uani d . . . 1.0 . .
H H75 0.5107 0.2492 0.3415 0.033 Uiso calc U . R 1.0 . .
C C76 0.4568(5) 0.1959(3) 0.2992(2) 0.0310(17) Uani d . . . 1.0 . .
H H76 0.3891 0.2085 0.3106 0.037 Uiso calc U . R 1.0 . .
C C77 0.4848(5) 0.1531(3) 0.2636(3) 0.0376(19) Uani d . . . 1.0 . .
H H77 0.4368 0.1352 0.2504 0.045 Uiso calc U . R 1.0 . .
C C78 0.5840(5) 0.1371(3) 0.2479(3) 0.040(2) Uani d . . . 1.0 . .
H H78 0.6049 0.1082 0.2234 0.048 Uiso calc U . R 1.0 . .
C C79 0.6524(5) 0.1630(3) 0.2678(3) 0.0331(18) Uani d . . . 1.0 . .
H H79 0.7201 0.1525 0.2562 0.04 Uiso calc U . R 1.0 . .
C C80 0.3440(4) 0.2777(3) 0.0664(3) 0.0309(17) Uani d . . . 1.0 . .
C C81 0.3757(5) 0.2272(3) 0.0337(3) 0.0360(18) Uani d . . . 1.0 . .
H H81 0.3907 0.2366 -0.0001 0.043 Uiso calc U . R 1.0 . .
C C82 0.3805(5) 0.1648(3) 0.0589(3) 0.0369(19) Uani d . . . 1.0 . .
H H82 0.3995 0.1223 0.0464 0.044 Uiso calc U . R 1.0 . .
C C83 0.3515(4) 0.1743(3) 0.1086(3) 0.0332(18) Uani d . . . 1.0 . .
C C84 0.3432(4) 0.1232(3) 0.1464(3) 0.0290(17) Uani d . . . 1.0 . .
C C85 0.2953(4) 0.1319(3) 0.1916(3) 0.0283(17) Uani d . . . 1.0 . .
C C86 0.2741(4) 0.0782(3) 0.2252(3) 0.0309(17) Uani d . . . 1.0 . .
H H86 0.2948 0.0307 0.2222 0.037 Uiso calc U . R 1.0 . .
C C87 0.2188(4) 0.1058(3) 0.2627(3) 0.0304(17) Uani d . . . 1.0 . .
H H87 0.1925 0.0817 0.2904 0.036 Uiso calc U . R 1.0 . .
C C88 0.2081(4) 0.1783(3) 0.2525(2) 0.0245(15) Uani d . . . 1.0 . .
C C89 0.1462(4) 0.2294(3) 0.2805(2) 0.0239(16) Uani d . . . 1.0 . .
C C90 0.1152(4) 0.2110(3) 0.3292(2) 0.0254(15) Uani d . . . 1.0 . .
C C91 0.1637(5) 0.1491(3) 0.3592(3) 0.0293(16) Uani d . . . 1.0 . .
H H91 0.2255 0.1225 0.3478 0.035 Uiso calc U . R 1.0 . .
C C92 0.1250(5) 0.1269(3) 0.4029(3) 0.0384(19) Uani d . . . 1.0 . .
H H92 0.1573 0.084 0.4205 0.046 Uiso calc U . R 1.0 . .
C C93 0.0341(5) 0.1686(4) 0.4229(3) 0.0392(19) Uani d . . . 1.0 . .
C C94 -0.0071(6) 0.1434(4) 0.4678(3) 0.050(2) Uani d . . . 1.0 . .
H H94 0.0208 0.0986 0.484 0.06 Uiso calc U . R 1.0 . .
C C95 -0.0913(6) 0.1876(5) 0.4875(3) 0.052(2) Uani d . . . 1.0 . .
H H95 -0.1227 0.1711 0.5167 0.063 Uiso calc U . R 1.0 . .
C C96 -0.1287(5) 0.2524(4) 0.4661(3) 0.049(2) Uani d . . . 1.0 . .
H H96 -0.1831 0.2814 0.4814 0.058 Uiso calc U . R 1.0 . .
C C97 -0.0877(5) 0.2781(4) 0.4209(3) 0.0370(18) Uani d . . . 1.0 . .
C C98 -0.0066(5) 0.2336(4) 0.3990(3) 0.0348(18) Uani d . . . 1.0 . .
C C99 -0.1257(5) 0.3444(4) 0.3980(3) 0.039(2) Uani d . . . 1.0 . .
H H99 -0.1774 0.3748 0.4138 0.047 Uiso calc U . R 1.0 . .
C C100 -0.0900(4) 0.3664(3) 0.3532(3) 0.0338(18) Uani d . . . 1.0 . .
H H100 -0.1179 0.4115 0.3376 0.041 Uiso calc U . R 1.0 . .
C C101 -0.0107(4) 0.3218(3) 0.3295(3) 0.0279(17) Uani d . . . 1.0 . .
C C102 0.0316(5) 0.2566(3) 0.3524(3) 0.0335(18) Uani d . . . 1.0 . .
C C103 0.0272(4) 0.3446(3) 0.2823(2) 0.0230(15) Uani d . . . 1.0 . .
C C104 0.1050(4) 0.2971(3) 0.2588(3) 0.0245(16) Uani d . . . 1.0 . .
C C105 0.0049(4) 0.4047(3) 0.2515(2) 0.0276(17) Uani d . . . 1.0 . .
H H105 -0.0451 0.4446 0.2572 0.033 Uiso calc U . R 1.0 . .
C C106 0.0686(4) 0.3976(3) 0.2097(2) 0.0229(15) Uani d . . . 1.0 . .
C C107 0.0757(4) 0.4495(3) 0.1717(3) 0.0274(16) Uani d . . . 1.0 . .
C C108 0.1408(5) 0.4426(3) 0.1307(3) 0.0342(18) Uani d . . . 1.0 . .
C C109 0.1572(5) 0.4971(3) 0.0957(3) 0.0363(19) Uani d . . . 1.0 . .
H H109 0.1225 0.5441 0.0941 0.044 Uiso calc U . R 1.0 . .
C C110 0.2334(5) 0.4694(4) 0.0641(3) 0.0349(18) Uani d . . . 1.0 . .
C C111 0.2860(5) 0.4984(3) 0.0245(3) 0.0323(17) Uani d . . . 1.0 . .
C C112 0.2668(5) 0.5690(4) 0.0092(3) 0.0421(19) Uani d . . . 1.0 . .
H H112 0.2146 0.5988 0.0251 0.051 Uiso calc U . R 1.0 . .
C C113 0.3212(5) 0.5966(4) -0.0284(3) 0.0416(19) Uani d . . . 1.0 . .
H H113 0.3063 0.6448 -0.0381 0.05 Uiso calc U . R 1.0 . .
C C114 0.4002(5) 0.5523(4) -0.0527(3) 0.0379(18) Uani d . . . 1.0 . .
C C115 0.4572(5) 0.5804(4) -0.0908(3) 0.044(2) Uani d . . . 1.0 . .
H H115 0.4419 0.6285 -0.1011 0.052 Uiso calc U . R 1.0 . .
C C116 0.5355(5) 0.5371(4) -0.1133(3) 0.047(2) Uani d . . . 1.0 . .
H H116 0.5729 0.5559 -0.1393 0.057 Uiso calc U . R 1.0 . .
C C117 0.5596(5) 0.4678(4) -0.0984(3) 0.0376(18) Uani d . . . 1.0 . .
H H117 0.6148 0.4391 -0.1135 0.045 Uiso calc U . R 1.0 . .
C C118 0.5031(5) 0.4389(3) -0.0609(3) 0.0359(18) Uani d . . . 1.0 . .
C C119 0.4217(5) 0.4823(3) -0.0376(3) 0.0352(18) Uani d . . . 1.0 . .
C C120 0.5288(5) 0.3676(3) -0.0417(3) 0.0391(19) Uani d . . . 1.0 . .
H H120 0.5857 0.3385 -0.0553 0.047 Uiso calc U . R 1.0 . .
C C121 0.4758(5) 0.3399(3) -0.0052(3) 0.0343(17) Uani d . . . 1.0 . .
H H121 0.4969 0.2923 0.0063 0.041 Uiso calc U . R 1.0 . .
C C122 0.3872(5) 0.3810(3) 0.0171(3) 0.0325(17) Uani d . . . 1.0 . .
C C123 0.3652(5) 0.4531(3) 0.0016(3) 0.0329(17) Uani d . . . 1.0 . .
C C124 0.3326(4) 0.3510(3) 0.0549(2) 0.0263(15) Uani d . . . 1.0 . .
C C125 0.2591(5) 0.3971(3) 0.0799(3) 0.0330(17) Uani d . . . 1.0 . .
C C126 0.3903(5) 0.0494(3) 0.1398(3) 0.0373(19) Uani d . . . 1.0 . .
C C127 0.3586(5) 0.0183(3) 0.1046(3) 0.042(2) Uani d . . . 1.0 . .
H H127 0.3057 0.0436 0.0841 0.05 Uiso calc U . R 1.0 . .
C C128 0.4050(6) -0.0512(4) 0.0993(3) 0.052(2) Uani d . . . 1.0 . .
C C129 0.4816(6) -0.0855(4) 0.1309(3) 0.065(3) Uani d . . . 1.0 . .
H H129 0.513 -0.1321 0.1282 0.077 Uiso calc U . R 1.0 . .
C C130 0.5143(5) -0.0555(4) 0.1657(3) 0.059(3) Uani d . . . 1.0 . .
C C131 0.4687(5) 0.0125(3) 0.1691(3) 0.047(2) Uani d . . . 1.0 . .
H H131 0.4917 0.0346 0.1921 0.056 Uiso calc U . R 1.0 . .
C C132 0.3703(6) -0.0819(4) 0.0595(3) 0.061(3) Uani d . . . 1.0 . .
C C133 0.2604(6) -0.0804(5) 0.0672(3) 0.079(3) Uani d . . . 1.0 . .
H H13A 0.2206 -0.0328 0.062 0.118 Uiso calc U . R 1.0 . .
H H13B 0.248 -0.1012 0.1004 0.118 Uiso calc U . R 1.0 . .
H H13C 0.2411 -0.1063 0.044 0.118 Uiso calc U . R 1.0 . .
C C134 0.3854(8) -0.0419(5) 0.0094(3) 0.096(4) Uani d . . . 1.0 . .
H H13D 0.3611 -0.0622 -0.0156 0.144 Uiso calc U . R 1.0 . .
H H13E 0.4568 -0.0441 0.0032 0.144 Uiso calc U . R 1.0 . .
H H13F 0.348 0.0061 0.0086 0.144 Uiso calc U . R 1.0 . .
C C135 0.4293(6) -0.1577(4) 0.0588(4) 0.092(4) Uani d . . . 1.0 . .
H H13G 0.4082 -0.1753 0.0315 0.138 Uiso calc U . R 1.0 . .
H H13H 0.4157 -0.1854 0.0893 0.138 Uiso calc U . R 1.0 . .
H H13I 0.5012 -0.1601 0.0552 0.138 Uiso calc U . R 1.0 . .
C C136 0.5972(6) -0.0977(4) 0.1996(4) 0.067(3) Uani d . . . 1.0 . .
C C137 0.6938(6) -0.1185(4) 0.1686(4) 0.088(3) Uani d U . . 1.0 . .
H H13J 0.6806 -0.1416 0.1422 0.132 Uiso calc U . R 1.0 . .
H H13K 0.7459 -0.1498 0.189 0.132 Uiso calc U . R 1.0 . .
H H13L 0.7165 -0.0774 0.1548 0.132 Uiso calc U . R 1.0 . .
C C138 0.5674(7) -0.1623(5) 0.2249(4) 0.087(3) Uani d U . . 1.0 . .
H H13M 0.5529 -0.188 0.2004 0.131 Uiso calc U . R 1.0 . .
H H13N 0.5077 -0.1491 0.2458 0.131 Uiso calc U . R 1.0 . .
H H13O 0.6226 -0.191 0.2447 0.131 Uiso calc U . R 1.0 . .
C C139 0.6172(8) -0.0590(5) 0.2391(4) 0.103(4) Uani d U . . 1.0 . .
H H13P 0.6348 -0.0166 0.2241 0.154 Uiso calc U . R 1.0 . .
H H13Q 0.6727 -0.0878 0.2587 0.154 Uiso calc U . R 1.0 . .
H H13R 0.557 -0.0478 0.2601 0.154 Uiso calc U . R 1.0 . .
C C140 0.0125(4) 0.5185(3) 0.1787(2) 0.0289(16) Uani d . . . 1.0 . .
C C141 0.0340(5) 0.5503(3) 0.2154(3) 0.0370(19) Uani d . . . 1.0 . .
H H141 0.0921 0.5294 0.2337 0.044 Uiso calc U . R 1.0 . .
C C142 -0.0270(6) 0.6123(3) 0.2266(3) 0.045(2) Uani d . . . 1.0 . .
C C143 -0.1106(5) 0.6414(3) 0.1992(3) 0.045(2) Uani d . . . 1.0 . .
H H143 -0.1534 0.6835 0.2064 0.054 Uiso calc U . R 1.0 . .
C C144 -0.1343(5) 0.6112(3) 0.1613(3) 0.0355(18) Uani d . . . 1.0 . .
C C145 -0.0717(4) 0.5497(3) 0.1512(3) 0.0371(19) Uani d . . . 1.0 . .
H H145 -0.0862 0.5287 0.1252 0.044 Uiso calc U . R 1.0 . .
C C146 -0.0030(6) 0.6440(4) 0.2699(3) 0.052(2) Uani d . . . 1.0 . .
C C147 0.1021(7) 0.6563(4) 0.2620(3) 0.078(3) Uani d . . . 1.0 . .
H H14A 0.1056 0.6867 0.2314 0.117 Uiso calc U . R 1.0 . .
H H14B 0.1512 0.6124 0.2607 0.117 Uiso calc U . R 1.0 . .
H H14C 0.1167 0.6778 0.289 0.117 Uiso calc U . R 1.0 . .
C C148 -0.0078(7) 0.5955(4) 0.3167(3) 0.074(3) Uani d . . . 1.0 . .
H H14D 0.0389 0.551 0.314 0.11 Uiso calc U . R 1.0 . .
H H14E -0.076 0.5894 0.3224 0.11 Uiso calc U . R 1.0 . .
H H14F 0.0106 0.6149 0.3439 0.11 Uiso calc U . R 1.0 . .
C C149 -0.0777(8) 0.7124(4) 0.2756(4) 0.094(4) Uani d . . . 1.0 . .
H H14G -0.0761 0.7449 0.246 0.141 Uiso calc U . R 1.0 . .
H H14H -0.0597 0.7309 0.3033 0.141 Uiso calc U . R 1.0 . .
H H14I -0.1453 0.705 0.2813 0.141 Uiso calc U . R 1.0 . .
C C150 -0.2299(5) 0.6445(4) 0.1326(3) 0.055(2) Uani d . . . 1.0 . .
C C151 -0.3135(9) 0.6008(8) 0.1522(5) 0.069(4) Uani d . P D 0.586(7) A 1
H H15A -0.3761 0.6216 0.1352 0.103 Uiso calc U P R 0.586(7) A 1
H H15B -0.326 0.6014 0.1872 0.103 Uiso calc U P R 0.586(7) A 1
H H15C -0.2884 0.5532 0.1459 0.103 Uiso calc U P R 0.586(7) A 1
C C152 -0.2738(13) 0.7159(7) 0.1325(7) 0.084(6) Uani d . P D 0.586(7) A 1
H H15D -0.2861 0.7257 0.166 0.126 Uiso calc U P R 0.586(7) A 1
H H15E -0.3373 0.7287 0.1157 0.126 Uiso calc U P R 0.586(7) A 1
H H15F -0.2281 0.7424 0.1157 0.126 Uiso calc U P R 0.586(7) A 1
C C153 -0.2168(10) 0.6320(7) 0.0777(5) 0.050(4) Uani d . P D 0.586(7) A 1
H H15G -0.2813 0.6497 0.0619 0.076 Uiso calc U P R 0.586(7) A 1
H H15H -0.1932 0.5827 0.0762 0.076 Uiso calc U P R 0.586(7) A 1
H H15J -0.1679 0.6558 0.061 0.076 Uiso calc U P R 0.586(7) A 1
C C1' -0.3127(13) 0.6694(12) 0.1731(7) 0.069(4) Uani d . P D 0.414(7) A 2
H H1'A -0.2942 0.7046 0.1884 0.103 Uiso calc U P R 0.414(7) A 2
H H1'B -0.317 0.6303 0.1978 0.103 Uiso calc U P R 0.414(7) A 2
H H1'C -0.3777 0.6886 0.158 0.103 Uiso calc U P R 0.414(7) A 2
C C2' -0.2098(17) 0.7150(10) 0.1044(9) 0.084(6) Uani d . P D 0.414(7) A 2
H H2'A -0.1537 0.7048 0.0809 0.126 Uiso calc U P R 0.414(7) A 2
H H2'B -0.1935 0.7416 0.1279 0.126 Uiso calc U P R 0.414(7) A 2
H H2'C -0.2699 0.7416 0.0872 0.126 Uiso calc U P R 0.414(7) A 2
C C3' -0.2616(15) 0.6098(10) 0.1011(8) 0.050(4) Uani d . P D 0.414(7) A 2
H H3'1 -0.2657 0.5645 0.1177 0.076 Uiso calc U P R 0.414(7) A 2
H H3'2 -0.2141 0.6045 0.0733 0.076 Uiso calc U P R 0.414(7) A 2
H H3'3 -0.3279 0.6356 0.0896 0.076 Uiso calc U P R 0.414(7) A 2
C C154 0.4586(4) 0.3014(3) 0.1890(2) 0.0264(16) Uani d . . . 1.0 . .
H H154 0.4781 0.2669 0.1683 0.032 Uiso calc U . R 1.0 . .
C C155 0.5315(5) 0.3256(3) 0.2066(3) 0.0320(17) Uani d . . . 1.0 . .
H H155 0.5999 0.3076 0.1983 0.038 Uiso calc U . R 1.0 . .
C C156 0.5057(5) 0.3755(3) 0.2362(3) 0.0350(18) Uani d . . . 1.0 . .
H H156 0.5552 0.3933 0.2482 0.042 Uiso calc U . R 1.0 . .
C C157 0.4055(5) 0.3993(3) 0.2479(3) 0.0354(18) Uani d . . . 1.0 . .
H H157 0.3846 0.4335 0.2687 0.042 Uiso calc U . R 1.0 . .
C C158 0.3364(4) 0.3730(3) 0.2291(2) 0.0301(17) Uani d . . . 1.0 . .
H H158 0.2675 0.3899 0.2372 0.036 Uiso calc U . R 1.0 . .
C C159 0.1889(6) 0.8571(4) 0.8638(4) 0.089(3) Uani d U . D 1.0 . .
H H159 0.1257 0.8619 0.8503 0.107 Uiso calc U . R 1.0 . .
C C160 0.2454(5) 0.7923(4) 0.8824(3) 0.071(3) Uani d U . D 1.0 . .
H H160 0.2197 0.7531 0.883 0.086 Uiso calc U . R 1.0 . .
C C161 0.3398(5) 0.7854(3) 0.9003(3) 0.060(2) Uani d U . D 1.0 . .
H H161 0.3785 0.7411 0.9126 0.072 Uiso calc U . R 1.0 . .
C C162 0.3782(5) 0.8425(3) 0.9004(3) 0.057(2) Uani d U . D 1.0 . .
H H162 0.4431 0.8373 0.9121 0.068 Uiso calc U . R 1.0 . .
C C163 0.3199(5) 0.9072(4) 0.8830(3) 0.071(3) Uani d U . D 1.0 . .
H H163 0.3447 0.9466 0.8834 0.086 Uiso calc U . R 1.0 . .
C C164 0.2255(6) 0.9147(4) 0.8649(4) 0.096(3) Uani d U . D 1.0 . .
H H164 0.1861 0.9591 0.8534 0.115 Uiso calc U . R 1.0 . .
C C165 0.5763(6) 0.3448(4) 0.8124(3) 0.063(2) Uani d . . D 1.0 . .
H H165 0.5621 0.3478 0.8459 0.075 Uiso calc U . R 1.0 . .
C C166 0.6171(6) 0.2824(4) 0.7973(3) 0.067(3) Uani d . . D 1.0 . .
H H166 0.6319 0.242 0.8204 0.08 Uiso calc U . R 1.0 . .
C C167 0.6365(6) 0.2787(4) 0.7488(3) 0.066(3) Uani d . . D 1.0 . .
H H167 0.6639 0.2352 0.7384 0.08 Uiso calc U . R 1.0 . .
C C168 0.6168(6) 0.3367(4) 0.7148(3) 0.066(3) Uani d . . D 1.0 . .
H H168 0.6318 0.3334 0.6813 0.079 Uiso calc U . R 1.0 . .
C C169 0.5751(6) 0.3999(4) 0.7298(3) 0.063(3) Uani d . . D 1.0 . .
H H169 0.5601 0.4403 0.7068 0.076 Uiso calc U . R 1.0 . .
C C170 0.5559(7) 0.4032(5) 0.7787(4) 0.076(3) Uani d . . D 1.0 . .
H H170 0.528 0.4465 0.7893 0.091 Uiso calc U . R 1.0 . .
C C171 0.6793(5) 0.6708(3) 0.6294(3) 0.0424(19) Uani d . . D 1.0 . .
H H171 0.6417 0.6704 0.6593 0.051 Uiso calc U . R 1.0 . .
C C172 0.6300(5) 0.6875(3) 0.5868(2) 0.0349(18) Uani d . . D 1.0 . .
H H172 0.5588 0.7 0.5871 0.042 Uiso calc U . R 1.0 . .
C C173 0.6834(5) 0.6861(4) 0.5440(3) 0.054(2) Uani d . . D 1.0 . .
H H173 0.6501 0.6965 0.514 0.065 Uiso calc U . R 1.0 . .
C C174 0.7872(5) 0.6694(4) 0.5445(3) 0.062(2) Uani d . . D 1.0 . .
H H174 0.8246 0.6685 0.5145 0.075 Uiso calc U . R 1.0 . .
C C175 0.8374(5) 0.6540(4) 0.5877(3) 0.047(2) Uani d . . D 1.0 . .
H H175 0.9085 0.6435 0.5878 0.057 Uiso calc U . R 1.0 . .
C C176 0.7813(5) 0.6546(4) 0.6300(3) 0.050(2) Uani d . . D 1.0 . .
H H176 0.8137 0.6435 0.6603 0.061 Uiso calc U . R 1.0 . .
C C177 0.8038(5) 0.7850(4) 0.4187(3) 0.053(2) Uani d . . D 1.0 . .
H H177 0.7564 0.7658 0.4387 0.064 Uiso calc U . R 1.0 . .
C C178 0.7753(5) 0.8278(4) 0.3760(3) 0.047(2) Uani d . . D 1.0 . .
H H178 0.7082 0.8371 0.3659 0.056 Uiso calc U . R 1.0 . .
C C179 0.8434(5) 0.8570(4) 0.3481(3) 0.052(2) Uani d . . D 1.0 . .
H H179 0.8228 0.8878 0.3193 0.063 Uiso calc U . R 1.0 . .
C C180 0.9404(6) 0.8422(4) 0.3614(3) 0.054(2) Uani d . . D 1.0 . .
H H180 0.9876 0.8618 0.3416 0.065 Uiso calc U . R 1.0 . .
C C181 0.9699(6) 0.7985(4) 0.4036(3) 0.063(3) Uani d . . D 1.0 . .
H H181 1.0375 0.788 0.413 0.075 Uiso calc U . R 1.0 . .
C C182 0.9010(6) 0.7705(4) 0.4317(3) 0.065(3) Uani d . . D 1.0 . .
H H182 0.9214 0.7404 0.4608 0.078 Uiso calc U . R 1.0 . .
C C183 1.0183(6) 0.5610(6) 0.5095(4) 0.072(3) Uani d . . . 1.0 . .
H H183 1.0312 0.6028 0.5153 0.087 Uiso calc U . R 1.0 . .
C C184 0.9878(6) 0.5548(5) 0.4634(4) 0.069(3) Uani d . . . 1.0 . .
H H184 0.979 0.5931 0.4384 0.083 Uiso calc U . R 1.0 . .
C C185 0.9706(6) 0.4941(6) 0.4539(4) 0.075(3) Uani d . . . 1.0 . .
H H185 0.9514 0.4903 0.4226 0.09 Uiso calc U . R 1.0 . .
C C186 0.0835(8) 0.6939(5) 0.1055(4) 0.099(4) Uani d . . D 1.0 . .
H H186 0.0459 0.6732 0.1306 0.118 Uiso calc U . R 1.0 . .
C C187 0.0503(8) 0.7101(6) 0.0585(5) 0.102(4) Uani d . . D 1.0 . .
H H187 -0.0082 0.6979 0.0508 0.123 Uiso calc U . R 1.0 . .
C C188 0.1016(9) 0.7443(6) 0.0223(4) 0.100(4) Uani d . . D 1.0 . .
H H188 0.0757 0.7581 -0.0094 0.12 Uiso calc U . R 1.0 . .
C C189 0.1888(8) 0.7578(5) 0.0324(4) 0.085(3) Uani d . . D 1.0 . .
H H189 0.2263 0.7788 0.0075 0.103 Uiso calc U . R 1.0 . .
C C190 0.2224(7) 0.7404(4) 0.0798(4) 0.076(3) Uani d . . D 1.0 . .
H H190 0.2819 0.7513 0.0876 0.091 Uiso calc U . R 1.0 . .
C C191 0.1700(7) 0.7076(4) 0.1154(3) 0.071(3) Uani d . . D 1.0 . .
H H191 0.1949 0.6946 0.1473 0.086 Uiso calc U . R 1.0 . .
C C192 -0.043(2) 0.9507(12) 0.0319(9) 0.208(13) Uani d U P D 0.5 . .
H H192 -0.0144 0.9815 0.0452 0.249 Uiso calc U P R 0.5 . .
C C193 -0.0084(14) 0.9306(10) -0.0119(8) 0.121(8) Uani d U P D 0.5 . .
H H193 0.049 0.9412 -0.029 0.145 Uiso calc U P R 0.5 . .
C C194 -0.0667(16) 0.8926(10) -0.0288(7) 0.129(8) Uani d U P D 0.5 . .
H H194 -0.0451 0.8759 -0.0587 0.155 Uiso calc U P R 0.5 . .
C C195 -0.1527(15) 0.8766(10) -0.0069(8) 0.112(7) Uani d U P D 0.5 . .
H H195 -0.1933 0.8567 -0.0236 0.134 Uiso calc U P R 0.5 . .
C C196 -0.177(2) 0.8905(15) 0.0402(9) 0.207(13) Uani d U P D 0.5 . .
H H196 -0.2301 0.8764 0.0594 0.248 Uiso calc U P R 0.5 . .
C C197 -0.118(2) 0.9267(16) 0.0563(9) 0.243(15) Uani d U P D 0.5 . .
H H197 -0.1305 0.9361 0.0888 0.292 Uiso calc U P R 0.5 . .
N N1 0.7206(4) 0.3390(2) 0.3017(2) 0.0244(13) Uani d . . . 1.0 . .
N N2 0.6546(3) 0.2720(2) 0.3968(2) 0.0228(12) Uani d . . . 1.0 . .
N N3 0.7931(4) 0.1440(2) 0.37974(19) 0.0254(13) Uani d . . . 1.0 . .
N N4 0.8548(3) 0.2085(2) 0.2872(2) 0.0228(12) Uani d . . . 1.0 . .
N N5 0.6263(3) 0.2026(2) 0.30297(19) 0.0243(13) Uani d . . . 1.0 . .
N N6 0.3282(4) 0.2442(3) 0.11083(19) 0.0252(13) Uani d . . . 1.0 . .
N N7 0.2538(3) 0.1946(2) 0.2089(2) 0.0254(13) Uani d . . . 1.0 . .
N N8 0.1286(3) 0.3303(2) 0.2149(2) 0.0224(13) Uani d . . . 1.0 . .
N N9 0.2036(4) 0.3811(3) 0.1205(2) 0.0294(14) Uani d . . . 1.0 . .
N N10 0.3620(3) 0.3246(2) 0.19987(19) 0.0228(12) Uani d . . . 1.0 . .
Zn Zn1 0.73758(6) 0.23694(4) 0.33608(3) 0.0252(2) Uani d . . . 1.0 . .
Zn Zn2 0.24753(6) 0.29095(4) 0.16876(3) 0.0263(2) Uani d . . . 1.0 . .
loop_
_atom_site_aniso_label
_atom_site_aniso_U_11
_atom_site_aniso_U_22
_atom_site_aniso_U_33
_atom_site_aniso_U_12
_atom_site_aniso_U_13
_atom_site_aniso_U_23
C1 0.023(3) 0.022(3) 0.031(4) -0.010(3) -0.009(3) -0.004(3)
C2 0.023(3) 0.026(4) 0.041(5) -0.005(3) -0.019(4) -0.001(3)
C3 0.028(3) 0.013(3) 0.049(5) 0.000(3) -0.022(4) -0.004(3)
C4 0.017(3) 0.017(3) 0.053(5) -0.002(2) -0.012(3) -0.013(3)
C5 0.015(3) 0.015(3) 0.044(5) -0.001(2) -0.013(3) -0.008(3)
C6 0.017(3) 0.022(3) 0.035(4) -0.003(2) -0.012(3) -0.008(3)
C7 0.025(3) 0.017(3) 0.035(4) -0.001(3) -0.013(3) -0.006(3)
C8 0.022(3) 0.025(3) 0.038(5) -0.004(3) -0.011(3) -0.005(3)
C9 0.018(3) 0.009(3) 0.048(5) -0.003(2) -0.013(3) 0.001(3)
C10 0.020(3) 0.017(3) 0.025(4) -0.007(2) -0.013(3) 0.005(3)
C11 0.019(3) 0.024(3) 0.033(4) -0.003(3) -0.014(3) -0.006(3)
C12 0.022(3) 0.017(3) 0.038(4) -0.003(3) -0.009(3) -0.003(3)
C13 0.022(3) 0.024(3) 0.039(5) -0.005(3) -0.006(3) -0.010(3)
C14 0.021(3) 0.022(3) 0.032(4) -0.006(3) -0.014(3) 0.000(3)
C15 0.029(4) 0.037(4) 0.030(4) -0.008(3) -0.011(4) -0.005(4)
C16 0.035(4) 0.029(4) 0.032(5) -0.008(3) -0.011(4) 0.007(3)
C17 0.029(4) 0.021(3) 0.046(5) -0.004(3) -0.015(4) 0.002(3)
C18 0.025(3) 0.020(3) 0.040(5) -0.008(3) -0.013(3) -0.001(3)
C19 0.020(3) 0.025(3) 0.032(4) -0.003(3) -0.014(3) -0.005(3)
C20 0.027(3) 0.018(3) 0.042(5) -0.005(3) -0.010(4) 0.003(3)
C21 0.018(3) 0.020(3) 0.041(5) 0.000(3) -0.006(3) -0.006(3)
C22 0.024(3) 0.021(3) 0.036(4) -0.008(3) -0.013(3) -0.003(3)
C23 0.023(3) 0.020(3) 0.033(4) -0.007(3) -0.012(3) -0.006(3)
C24 0.025(3) 0.020(3) 0.041(5) -0.004(3) -0.018(4) -0.006(3)
C25 0.021(3) 0.021(3) 0.034(4) -0.004(3) -0.011(3) -0.004(3)
C26 0.021(3) 0.017(3) 0.036(4) -0.002(2) -0.016(3) -0.003(3)
C27 0.018(3) 0.017(3) 0.045(5) -0.002(2) -0.006(3) -0.007(3)
C28 0.017(3) 0.019(3) 0.042(5) -0.003(2) -0.013(3) -0.003(3)
C29 0.016(3) 0.020(3) 0.041(5) -0.005(2) -0.011(3) -0.003(3)
C30 0.013(3) 0.029(4) 0.041(5) 0.001(3) -0.005(3) -0.013(3)
C31 0.016(3) 0.020(3) 0.042(5) -0.004(3) -0.011(3) -0.002(3)
C32 0.018(3) 0.027(4) 0.053(5) -0.003(3) -0.016(4) -0.005(4)
C33 0.022(3) 0.035(4) 0.042(5) -0.010(3) -0.004(4) 0.008(4)
C34 0.025(4) 0.043(4) 0.057(6) -0.012(3) -0.014(4) -0.003(4)
C35 0.027(4) 0.045(4) 0.043(5) -0.021(3) -0.013(4) 0.010(4)
C36 0.042(4) 0.045(5) 0.052(6) -0.017(4) -0.013(4) 0.007(4)
C37 0.050(5) 0.060(5) 0.046(6) -0.022(4) -0.008(5) 0.007(5)
C38 0.051(5) 0.036(4) 0.049(6) -0.010(4) -0.018(5) 0.005(4)
C39 0.042(4) 0.036(4) 0.035(5) -0.015(3) -0.026(4) 0.007(4)
C40 0.028(4) 0.029(4) 0.042(5) -0.011(3) -0.021(4) 0.004(4)
C41 0.045(4) 0.027(4) 0.045(5) -0.009(3) -0.027(4) 0.004(4)
C42 0.035(4) 0.028(4) 0.045(5) -0.006(3) -0.016(4) -0.004(4)
C43 0.028(4) 0.021(3) 0.044(5) -0.007(3) -0.009(4) -0.004(3)
C44 0.033(4) 0.025(4) 0.032(4) -0.012(3) -0.018(4) 0.002(3)
C45 0.021(3) 0.022(3) 0.044(5) -0.010(3) -0.011(4) -0.008(3)
C46 0.019(3) 0.021(3) 0.041(5) -0.004(3) -0.014(3) -0.006(3)
C47 0.014(3) 0.020(3) 0.042(5) -0.004(2) -0.010(3) 0.000(3)
C48 0.015(3) 0.022(3) 0.035(4) -0.003(2) -0.008(3) -0.002(3)
C49 0.010(3) 0.022(3) 0.041(5) -0.004(2) -0.005(3) 0.004(3)
C50 0.019(3) 0.026(3) 0.040(5) -0.003(3) 0.000(3) -0.002(3)
C51 0.020(3) 0.023(3) 0.039(5) 0.001(3) -0.012(3) 0.001(3)
C52 0.017(3) 0.026(3) 0.037(5) -0.003(3) -0.018(3) 0.002(3)
C53 0.020(3) 0.025(4) 0.056(5) -0.002(3) -0.024(4) 0.002(4)
C54 0.068(6) 0.045(5) 0.071(7) 0.015(4) -0.048(5) -0.017(5)
C55 0.034(4) 0.041(4) 0.046(5) 0.004(3) -0.014(4) -0.007(4)
C56 0.020(4) 0.094(7) 0.105(9) -0.015(4) -0.016(5) 0.024(6)
C57 0.036(4) 0.035(4) 0.034(5) 0.002(3) -0.009(4) -0.005(4)
C58 0.056(5) 0.041(4) 0.056(6) 0.012(4) -0.016(5) -0.019(4)
C59 0.040(4) 0.054(5) 0.047(6) 0.007(4) -0.003(4) -0.016(4)
C60 0.055(5) 0.056(5) 0.051(6) -0.014(4) -0.007(5) -0.021(4)
C61 0.022(3) 0.019(3) 0.034(4) -0.006(2) -0.013(3) 0.003(3)
C62 0.027(3) 0.023(3) 0.043(5) -0.009(3) -0.008(3) -0.009(3)
C63 0.025(3) 0.021(3) 0.032(4) -0.005(3) -0.009(3) -0.002(3)
C64 0.022(3) 0.020(3) 0.048(5) -0.001(3) -0.010(3) -0.009(3)
C65 0.027(3) 0.022(3) 0.037(5) -0.008(3) -0.011(3) 0.000(3)
C66 0.018(3) 0.024(3) 0.039(4) -0.006(3) -0.010(3) -0.003(3)
C67 0.020(3) 0.030(4) 0.051(5) -0.009(3) -0.007(4) -0.009(4)
C68 0.022(3) 0.054(5) 0.071(6) -0.005(3) -0.007(4) -0.026(4)
C69 0.031(4) 0.040(4) 0.063(6) -0.006(3) 0.003(4) 0.000(4)
C70 0.032(4) 0.036(4) 0.061(6) -0.003(3) -0.013(4) -0.010(4)
C71 0.027(3) 0.026(3) 0.043(5) -0.007(3) -0.011(4) -0.006(3)
C72 0.069(6) 0.043(5) 0.075(7) -0.035(4) -0.010(5) -0.002(5)
C73 0.034(4) 0.030(4) 0.082(6) -0.012(3) -0.015(4) -0.015(4)
C74 0.037(4) 0.027(4) 0.123(8) -0.014(3) 0.000(5) -0.022(5)
C75 0.020(3) 0.029(4) 0.036(5) -0.010(3) -0.009(3) -0.003(3)
C76 0.022(3) 0.033(4) 0.039(5) -0.009(3) -0.015(3) 0.001(3)
C77 0.039(4) 0.032(4) 0.047(5) -0.014(3) -0.033(4) 0.003(4)
C78 0.034(4) 0.039(4) 0.051(5) -0.004(3) -0.016(4) -0.021(4)
C79 0.024(3) 0.027(4) 0.049(5) 0.004(3) -0.015(4) -0.015(4)
C80 0.021(3) 0.034(4) 0.034(5) -0.002(3) -0.012(3) 0.000(4)
C81 0.029(4) 0.043(4) 0.038(5) -0.007(3) 0.001(4) -0.013(4)
C82 0.032(4) 0.033(4) 0.044(5) 0.003(3) -0.007(4) -0.018(4)
C83 0.022(3) 0.030(4) 0.052(5) -0.006(3) 0.002(4) -0.022(4)
C84 0.018(3) 0.025(4) 0.045(5) -0.003(3) -0.006(3) -0.010(3)
C85 0.017(3) 0.034(4) 0.036(5) -0.001(3) -0.005(3) -0.018(4)
C86 0.028(3) 0.021(3) 0.046(5) -0.003(3) -0.011(4) -0.012(3)
C87 0.019(3) 0.035(4) 0.038(5) -0.004(3) -0.013(3) -0.007(4)
C88 0.021(3) 0.026(3) 0.026(4) -0.004(3) -0.008(3) -0.004(3)
C89 0.018(3) 0.025(3) 0.035(4) -0.011(3) -0.006(3) -0.011(3)
C90 0.021(3) 0.033(4) 0.026(4) -0.010(3) -0.005(3) -0.006(3)
C91 0.030(4) 0.028(4) 0.031(5) -0.008(3) -0.008(4) -0.004(3)
C92 0.043(4) 0.037(4) 0.040(5) -0.015(3) -0.022(4) -0.002(4)
C93 0.043(4) 0.049(5) 0.037(5) -0.024(4) -0.003(4) -0.016(4)
C94 0.047(5) 0.061(5) 0.046(6) -0.021(4) -0.011(5) 0.001(5)
C95 0.045(5) 0.089(7) 0.034(5) -0.034(5) 0.017(4) -0.020(5)
C96 0.030(4) 0.069(6) 0.054(6) -0.017(4) -0.003(4) -0.023(5)
C97 0.028(4) 0.057(5) 0.033(5) -0.022(4) 0.001(4) -0.011(4)
C98 0.027(4) 0.049(5) 0.034(5) -0.016(3) -0.011(4) -0.009(4)
C99 0.019(3) 0.061(5) 0.044(5) -0.013(3) 0.001(4) -0.024(4)
C100 0.021(3) 0.043(4) 0.039(5) -0.006(3) -0.004(4) -0.014(4)
C101 0.013(3) 0.037(4) 0.039(5) -0.007(3) -0.002(3) -0.020(4)
C102 0.024(3) 0.037(4) 0.045(5) -0.010(3) -0.006(4) -0.020(4)
C103 0.009(3) 0.029(4) 0.035(4) -0.006(3) -0.001(3) -0.015(3)
C104 0.008(3) 0.026(3) 0.043(5) -0.009(2) -0.002(3) -0.010(3)
C105 0.015(3) 0.028(4) 0.041(5) 0.001(3) -0.006(3) -0.016(3)
C106 0.017(3) 0.024(3) 0.028(4) -0.005(3) -0.005(3) -0.004(3)
C107 0.023(3) 0.022(3) 0.036(5) -0.002(3) -0.013(3) -0.003(3)
C108 0.023(3) 0.039(4) 0.043(5) -0.007(3) -0.007(4) -0.012(4)
C109 0.028(4) 0.025(4) 0.056(5) -0.001(3) -0.011(4) -0.010(4)
C110 0.027(4) 0.044(4) 0.033(5) -0.006(3) -0.002(4) -0.005(4)
C111 0.032(4) 0.026(4) 0.036(5) -0.003(3) -0.010(4) -0.001(3)
C112 0.036(4) 0.042(5) 0.045(5) -0.005(3) 0.000(4) -0.004(4)
C113 0.042(4) 0.042(4) 0.038(5) -0.005(4) -0.008(4) -0.004(4)
C114 0.033(4) 0.035(4) 0.045(5) -0.010(3) -0.013(4) 0.005(4)
C115 0.047(5) 0.041(4) 0.042(5) -0.010(4) -0.011(4) 0.002(4)
C116 0.040(4) 0.056(5) 0.041(5) -0.011(4) -0.006(4) 0.006(4)
C117 0.028(4) 0.044(4) 0.041(5) -0.009(3) -0.007(4) -0.002(4)
C118 0.030(4) 0.037(4) 0.038(5) -0.006(3) -0.012(4) 0.004(4)
C119 0.025(4) 0.042(4) 0.038(5) -0.007(3) -0.013(4) -0.003(4)
C120 0.029(4) 0.039(4) 0.049(5) -0.004(3) -0.004(4) -0.012(4)
C121 0.032(4) 0.035(4) 0.037(5) -0.012(3) 0.004(4) -0.004(4)
C122 0.028(4) 0.037(4) 0.035(5) -0.008(3) -0.015(4) -0.006(4)
C123 0.025(3) 0.041(4) 0.030(5) -0.005(3) -0.008(3) 0.001(4)
C124 0.019(3) 0.040(4) 0.020(4) -0.006(3) -0.005(3) -0.003(3)
C125 0.025(4) 0.040(4) 0.035(5) -0.005(3) -0.013(4) -0.008(4)
C126 0.028(4) 0.033(4) 0.053(5) -0.006(3) 0.003(4) -0.018(4)
C127 0.031(4) 0.050(5) 0.049(5) -0.011(3) 0.006(4) -0.023(4)
C128 0.039(4) 0.048(5) 0.078(7) -0.015(4) 0.022(5) -0.037(5)
C129 0.039(5) 0.053(5) 0.108(8) -0.006(4) 0.006(5) -0.045(6)
C130 0.032(4) 0.043(5) 0.104(8) -0.003(3) -0.009(5) -0.029(5)
C131 0.030(4) 0.036(4) 0.078(6) -0.002(3) -0.017(4) -0.019(4)
C132 0.054(5) 0.064(6) 0.081(7) -0.031(4) 0.022(5) -0.043(6)
C133 0.044(5) 0.101(7) 0.110(9) -0.019(5) 0.013(5) -0.076(7)
C134 0.129(10) 0.123(9) 0.070(8) -0.077(8) 0.026(7) -0.050(7)
C135 0.069(6) 0.085(7) 0.141(10) -0.022(5) 0.021(7) -0.081(7)
C136 0.042(5) 0.029(4) 0.121(9) 0.013(3) -0.022(6) -0.015(5)
C137 0.052(5) 0.065(5) 0.142(8) -0.008(4) 0.001(5) -0.011(5)
C138 0.068(6) 0.073(6) 0.116(7) -0.009(5) -0.005(6) -0.009(5)
C139 0.097(7) 0.075(6) 0.135(8) -0.001(5) -0.056(6) -0.023(6)
C140 0.021(3) 0.031(4) 0.036(5) -0.007(3) -0.008(3) -0.006(3)
C141 0.037(4) 0.023(3) 0.052(5) -0.007(3) -0.012(4) -0.006(4)
C142 0.051(5) 0.032(4) 0.056(6) -0.009(3) -0.008(4) -0.012(4)
C143 0.046(4) 0.034(4) 0.054(6) -0.002(3) -0.001(4) -0.015(4)
C144 0.023(3) 0.029(4) 0.053(5) -0.001(3) -0.004(4) -0.008(4)
C145 0.024(3) 0.035(4) 0.052(5) 0.001(3) -0.014(4) -0.014(4)
C146 0.083(6) 0.035(4) 0.045(6) -0.025(4) 0.003(5) -0.008(4)
C147 0.115(8) 0.078(6) 0.069(7) -0.064(6) -0.005(6) -0.027(6)
C148 0.096(8) 0.078(7) 0.051(6) -0.020(6) -0.001(6) -0.027(6)
C149 0.129(9) 0.056(6) 0.099(9) 0.000(6) -0.023(7) -0.047(6)
C150 0.028(4) 0.050(5) 0.073(7) 0.015(3) -0.017(5) -0.005(5)
C151 0.030(6) 0.108(11) 0.064(10) -0.001(7) -0.006(7) -0.027(8)
C152 0.088(13) 0.057(7) 0.091(16) 0.035(10) -0.041(11) -0.034(10)
C153 0.043(9) 0.044(8) 0.065(12) -0.007(5) -0.021(8) -0.008(8)
C1' 0.030(6) 0.108(11) 0.064(10) -0.001(7) -0.006(7) -0.027(8)
C2' 0.088(13) 0.057(7) 0.091(16) 0.035(10) -0.041(11) -0.034(10)
C3' 0.043(9) 0.044(8) 0.065(12) -0.007(5) -0.021(8) -0.008(8)
C154 0.016(3) 0.030(4) 0.034(4) -0.007(3) -0.003(3) -0.003(3)
C155 0.022(3) 0.028(4) 0.043(5) -0.008(3) -0.009(4) 0.009(3)
C156 0.027(4) 0.036(4) 0.046(5) -0.015(3) -0.016(4) 0.003(4)
C157 0.035(4) 0.038(4) 0.039(5) -0.016(3) -0.005(4) -0.009(4)
C158 0.017(3) 0.035(4) 0.040(5) -0.009(3) -0.002(3) -0.007(3)
C159 0.071(6) 0.093(6) 0.110(7) -0.016(5) -0.046(6) -0.022(6)
C160 0.071(5) 0.072(5) 0.087(6) -0.034(4) -0.023(5) -0.023(5)
C161 0.048(4) 0.051(5) 0.075(6) 0.002(4) -0.004(5) -0.012(4)
C162 0.035(4) 0.087(6) 0.049(5) -0.013(4) -0.003(4) -0.009(5)
C163 0.081(6) 0.072(6) 0.072(6) -0.033(5) -0.017(5) -0.014(5)
C164 0.095(6) 0.080(6) 0.113(7) -0.013(5) -0.050(6) -0.012(6)
C165 0.068(6) 0.062(6) 0.054(7) -0.011(5) -0.007(5) -0.001(5)
C166 0.067(6) 0.058(6) 0.072(7) -0.006(5) -0.022(6) -0.005(5)
C167 0.065(6) 0.063(6) 0.061(7) 0.014(5) -0.021(6) -0.015(5)
C168 0.051(5) 0.082(7) 0.052(6) 0.008(5) -0.006(5) -0.010(6)
C169 0.053(5) 0.052(5) 0.079(8) -0.004(4) -0.011(6) 0.000(5)
C170 0.075(7) 0.072(7) 0.079(8) -0.010(5) 0.002(6) -0.023(6)
C171 0.029(4) 0.062(5) 0.037(5) -0.009(3) -0.005(4) -0.009(4)
C172 0.027(4) 0.037(4) 0.043(5) -0.005(3) -0.008(4) -0.017(4)
C173 0.044(5) 0.064(5) 0.044(6) 0.014(4) -0.017(5) -0.013(5)
C174 0.039(5) 0.085(7) 0.048(6) 0.000(4) -0.005(5) 0.013(5)
C175 0.021(4) 0.061(5) 0.071(6) -0.018(3) -0.005(4) -0.026(5)
C176 0.028(4) 0.080(6) 0.046(5) -0.006(4) -0.018(4) -0.022(5)
C177 0.044(5) 0.051(5) 0.073(7) -0.020(4) -0.003(5) -0.019(5)
C178 0.042(4) 0.054(5) 0.052(6) -0.017(4) -0.002(4) -0.018(5)
C179 0.050(5) 0.046(5) 0.064(6) -0.012(4) 0.000(5) -0.020(5)
C180 0.056(5) 0.064(6) 0.054(6) -0.035(4) 0.009(5) -0.013(5)
C181 0.038(5) 0.082(7) 0.072(7) -0.022(4) -0.018(5) -0.004(6)
C182 0.054(5) 0.054(5) 0.087(8) -0.020(4) -0.015(6) 0.013(5)
C183 0.029(4) 0.103(8) 0.081(8) 0.005(5) 0.006(5) -0.040(7)
C184 0.046(5) 0.088(7) 0.063(7) 0.008(5) 0.002(5) -0.018(6)
C185 0.039(5) 0.097(8) 0.075(8) 0.016(5) -0.007(5) -0.025(7)
C186 0.088(9) 0.111(9) 0.118(11) -0.039(7) 0.011(8) -0.063(9)
C187 0.068(8) 0.119(10) 0.134(13) -0.025(7) -0.004(8) -0.056(10)
C188 0.092(9) 0.099(9) 0.107(11) -0.006(7) -0.041(9) -0.025(8)
C189 0.085(8) 0.082(7) 0.096(10) -0.015(6) -0.002(7) -0.041(7)
C190 0.056(6) 0.071(7) 0.110(10) -0.011(5) 0.005(7) -0.051(7)
C191 0.075(7) 0.070(7) 0.076(8) -0.023(5) 0.012(6) -0.031(6)
C192 0.208(13) 0.208(13) 0.208(13) -0.051(3) -0.0069(11) -0.029(2)
C193 0.121(8) 0.121(8) 0.121(8) -0.029(2) -0.0044(11) -0.0172(15)
C194 0.129(9) 0.129(9) 0.129(9) -0.032(2) -0.0040(11) -0.0180(16)
C195 0.112(8) 0.112(8) 0.112(8) -0.027(2) -0.0037(11) -0.0159(15)
C196 0.207(13) 0.207(13) 0.207(13) -0.051(3) -0.0066(11) -0.029(2)
C197 0.243(15) 0.244(15) 0.243(15) -0.060(4) -0.0081(11) -0.034(2)
N1 0.024(3) 0.013(3) 0.038(4) -0.008(2) -0.013(3) 0.002(3)
N2 0.020(3) 0.015(3) 0.034(4) -0.003(2) -0.011(3) -0.002(3)
N3 0.026(3) 0.020(3) 0.030(4) -0.004(2) -0.012(3) -0.002(3)
N4 0.014(2) 0.019(3) 0.036(4) -0.005(2) -0.005(3) 0.000(3)
N5 0.021(3) 0.016(3) 0.038(4) -0.006(2) -0.009(3) -0.003(3)
N6 0.023(3) 0.032(3) 0.021(3) -0.006(2) 0.000(3) -0.007(3)
N7 0.015(3) 0.028(3) 0.033(4) 0.001(2) -0.010(3) -0.009(3)
N8 0.005(2) 0.025(3) 0.039(4) -0.001(2) 0.004(3) -0.016(3)
N9 0.022(3) 0.034(3) 0.032(4) -0.006(2) -0.001(3) -0.006(3)
N10 0.018(3) 0.025(3) 0.030(3) -0.011(2) -0.008(3) -0.002(3)
Zn1 0.0195(4) 0.0191(4) 0.0386(6) -0.0031(3) -0.0108(4) -0.0068(4)
Zn2 0.0162(4) 0.0308(5) 0.0336(6) -0.0037(3) -0.0037(4) -0.0114(4)
loop_
_atom_type_symbol
_atom_type_description
_atom_type_scat_dispersion_real
_atom_type_scat_dispersion_imag
_atom_type_scat_source
C C 0.0181 0.0091 'International Tables Vol C Tables 4.2.6.8 and 6.1.1.4'
H H 0.0000 0.0000 'International Tables Vol C Tables 4.2.6.8 and 6.1.1.4'
N N 0.0311 0.0180 'International Tables Vol C Tables 4.2.6.8 and 6.1.1.4'
Zn Zn -1.5491 0.6778 'International Tables Vol C Tables 4.2.6.8 and 6.1.1.4'
loop_
_geom_angle_atom_site_label_1
_geom_angle_atom_site_label_2
_geom_angle_atom_site_label_3
_geom_angle_site_symmetry_1
_geom_angle
N1 C1 C2 . 109.2(5)
N1 C1 C45 . 124.1(6)
C2 C1 C45 . 126.5(6)
C3 C2 C1 . 107.2(6)
C3 C2 H2 . 126.4
C1 C2 H2 . 126.4
C2 C3 C4 . 107.6(5)
C2 C3 H3 . 126.2
C4 C3 H3 . 126.2
N1 C4 C3 . 108.6(6)
N1 C4 C5 . 125.5(6)
C3 C4 C5 . 125.7(5)
C6 C5 C4 . 127.1(5)
C6 C5 C61 . 116.7(6)
C4 C5 C61 . 116.2(6)
C5 C6 N2 . 125.9(6)
C5 C6 C7 . 125.7(5)
N2 C6 C7 . 108.3(6)
C8 C7 C6 . 108.3(5)
C8 C7 H7 . 125.9
C6 C7 H7 . 125.9
C7 C8 C9 . 106.8(6)
C7 C8 H8 . 126.6
C9 C8 H8 . 126.6
N2 C9 C8 . 109.3(5)
N2 C9 C10 . 124.2(6)
C8 C9 C10 . 126.5(6)
C11 C10 C25 . 116.6(5)
C11 C10 C9 . 122.9(5)
C25 C10 C9 . 120.4(6)
C10 C11 C12 . 121.3(5)
C10 C11 C23 . 122.6(5)
C12 C11 C23 . 116.0(6)
C13 C12 C11 . 122.2(6)
C13 C12 H12 . 118.9
C11 C12 H12 . 118.9
C12 C13 C14 . 123.1(6)
C12 C13 H13 . 118.5
C14 C13 H13 . 118.5
C15 C14 C13 . 123.9(6)
C15 C14 C19 . 119.7(6)
C13 C14 C19 . 116.2(6)
C14 C15 C16 . 122.3(6)
C14 C15 H15 . 118.8
C16 C15 H15 . 118.8
C15 C16 C17 . 119.3(7)
C15 C16 H16 . 120.4
C17 C16 H16 . 120.4
C16 C17 C18 . 121.1(6)
C16 C17 H17 . 119.5
C18 C17 H17 . 119.5
C17 C18 C19 . 119.1(6)
C17 C18 C20 . 122.4(6)
C19 C18 C20 . 118.4(6)
C23 C19 C18 . 120.1(6)
C23 C19 C14 . 121.5(6)
C18 C19 C14 . 118.5(6)
C21 C20 C18 . 120.8(6)
C21 C20 H20 . 119.6
C18 C20 H20 . 119.6
C20 C21 C22 . 122.4(6)
C20 C21 H21 . 118.8
C22 C21 H21 . 118.8
C24 C22 C23 . 118.4(6)
C24 C22 C21 . 123.0(6)
C23 C22 C21 . 118.5(6)
C22 C23 C19 . 119.8(6)
C22 C23 C11 . 119.6(6)
C19 C23 C11 . 120.6(5)
C27 C24 C22 . 133.8(6)
C27 C24 C25 . 104.5(6)
C22 C24 C25 . 121.7(6)
N3 C25 C24 . 112.9(5)
N3 C25 C10 . 126.4(6)
C24 C25 C10 . 120.7(6)
C27 C26 N3 . 111.3(6)
C27 C26 C28 . 125.7(5)
N3 C26 C28 . 122.8(6)
C24 C27 C26 . 107.5(5)
C24 C27 H27 . 126.3
C26 C27 H27 . 126.3
C29 C28 C26 . 126.3(5)
C29 C28 C47 . 115.3(6)
C26 C28 C47 . 118.3(6)
N4 C29 C28 . 126.0(6)
N4 C29 C30 . 108.2(6)
C28 C29 C30 . 125.6(5)
C31 C30 C29 . 108.5(5)
C31 C30 H30 . 125.7
C29 C30 H30 . 125.7
C30 C31 C32 . 133.4(6)
C30 C31 C46 . 105.5(6)
C32 C31 C46 . 121.0(6)
C44 C32 C31 . 118.5(6)
C44 C32 C33 . 118.9(7)
C31 C32 C33 . 122.4(6)
C34 C33 C32 . 122.3(7)
C34 C33 H33 . 118.8
C32 C33 H33 . 118.8
C33 C34 C35 . 120.2(7)
C33 C34 H34 . 119.9
C35 C34 H34 . 119.9
C36 C35 C34 . 122.6(7)
C36 C35 C40 . 118.0(7)
C34 C35 C40 . 119.3(7)
C37 C36 C35 . 121.2(8)
C37 C36 H36 . 119.4
C35 C36 H36 . 119.4
C36 C37 C38 . 121.1(8)
C36 C37 H37 . 119.4
C38 C37 H37 . 119.4
C37 C38 C39 . 119.5(7)
C37 C38 H38 . 120.2
C39 C38 H38 . 120.2
C38 C39 C40 . 121.1(7)
C38 C39 C41 . 122.0(7)
C40 C39 C41 . 116.7(7)
C39 C40 C44 . 121.7(7)
C39 C40 C35 . 119.1(7)
C44 C40 C35 . 119.2(6)
C42 C41 C39 . 121.0(7)
C42 C41 H41 . 119.5
C39 C41 H41 . 119.5
C41 C42 C43 . 123.7(7)
C41 C42 H42 . 118.1
C43 C42 H42 . 118.1
C42 C43 C45 . 123.3(6)
C42 C43 C44 . 115.6(7)
C45 C43 C44 . 121.1(6)
C32 C44 C40 . 119.8(6)
C32 C44 C43 . 120.6(7)
C40 C44 C43 . 119.5(6)
C46 C45 C43 . 117.1(6)
C46 C45 C1 . 121.1(7)
C43 C45 C1 . 121.4(6)
N4 C46 C45 . 129.6(6)
N4 C46 C31 . 110.1(5)
C45 C46 C31 . 120.4(7)
C48 C47 C52 . 118.7(5)
C48 C47 C28 . 121.7(5)
C52 C47 C28 . 119.3(5)
C49 C48 C47 . 121.3(6)
C49 C48 H48 . 119.4
C47 C48 H48 . 119.4
C48 C49 C50 . 117.6(6)
C48 C49 C53 . 123.2(6)
C50 C49 C53 . 119.2(5)
C51 C50 C49 . 122.8(6)
C51 C50 H50 . 118.6
C49 C50 H50 . 118.6
C50 C51 C52 . 118.1(6)
C50 C51 C57 . 122.9(5)
C52 C51 C57 . 118.9(5)
C51 C52 C47 . 121.3(6)
C51 C52 H52 . 119.3
C47 C52 H52 . 119.3
C54 C53 C49 . 112.4(5)
C54 C53 C55 . 107.6(6)
C49 C53 C55 . 111.3(5)
C54 C53 C56 . 107.9(6)
C49 C53 C56 . 108.7(6)
C55 C53 C56 . 108.8(6)
C53 C54 H54A . 109.5
C53 C54 H54B . 109.5
H54A C54 H54B . 109.5
C53 C54 H54C . 109.5
H54A C54 H54C . 109.5
H54B C54 H54C . 109.5
C53 C55 H55A . 109.5
C53 C55 H55B . 109.5
H55A C55 H55B . 109.5
C53 C55 H55C . 109.5
H55A C55 H55C . 109.5
H55B C55 H55C . 109.5
C53 C56 H56A . 109.5
C53 C56 H56B . 109.5
H56A C56 H56B . 109.5
C53 C56 H56C . 109.5
H56A C56 H56C . 109.5
H56B C56 H56C . 109.5
C59 C57 C58 . 108.3(6)
C59 C57 C51 . 109.2(5)
C58 C57 C51 . 112.7(6)
C59 C57 C60 . 109.1(6)
C58 C57 C60 . 108.0(5)
C51 C57 C60 . 109.4(6)
C57 C58 H58A . 109.5
C57 C58 H58B . 109.5
H58A C58 H58B . 109.5
C57 C58 H58C . 109.5
H58A C58 H58C . 109.5
H58B C58 H58C . 109.5
C57 C59 H59A . 109.5
C57 C59 H59B . 109.5
H59A C59 H59B . 109.5
C57 C59 H59C . 109.5
H59A C59 H59C . 109.5
H59B C59 H59C . 109.5
C57 C60 H60A . 109.5
C57 C60 H60B . 109.5
H60A C60 H60B . 109.5
C57 C60 H60C . 109.5
H60A C60 H60C . 109.5
H60B C60 H60C . 109.5
C66 C61 C62 . 119.0(5)
C66 C61 C5 . 122.1(5)
C62 C61 C5 . 118.9(5)
C61 C62 C63 . 121.7(5)
C61 C62 H62 . 119.2
C63 C62 H62 . 119.2
C64 C63 C62 . 116.9(5)
C64 C63 C67 . 123.8(5)
C62 C63 C67 . 119.2(5)
C63 C64 C65 . 123.6(5)
C63 C64 H64 . 118.2
C65 C64 H64 . 118.2
C64 C65 C66 . 116.9(5)
C64 C65 C71 . 123.1(5)
C66 C65 C71 . 119.9(5)
C61 C66 C65 . 121.9(6)
C61 C66 H66 . 119.1
C65 C66 H66 . 119.1
C63 C67 C70 . 113.1(5)
C63 C67 C69 . 108.6(6)
C70 C67 C69 . 108.8(6)
C63 C67 C68 . 110.1(5)
C70 C67 C68 . 107.7(5)
C69 C67 C68 . 108.4(6)
C67 C68 H68A . 109.5
C67 C68 H68B . 109.5
H68A C68 H68B . 109.5
C67 C68 H68C . 109.5
H68A C68 H68C . 109.5
H68B C68 H68C . 109.5
C67 C69 H69A . 109.5
C67 C69 H69B . 109.5
H69A C69 H69B . 109.5
C67 C69 H69C . 109.5
H69A C69 H69C . 109.5
H69B C69 H69C . 109.5
C67 C70 H70A . 109.5
C67 C70 H70B . 109.5
H70A C70 H70B . 109.5
C67 C70 H70C . 109.5
H70A C70 H70C . 109.5
H70B C70 H70C . 109.5
C74 C71 C73 . 109.6(5)
C74 C71 C65 . 113.3(5)
C73 C71 C65 . 110.2(5)
C74 C71 C72 . 107.8(6)
C73 C71 C72 . 107.4(6)
C65 C71 C72 . 108.4(5)
C71 C72 H72A . 109.5
C71 C72 H72B . 109.5
H72A C72 H72B . 109.5
C71 C72 H72C . 109.5
H72A C72 H72C . 109.5
H72B C72 H72C . 109.5
C71 C73 H73A . 109.5
C71 C73 H73B . 109.5
H73A C73 H73B . 109.5
C71 C73 H73C . 109.5
H73A C73 H73C . 109.5
H73B C73 H73C . 109.5
C71 C74 H74A . 109.5
C71 C74 H74B . 109.5
H74A C74 H74B . 109.5
C71 C74 H74C . 109.5
H74A C74 H74C . 109.5
H74B C74 H74C . 109.5
N5 C75 C76 . 123.2(6)
N5 C75 H75 . 118.4
C76 C75 H75 . 118.4
C75 C76 C77 . 118.2(6)
C75 C76 H76 . 120.9
C77 C76 H76 . 120.9
C78 C77 C76 . 118.5(6)
C78 C77 H77 . 120.8
C76 C77 H77 . 120.8
C79 C78 C77 . 119.8(6)
C79 C78 H78 . 120.1
C77 C78 H78 . 120.1
N5 C79 C78 . 121.9(6)
N5 C79 H79 . 119.1
C78 C79 H79 . 119.1
N6 C80 C81 . 107.7(6)
N6 C80 C124 . 125.2(6)
C81 C80 C124 . 127.1(7)
C82 C81 C80 . 108.6(7)
C82 C81 H81 . 125.7
C80 C81 H81 . 125.7
C81 C82 C83 . 107.1(6)
C81 C82 H82 . 126.4
C83 C82 H82 . 126.4
C84 C83 N6 . 126.3(6)
C84 C83 C82 . 126.1(6)
N6 C83 C82 . 107.5(6)
C83 C84 C85 . 126.9(6)
C83 C84 C126 . 118.6(6)
C85 C84 C126 . 114.6(6)
C84 C85 N7 . 126.3(6)
C84 C85 C86 . 124.0(5)
N7 C85 C86 . 109.5(6)
C87 C86 C85 . 108.1(5)
C87 C86 H86 . 126.0
C85 C86 H86 . 126.0
C86 C87 C88 . 106.6(6)
C86 C87 H87 . 126.7
C88 C87 H87 . 126.7
N7 C88 C87 . 110.2(5)
N7 C88 C89 . 123.5(6)
C87 C88 C89 . 125.8(6)
C104 C89 C90 . 116.8(6)
C104 C89 C88 . 121.5(6)
C90 C89 C88 . 121.2(6)
C89 C90 C91 . 123.3(6)
C89 C90 C102 . 120.7(6)
C91 C90 C102 . 116.0(6)
C92 C91 C90 . 122.8(6)
C92 C91 H91 . 118.6
C90 C91 H91 . 118.6
C91 C92 C93 . 120.1(7)
C91 C92 H92 . 120.0
C93 C92 H92 . 120.0
C98 C93 C94 . 121.6(7)
C98 C93 C92 . 119.1(7)
C94 C93 C92 . 119.2(7)
C95 C94 C93 . 117.2(8)
C95 C94 H94 . 121.4
C93 C94 H94 . 121.4
C96 C95 C94 . 122.1(8)
C96 C95 H95 . 118.9
C94 C95 H95 . 118.9
C95 C96 C97 . 120.9(7)
C95 C96 H96 . 119.5
C97 C96 H96 . 119.5
C99 C97 C98 . 120.0(7)
C99 C97 C96 . 121.9(7)
C98 C97 C96 . 118.1(7)
C93 C98 C97 . 119.9(7)
C93 C98 C102 . 120.9(7)
C97 C98 C102 . 119.2(7)
C100 C99 C97 . 121.0(7)
C100 C99 H99 . 119.5
C97 C99 H99 . 119.5
C99 C100 C101 . 120.2(7)
C99 C100 H100 . 119.9
C101 C100 H100 . 119.9
C102 C101 C100 . 120.1(7)
C102 C101 C103 . 119.4(6)
C100 C101 C103 . 120.5(6)
C101 C102 C98 . 119.5(6)
C101 C102 C90 . 120.7(7)
C98 C102 C90 . 119.8(7)
C105 C103 C101 . 133.7(6)
C105 C103 C104 . 107.6(6)
C101 C103 C104 . 118.8(6)
N8 C104 C89 . 129.2(6)
N8 C104 C103 . 108.0(6)
C89 C104 C103 . 122.8(6)
C103 C105 C106 . 108.4(5)
C103 C105 H105 . 125.8
C106 C105 H105 . 125.8
C107 C106 N8 . 125.8(6)
C107 C106 C105 . 126.2(5)
N8 C106 C105 . 107.8(6)
C106 C107 C108 . 126.0(6)
C106 C107 C140 . 114.6(6)
C108 C107 C140 . 119.3(6)
N9 C108 C107 . 124.5(7)
N9 C108 C109 . 109.9(6)
C107 C108 C109 . 125.5(6)
C110 C109 C108 . 107.3(6)
C110 C109 H109 . 126.3
C108 C109 H109 . 126.3
C109 C110 C111 . 133.4(7)
C109 C110 C125 . 105.9(6)
C111 C110 C125 . 120.7(6)
C112 C111 C110 . 122.7(6)
C112 C111 C123 . 119.8(7)
C110 C111 C123 . 117.5(6)
C113 C112 C111 . 122.0(7)
C113 C112 H112 . 119.0
C111 C112 H112 . 119.0
C112 C113 C114 . 119.7(7)
C112 C113 H113 . 120.2
C114 C113 H113 . 120.2
C119 C114 C115 . 120.7(7)
C119 C114 C113 . 119.3(7)
C115 C114 C113 . 119.9(7)
C116 C115 C114 . 119.5(7)
C116 C115 H115 . 120.2
C114 C115 H115 . 120.2
C117 C116 C115 . 121.0(8)
C117 C116 H116 . 119.5
C115 C116 H116 . 119.5
C116 C117 C118 . 120.3(7)
C116 C117 H117 . 119.9
C118 C117 H117 . 119.9
C117 C118 C119 . 119.7(7)
C117 C118 C120 . 122.6(6)
C119 C118 C120 . 117.5(7)
C114 C119 C118 . 118.8(7)
C114 C119 C123 . 121.3(6)
C118 C119 C123 . 119.8(6)
C121 C120 C118 . 122.8(7)
C121 C120 H120 . 118.6
C118 C120 H120 . 118.6
C120 C121 C122 . 121.8(7)
C120 C121 H121 . 119.1
C122 C121 H121 . 119.1
C124 C122 C123 . 122.5(6)
C124 C122 C121 . 120.9(6)
C123 C122 C121 . 116.3(6)
C111 C123 C122 . 120.8(7)
C111 C123 C119 . 117.9(6)
C122 C123 C119 . 121.3(6)
C122 C124 C125 . 116.2(6)
C122 C124 C80 . 123.2(6)
C125 C124 C80 . 120.5(6)
N9 C125 C124 . 127.2(6)
N9 C125 C110 . 110.7(6)
C124 C125 C110 . 122.1(7)
C131 C126 C127 . 119.5(6)
C131 C126 C84 . 118.6(5)
C127 C126 C84 . 121.9(6)
C126 C127 C128 . 120.3(7)
C126 C127 H127 . 119.9
C128 C127 H127 . 119.9
C129 C128 C127 . 116.9(7)
C129 C128 C132 . 124.8(7)
C127 C128 C132 . 118.3(8)
C130 C129 C128 . 123.7(7)
C130 C129 H129 . 118.2
C128 C129 H129 . 118.2
C129 C130 C131 . 117.7(8)
C129 C130 C136 . 120.0(7)
C131 C130 C136 . 122.3(7)
C130 C131 C126 . 121.9(6)
C130 C131 H131 . 119.0
C126 C131 H131 . 119.0
C128 C132 C133 . 110.3(6)
C128 C132 C134 . 111.1(7)
C133 C132 C134 . 108.4(8)
C128 C132 C135 . 111.3(8)
C133 C132 C135 . 108.0(6)
C134 C132 C135 . 107.7(7)
C132 C133 H13A . 109.5
C132 C133 H13B . 109.5
H13A C133 H13B . 109.5
C132 C133 H13C . 109.5
H13A C133 H13C . 109.5
H13B C133 H13C . 109.5
C132 C134 H13D . 109.5
C132 C134 H13E . 109.5
H13D C134 H13E . 109.5
C132 C134 H13F . 109.5
H13D C134 H13F . 109.5
H13E C134 H13F . 109.5
C132 C135 H13G . 109.5
C132 C135 H13H . 109.5
H13G C135 H13H . 109.5
C132 C135 H13I . 109.5
H13G C135 H13I . 109.5
H13H C135 H13I . 109.5
C139 C136 C138 . 107.4(9)
C139 C136 C130 . 113.3(6)
C138 C136 C130 . 109.5(7)
C139 C136 C137 . 109.1(8)
C138 C136 C137 . 109.4(6)
C130 C136 C137 . 108.2(8)
C136 C137 H13J . 109.5
C136 C137 H13K . 109.5
H13J C137 H13K . 109.5
C136 C137 H13L . 109.5
H13J C137 H13L . 109.5
H13K C137 H13L . 109.5
C136 C138 H13M . 109.5
C136 C138 H13N . 109.5
H13M C138 H13N . 109.5
C136 C138 H13O . 109.5
H13M C138 H13O . 109.5
H13N C138 H13O . 109.5
C136 C139 H13P . 109.5
C136 C139 H13Q . 109.5
H13P C139 H13Q . 109.5
C136 C139 H13R . 109.5
H13P C139 H13R . 109.5
H13Q C139 H13R . 109.5
C141 C140 C145 . 119.2(6)
C141 C140 C107 . 119.0(6)
C145 C140 C107 . 121.7(5)
C140 C141 C142 . 122.0(6)
C140 C141 H141 . 119.0
C142 C141 H141 . 119.0
C143 C142 C141 . 117.4(6)
C143 C142 C146 . 122.4(6)
C141 C142 C146 . 120.1(7)
C142 C143 C144 . 122.3(6)
C142 C143 H143 . 118.8
C144 C143 H143 . 118.8
C145 C144 C143 . 118.5(6)
C145 C144 C150 . 120.9(6)
C143 C144 C150 . 120.5(6)
C144 C145 C140 . 120.5(6)
C144 C145 H145 . 119.7
C140 C145 H145 . 119.7
C148 C146 C147 . 109.6(8)
C148 C146 C149 . 107.5(7)
C147 C146 C149 . 108.7(7)
C148 C146 C142 . 109.7(6)
C147 C146 C142 . 109.3(6)
C149 C146 C142 . 112.0(7)
C146 C147 H14A . 109.5
C146 C147 H14B . 109.5
H14A C147 H14B . 109.5
C146 C147 H14C . 109.5
H14A C147 H14C . 109.5
H14B C147 H14C . 109.5
C146 C148 H14D . 109.5
C146 C148 H14E . 109.5
H14D C148 H14E . 109.5
C146 C148 H14F . 109.5
H14D C148 H14F . 109.5
H14E C148 H14F . 109.5
C146 C149 H14G . 109.5
C146 C149 H14H . 109.5
H14G C149 H14H . 109.5
C146 C149 H14I . 109.5
H14G C149 H14I . 109.5
H14H C149 H14I . 109.5
C3' C150 C144 . 120.4(10)
C152 C150 C144 . 118.7(9)
C152 C150 C153 . 106.7(10)
C144 C150 C153 . 112.5(7)
C3' C150 C1' . 113.1(12)
C144 C150 C1' . 104.1(9)
C3' C150 C2' . 110.2(14)
C144 C150 C2' . 104.1(10)
C1' C150 C2' . 103.2(12)
C152 C150 C151 . 109.5(10)
C144 C150 C151 . 107.5(8)
C153 C150 C151 . 100.4(8)
C150 C151 H15A . 109.5
C150 C151 H15B . 109.5
H15A C151 H15B . 109.5
C150 C151 H15C . 109.5
H15A C151 H15C . 109.5
H15B C151 H15C . 109.5
C150 C152 H15D . 109.5
C150 C152 H15E . 109.5
H15D C152 H15E . 109.5
C150 C152 H15F . 109.5
H15D C152 H15F . 109.5
H15E C152 H15F . 109.5
C150 C153 H15G . 109.5
C150 C153 H15H . 109.5
H15G C153 H15H . 109.5
C150 C153 H15J . 109.5
H15G C153 H15J . 109.5
H15H C153 H15J . 109.5
C150 C1' H1'A . 109.5
C150 C1' H1'B . 109.5
H1'A C1' H1'B . 109.5
C150 C1' H1'C . 109.5
H1'A C1' H1'C . 109.5
H1'B C1' H1'C . 109.5
C150 C2' H2'A . 109.5
C150 C2' H2'B . 109.5
H2'A C2' H2'B . 109.5
C150 C2' H2'C . 109.5
H2'A C2' H2'C . 109.5
H2'B C2' H2'C . 109.5
C150 C3' H3'1 . 109.5
C150 C3' H3'2 . 109.5
H3'1 C3' H3'2 . 109.5
C150 C3' H3'3 . 109.5
H3'1 C3' H3'3 . 109.5
H3'2 C3' H3'3 . 109.5
N10 C154 C155 . 122.2(5)
N10 C154 H154 . 118.9
C155 C154 H154 . 118.9
C156 C155 C154 . 120.2(6)
C156 C155 H155 . 119.9
C154 C155 H155 . 119.9
C155 C156 C157 . 117.8(6)
C155 C156 H156 . 121.1
C157 C156 H156 . 121.1
C158 C157 C156 . 119.2(6)
C158 C157 H157 . 120.4
C156 C157 H157 . 120.4
N10 C158 C157 . 122.7(6)
N10 C158 H158 . 118.6
C157 C158 H158 . 118.6
C160 C159 C164 . 119.7(7)
C160 C159 H159 . 120.1
C164 C159 H159 . 120.1
C161 C160 C159 . 119.7(7)
C161 C160 H160 . 120.1
C159 C160 H160 . 120.1
C162 C161 C160 . 121.0(6)
C162 C161 H161 . 119.5
C160 C161 H161 . 119.5
C161 C162 C163 . 118.9(6)
C161 C162 H162 . 120.6
C163 C162 H162 . 120.6
C162 C163 C164 . 120.6(7)
C162 C163 H163 . 119.7
C164 C163 H163 . 119.7
C163 C164 C159 . 120.1(7)
C163 C164 H164 . 120.0
C159 C164 H164 . 120.0
C166 C165 C170 . 119.8(8)
C166 C165 H165 . 120.1
C170 C165 H165 . 120.1
C165 C166 C167 . 119.5(8)
C165 C166 H166 . 120.2
C167 C166 H166 . 120.2
C166 C167 C168 . 121.3(8)
C166 C167 H167 . 119.4
C168 C167 H167 . 119.4
C167 C168 C169 . 119.4(8)
C167 C168 H168 . 120.3
C169 C168 H168 . 120.3
C170 C169 C168 . 119.0(8)
C170 C169 H169 . 120.5
C168 C169 H169 . 120.5
C169 C170 C165 . 121.0(8)
C169 C170 H170 . 119.5
C165 C170 H170 . 119.5
C172 C171 C176 . 121.4(7)
C172 C171 H171 . 119.3
C176 C171 H171 . 119.3
C173 C172 C171 . 119.4(6)
C173 C172 H172 . 120.3
C171 C172 H172 . 120.3
C172 C173 C174 . 119.3(7)
C172 C173 H173 . 120.4
C174 C173 H173 . 120.4
C175 C174 C173 . 121.4(7)
C175 C174 H174 . 119.3
C173 C174 H174 . 119.3
C176 C175 C174 . 117.7(6)
C176 C175 H175 . 121.1
C174 C175 H175 . 121.1
C171 C176 C175 . 120.7(7)
C171 C176 H176 . 119.7
C175 C176 H176 . 119.7
C182 C177 C178 . 119.1(8)
C182 C177 H177 . 120.5
C178 C177 H177 . 120.5
C179 C178 C177 . 120.1(7)
C179 C178 H178 . 119.9
C177 C178 H178 . 119.9
C180 C179 C178 . 120.4(8)
C180 C179 H179 . 119.8
C178 C179 H179 . 119.8
C179 C180 C181 . 119.8(7)
C179 C180 H180 . 120.1
C181 C180 H180 . 120.1
C182 C181 C180 . 119.5(7)
C182 C181 H181 . 120.3
C180 C181 H181 . 120.3
C177 C182 C181 . 121.1(8)
C177 C182 H182 . 119.5
C181 C182 H182 . 119.5
C185 C183 C184 2_766 119.6(10)
C185 C183 H183 2_766 120.2
C184 C183 H183 . 120.2
C185 C184 C183 . 121.1(10)
C185 C184 H184 . 119.5
C183 C184 H184 . 119.5
C183 C185 C184 2_766 119.3(10)
C183 C185 H185 2_766 120.3
C184 C185 H185 . 120.3
C191 C186 C187 . 119.2(10)
C191 C186 H186 . 120.4
C187 C186 H186 . 120.4
C186 C187 C188 . 120.7(10)
C186 C187 H187 . 119.6
C188 C187 H187 . 119.6
C189 C188 C187 . 119.7(10)
C189 C188 H188 . 120.1
C187 C188 H188 . 120.1
C188 C189 C190 . 119.1(10)
C188 C189 H189 . 120.5
C190 C189 H189 . 120.5
C191 C190 C189 . 120.4(9)
C191 C190 H190 . 119.8
C189 C190 H190 . 119.8
C186 C191 C190 . 120.7(9)
C186 C191 H191 . 119.6
C190 C191 H191 . 119.6
C197 C192 C193 . 119.9(18)
C197 C192 H192 . 120.1
C193 C192 H192 . 120.1
C192 C193 C194 . 112.4(16)
C192 C193 H193 . 123.8
C194 C193 H193 . 123.8
C195 C194 C193 . 127.5(16)
C195 C194 H194 . 116.3
C193 C194 H194 . 116.3
C196 C195 C194 . 117.7(16)
C196 C195 H195 . 121.2
C194 C195 H195 . 121.2
C197 C196 C195 . 113.0(17)
C197 C196 H196 . 123.5
C195 C196 H196 . 123.5
C192 C197 C196 . 128.(2)
C192 C197 H197 . 115.8
C196 C197 H197 . 115.8
C1 N1 C4 . 107.3(5)
C1 N1 Zn1 . 127.7(4)
C4 N1 Zn1 . 124.9(5)
C9 N2 C6 . 107.3(5)
C9 N2 Zn1 . 125.8(4)
C6 N2 Zn1 . 124.8(4)
C25 N3 C26 . 103.8(5)
C25 N3 Zn1 . 123.7(4)
C26 N3 Zn1 . 127.2(4)
C46 N4 C29 . 107.6(5)
C46 N4 Zn1 . 124.9(4)
C29 N4 Zn1 . 126.8(4)
C79 N5 C75 . 118.4(5)
C79 N5 Zn1 . 120.5(4)
C75 N5 Zn1 . 121.1(4)
C80 N6 C83 . 109.0(5)
C80 N6 Zn2 . 124.8(4)
C83 N6 Zn2 . 124.5(4)
C88 N7 C85 . 105.5(5)
C88 N7 Zn2 . 129.0(4)
C85 N7 Zn2 . 124.8(5)
C104 N8 C106 . 108.2(5)
C104 N8 Zn2 . 124.9(4)
C106 N8 Zn2 . 126.3(4)
C125 N9 C108 . 106.2(6)
C125 N9 Zn2 . 123.0(4)
C108 N9 Zn2 . 126.9(5)
C154 N10 C158 . 117.9(5)
C154 N10 Zn2 . 122.1(4)
C158 N10 Zn2 . 119.9(4)
N4 Zn1 N3 . 88.1(2)
N4 Zn1 N2 . 162.11(18)
N3 Zn1 N2 . 88.0(2)
N4 Zn1 N1 . 87.7(2)
N3 Zn1 N1 . 161.23(17)
N2 Zn1 N1 . 90.4(2)
N4 Zn1 N5 . 98.02(18)
N3 Zn1 N5 . 95.41(18)
N2 Zn1 N5 . 99.72(18)
N1 Zn1 N5 . 103.29(18)
N9 Zn2 N8 . 88.0(2)
N9 Zn2 N7 . 162.62(18)
N8 Zn2 N7 . 87.6(2)
N9 Zn2 N6 . 88.4(2)
N8 Zn2 N6 . 160.78(18)
N7 Zn2 N6 . 90.2(2)
N9 Zn2 N10 . 94.14(19)
N8 Zn2 N10 . 97.93(17)
N7 Zn2 N10 . 103.11(18)
N6 Zn2 N10 . 101.17(18)
loop_
_geom_bond_atom_site_label_1
_geom_bond_atom_site_label_2
_geom_bond_site_symmetry_2
_geom_bond_distance
C1 N1 . 1.353(8)
C1 C2 . 1.424(8)
C1 C45 . 1.454(8)
C2 C3 . 1.369(8)
C2 H2 . 0.95
C3 C4 . 1.403(9)
C3 H3 . 0.95
C4 N1 . 1.398(7)
C4 C5 . 1.416(9)
C5 C6 . 1.393(8)
C5 C61 . 1.499(7)
C6 N2 . 1.400(6)
C6 C7 . 1.412(8)
C7 C8 . 1.354(8)
C7 H7 . 0.95
C8 C9 . 1.442(8)
C8 H8 . 0.95
C9 N2 . 1.349(8)
C9 C10 . 1.460(7)
C10 C11 . 1.416(8)
C10 C25 . 1.434(8)
C11 C12 . 1.439(8)
C11 C23 . 1.443(7)
C12 C13 . 1.357(8)
C12 H12 . 0.95
C13 C14 . 1.426(8)
C13 H13 . 0.95
C14 C15 . 1.365(8)
C14 C19 . 1.427(8)
C15 C16 . 1.376(8)
C15 H15 . 0.95
C16 C17 . 1.391(8)
C16 H16 . 0.95
C17 C18 . 1.396(9)
C17 H17 . 0.95
C18 C19 . 1.426(8)
C18 C20 . 1.430(8)
C19 C23 . 1.423(8)
C20 C21 . 1.348(8)
C20 H20 . 0.95
C21 C22 . 1.420(8)
C21 H21 . 0.95
C22 C24 . 1.412(9)
C22 C23 . 1.418(8)
C24 C27 . 1.385(8)
C24 C25 . 1.432(8)
C25 N3 . 1.348(8)
C26 C27 . 1.393(8)
C26 N3 . 1.398(7)
C26 C28 . 1.419(8)
C27 H27 . 0.95
C28 C29 . 1.392(8)
C28 C47 . 1.499(7)
C29 N4 . 1.390(7)
C29 C30 . 1.425(8)
C30 C31 . 1.368(8)
C30 H30 . 0.95
C31 C32 . 1.405(9)
C31 C46 . 1.452(8)
C32 C44 . 1.400(8)
C32 C33 . 1.430(9)
C33 C34 . 1.341(9)
C33 H33 . 0.95
C34 C35 . 1.419(9)
C34 H34 . 0.95
C35 C36 . 1.415(10)
C35 C40 . 1.435(9)
C36 C37 . 1.368(9)
C36 H36 . 0.95
C37 C38 . 1.386(10)
C37 H37 . 0.95
C38 C39 . 1.395(10)
C38 H38 . 0.95
C39 C40 . 1.399(9)
C39 C41 . 1.441(10)
C40 C44 . 1.422(9)
C41 C42 . 1.339(9)
C41 H41 . 0.95
C42 C43 . 1.419(9)
C42 H42 . 0.95
C43 C45 . 1.423(9)
C43 C44 . 1.441(9)
C45 C46 . 1.418(8)
C46 N4 . 1.348(8)
C47 C48 . 1.398(8)
C47 C52 . 1.401(8)
C48 C49 . 1.391(7)
C48 H48 . 0.95
C49 C50 . 1.408(8)
C49 C53 . 1.524(8)
C50 C51 . 1.375(8)
C50 H50 . 0.95
C51 C52 . 1.393(7)
C51 C57 . 1.533(8)
C52 H52 . 0.95
C53 C54 . 1.518(9)
C53 C55 . 1.528(8)
C53 C56 . 1.537(9)
C54 H54A . 0.98
C54 H54B . 0.98
C54 H54C . 0.98
C55 H55A . 0.98
C55 H55B . 0.98
C55 H55C . 0.98
C56 H56A . 0.98
C56 H56B . 0.98
C56 H56C . 0.98
C57 C59 . 1.522(9)
C57 C58 . 1.530(8)
C57 C60 . 1.544(9)
C58 H58A . 0.98
C58 H58B . 0.98
C58 H58C . 0.98
C59 H59A . 0.98
C59 H59B . 0.98
C59 H59C . 0.98
C60 H60A . 0.98
C60 H60B . 0.98
C60 H60C . 0.98
C61 C66 . 1.376(7)
C61 C62 . 1.389(8)
C62 C63 . 1.398(7)
C62 H62 . 0.95
C63 C64 . 1.382(7)
C63 C67 . 1.521(8)
C64 C65 . 1.390(8)
C64 H64 . 0.95
C65 C66 . 1.395(7)
C65 C71 . 1.533(8)
C66 H66 . 0.95
C67 C70 . 1.524(8)
C67 C69 . 1.524(9)
C67 C68 . 1.547(8)
C68 H68A . 0.98
C68 H68B . 0.98
C68 H68C . 0.98
C69 H69A . 0.98
C69 H69B . 0.98
C69 H69C . 0.98
C70 H70A . 0.98
C70 H70B . 0.98
C70 H70C . 0.98
C71 C74 . 1.513(8)
C71 C73 . 1.522(8)
C71 C72 . 1.555(10)
C72 H72A . 0.98
C72 H72B . 0.98
C72 H72C . 0.98
C73 H73A . 0.98
C73 H73B . 0.98
C73 H73C . 0.98
C74 H74A . 0.98
C74 H74B . 0.98
C74 H74C . 0.98
C75 N5 . 1.339(7)
C75 C76 . 1.376(7)
C75 H75 . 0.95
C76 C77 . 1.388(8)
C76 H76 . 0.95
C77 C78 . 1.381(9)
C77 H77 . 0.95
C78 C79 . 1.376(7)
C78 H78 . 0.95
C79 N5 . 1.334(7)
C79 H79 . 0.95
C80 N6 . 1.349(8)
C80 C81 . 1.442(8)
C80 C124 . 1.447(8)
C81 C82 . 1.342(9)
C81 H81 . 0.95
C82 C83 . 1.441(9)
C82 H82 . 0.95
C83 C84 . 1.383(9)
C83 N6 . 1.387(7)
C84 C85 . 1.394(9)
C84 C126 . 1.512(8)
C85 N7 . 1.402(7)
C85 C86 . 1.402(9)
C86 C87 . 1.358(8)
C86 H86 . 0.95
C87 C88 . 1.431(8)
C87 H87 . 0.95
C88 N7 . 1.365(8)
C88 C89 . 1.456(8)
C89 C104 . 1.409(8)
C89 C90 . 1.418(9)
C90 C91 . 1.436(8)
C90 C102 . 1.464(8)
C91 C92 . 1.355(9)
C91 H91 . 0.95
C92 C93 . 1.454(9)
C92 H92 . 0.95
C93 C98 . 1.384(9)
C93 C94 . 1.414(10)
C94 C95 . 1.413(10)
C94 H94 . 0.95
C95 C96 . 1.349(10)
C95 H95 . 0.95
C96 C97 . 1.424(10)
C96 H96 . 0.95
C97 C99 . 1.387(9)
C97 C98 . 1.417(9)
C98 C102 . 1.423(9)
C99 C100 . 1.363(9)
C99 H99 . 0.95
C100 C101 . 1.427(8)
C100 H100 . 0.95
C101 C102 . 1.382(9)
C101 C103 . 1.435(9)
C103 C105 . 1.360(8)
C103 C104 . 1.443(7)
C104 N8 . 1.365(8)
C105 C106 . 1.412(8)
C105 H105 . 0.95
C106 C107 . 1.393(8)
C106 N8 . 1.403(7)
C107 C108 . 1.404(9)
C107 C140 . 1.487(8)
C108 N9 . 1.388(7)
C108 C109 . 1.414(9)
C109 C110 . 1.386(9)
C109 H109 . 0.95
C110 C111 . 1.414(9)
C110 C125 . 1.431(9)
C111 C112 . 1.395(8)
C111 C123 . 1.423(8)
C112 C113 . 1.378(9)
C112 H112 . 0.95
C113 C114 . 1.431(9)
C113 H113 . 0.95
C114 C119 . 1.383(9)
C114 C115 . 1.414(9)
C115 C116 . 1.387(9)
C115 H115 . 0.95
C116 C117 . 1.369(9)
C116 H116 . 0.95
C117 C118 . 1.406(9)
C117 H117 . 0.95
C118 C119 . 1.427(9)
C118 C120 . 1.428(9)
C119 C123 . 1.439(9)
C120 C121 . 1.348(9)
C120 H120 . 0.95
C121 C122 . 1.455(8)
C121 H121 . 0.95
C122 C124 . 1.406(9)
C122 C123 . 1.424(8)
C124 C125 . 1.420(8)
C125 N9 . 1.364(8)
C126 C131 . 1.388(9)
C126 C127 . 1.394(8)
C127 C128 . 1.422(9)
C127 H127 . 0.95
C128 C129 . 1.396(11)
C128 C132 . 1.511(10)
C129 C130 . 1.378(10)
C129 H129 . 0.95
C130 C131 . 1.381(8)
C130 C136 . 1.531(11)
C131 H131 . 0.95
C132 C133 . 1.511(10)
C132 C134 . 1.533(12)
C132 C135 . 1.554(10)
C133 H13A . 0.98
C133 H13B . 0.98
C133 H13C . 0.98
C134 H13D . 0.98
C134 H13E . 0.98
C134 H13F . 0.98
C135 H13G . 0.98
C135 H13H . 0.98
C135 H13I . 0.98
C136 C139 . 1.525(11)
C136 C138 . 1.530(11)
C136 C137 . 1.540(11)
C137 H13J . 0.98
C137 H13K . 0.98
C137 H13L . 0.98
C138 H13M . 0.98
C138 H13N . 0.98
C138 H13O . 0.98
C139 H13P . 0.98
C139 H13Q . 0.98
C139 H13R . 0.98
C140 C141 . 1.376(8)
C140 C145 . 1.395(8)
C141 C142 . 1.395(8)
C141 H141 . 0.95
C142 C143 . 1.379(9)
C142 C146 . 1.541(9)
C143 C144 . 1.395(9)
C143 H143 . 0.95
C144 C145 . 1.385(8)
C144 C150 . 1.541(9)
C145 H145 . 0.95
C146 C148 . 1.519(11)
C146 C147 . 1.529(11)
C146 C149 . 1.531(10)
C147 H14A . 0.98
C147 H14B . 0.98
C147 H14C . 0.98
C148 H14D . 0.98
C148 H14E . 0.98
C148 H14F . 0.98
C149 H14G . 0.98
C149 H14H . 0.98
C149 H14I . 0.98
C150 C3' . 1.363(17)
C150 C152 . 1.424(13)
C150 C153 . 1.577(15)
C150 C1' . 1.593(18)
C150 C2' . 1.60(2)
C150 C151 . 1.645(15)
C151 H15A . 0.98
C151 H15B . 0.98
C151 H15C . 0.98
C152 H15D . 0.98
C152 H15E . 0.98
C152 H15F . 0.98
C153 H15G . 0.98
C153 H15H . 0.98
C153 H15J . 0.98
C1' H1'A . 0.98
C1' H1'B . 0.98
C1' H1'C . 0.98
C2' H2'A . 0.98
C2' H2'B . 0.98
C2' H2'C . 0.98
C3' H3'1 . 0.98
C3' H3'2 . 0.98
C3' H3'3 . 0.98
C154 N10 . 1.329(7)
C154 C155 . 1.375(7)
C154 H154 . 0.95
C155 C156 . 1.366(8)
C155 H155 . 0.95
C156 C157 . 1.379(8)
C156 H156 . 0.95
C157 C158 . 1.374(7)
C157 H157 . 0.95
C158 N10 . 1.336(7)
C158 H158 . 0.95
C159 C160 . 1.3935(10)
C159 C164 . 1.3936(10)
C159 H159 . 0.95
C160 C161 . 1.3934(10)
C160 H160 . 0.95
C161 C162 . 1.3932(10)
C161 H161 . 0.95
C162 C163 . 1.3934(10)
C162 H162 . 0.95
C163 C164 . 1.3935(10)
C163 H163 . 0.95
C164 H164 . 0.95
C165 C166 . 1.367(8)
C165 C170 . 1.379(9)
C165 H165 . 0.95
C166 C167 . 1.368(9)
C166 H166 . 0.95
C167 C168 . 1.377(9)
C167 H167 . 0.95
C168 C169 . 1.384(9)
C168 H168 . 0.95
C169 C170 . 1.376(9)
C169 H169 . 0.95
C170 H170 . 0.95
C171 C172 . 1.364(8)
C171 C176 . 1.365(8)
C171 H171 . 0.95
C172 C173 . 1.358(8)
C172 H172 . 0.95
C173 C174 . 1.387(8)
C173 H173 . 0.95
C174 C175 . 1.385(8)
C174 H174 . 0.95
C175 C176 . 1.365(8)
C175 H175 . 0.95
C176 H176 . 0.95
C177 C182 . 1.362(8)
C177 C178 . 1.379(9)
C177 H177 . 0.95
C178 C179 . 1.372(8)
C178 H178 . 0.95
C179 C180 . 1.360(8)
C179 H179 . 0.95
C180 C181 . 1.378(9)
C180 H180 . 0.95
C181 C182 . 1.371(9)
C181 H181 . 0.95
C182 H182 . 0.95
C183 C185 2_766 1.380(12)
C183 C184 . 1.411(12)
C183 H183 . 0.95
C184 C185 . 1.381(12)
C184 H184 . 0.95
C185 C183 2_766 1.380(12)
C185 H185 . 0.95
C186 C191 . 1.348(9)
C186 C187 . 1.382(11)
C186 H186 . 0.95
C187 C188 . 1.391(11)
C187 H187 . 0.95
C188 C189 . 1.357(10)
C188 H188 . 0.95
C189 C190 . 1.394(10)
C189 H189 . 0.95
C190 C191 . 1.375(9)
C190 H190 . 0.95
C191 H191 . 0.95
C192 C197 . 1.348(14)
C192 C193 . 1.361(14)
C192 H192 . 0.95
C193 C194 . 1.394(14)
C193 H193 . 0.95
C194 C195 . 1.386(14)
C194 H194 . 0.95
C195 C196 . 1.384(14)
C195 H195 . 0.95
C196 C197 . 1.373(15)
C196 H196 . 0.95
C197 H197 . 0.95
N1 Zn1 . 2.111(5)
N2 Zn1 . 2.090(5)
N3 Zn1 . 2.082(5)
N4 Zn1 . 2.066(5)
N5 Zn1 . 2.153(4)
N6 Zn2 . 2.105(5)
N7 Zn2 . 2.087(5)
N8 Zn2 . 2.084(4)
N9 Zn2 . 2.082(6)
N10 Zn2 . 2.152(4)
