#------------------------------------------------------------------------------
#$Date: 2017-10-03 05:15:13 +0300 (Tue, 03 Oct 2017) $
#$Revision: 201570 $
#$URL: file:///home/coder/svn-repositories/cod/cif/7/12/07/7120731.cif $
#------------------------------------------------------------------------------
#
# This file is available in the Crystallography Open Database (COD),
# http://www.crystallography.net/
#
# All data on this site have been placed in the public domain by the
# contributors.
#
data_7120731
loop_
_publ_author_name
'Song, JX'
'zhang, senmiao'
'Kim, Jun Oh'
'Li, Yajie'
'Wen, Bin'
'Zhou, Mingbo'
'Liu, Shubin'
'Aratani, Naoki'
'Xu, Ling'
'Kim, Dongho'
_publ_section_title
;
 Meso-to-meso 2,5-Pyrrolylene Bridged Zig-zag Porphyrin Arrays
;
_journal_name_full               'Chem. Commun.'
_journal_paper_doi               10.1039/C7CC06793C
_journal_year                    2017
_chemical_formula_moiety         'C81 H84 N8 Zn1.5'
_chemical_formula_sum            'C81 H84 N8 Zn1.5'
_chemical_formula_weight         1267.61
_space_group_crystal_system      triclinic
_space_group_IT_number           2
_space_group_name_Hall           '-P 1'
_space_group_name_H-M_alt        'P -1'
_symmetry_space_group_name_Hall  '-P 1'
_symmetry_space_group_name_H-M   'P -1'
_atom_sites_solution_hydrogens   geom
_audit_creation_date             2015-05-27
_audit_creation_method
;
Olex2 1.2
(compiled 2015.01.26 svn.r3150 for OlexSys, GUI svn.r4998)
;
_audit_update_record
;
2017-07-27 deposited with the CCDC.
2017-10-02 downloaded from the CCDC.
;
_cell_angle_alpha                95.630(3)
_cell_angle_beta                 95.061(3)
_cell_angle_gamma                104.331(3)
_cell_formula_units_Z            2
_cell_length_a                   9.3496(4)
_cell_length_b                   15.1615(5)
_cell_length_c                   30.0085(12)
_cell_measurement_reflns_used    5444
_cell_measurement_temperature    293(2)
_cell_measurement_theta_max      71.7950
_cell_measurement_theta_min      4.5140
_cell_volume                     4073.6(3)
_computing_molecular_graphics    'Olex2 (Dolomanov et al., 2009)'
_computing_publication_material  'Olex2 (Dolomanov et al., 2009)'
_computing_structure_refinement  'ShelXL (Sheldrick, 2008)'
_diffrn_ambient_temperature      293(2)
_diffrn_measured_fraction_theta_full 0.999
_diffrn_measured_fraction_theta_max 0.999
_diffrn_measurement_device_type  supernova
_diffrn_radiation_type           CuK\a
_diffrn_radiation_wavelength     1.54184
_diffrn_reflns_av_R_equivalents  0.0694
_diffrn_reflns_av_unetI/netI     0.0834
_diffrn_reflns_Laue_measured_fraction_full 0.999
_diffrn_reflns_Laue_measured_fraction_max 0.999
_diffrn_reflns_limit_h_max       11
_diffrn_reflns_limit_h_min       -9
_diffrn_reflns_limit_k_max       16
_diffrn_reflns_limit_k_min       -18
_diffrn_reflns_limit_l_max       35
_diffrn_reflns_limit_l_min       -35
_diffrn_reflns_number            43065
_diffrn_reflns_point_group_measured_fraction_full 0.999
_diffrn_reflns_point_group_measured_fraction_max 0.999
_diffrn_reflns_theta_full        67.399
_diffrn_reflns_theta_max         67.399
_diffrn_reflns_theta_min         4.510
_exptl_absorpt_coefficient_mu    0.891
_exptl_crystal_colour            red
_exptl_crystal_density_diffrn    1.033
_exptl_crystal_description       block
_exptl_crystal_F_000             1342
_exptl_crystal_size_max          0.4
_exptl_crystal_size_mid          0.3
_exptl_crystal_size_min          0.2
_refine_diff_density_max         1.298
_refine_diff_density_min         -0.476
_refine_diff_density_rms         0.094
_refine_ls_extinction_method     none
_refine_ls_goodness_of_fit_ref   1.095
_refine_ls_hydrogen_treatment    constr
_refine_ls_matrix_type           full
_refine_ls_number_parameters     835
_refine_ls_number_reflns         14618
_refine_ls_number_restraints     6
_refine_ls_restrained_S_all      1.097
_refine_ls_R_factor_all          0.1742
_refine_ls_R_factor_gt           0.1137
_refine_ls_shift/su_max          0.000
_refine_ls_shift/su_mean         0.000
_refine_ls_structure_factor_coef Fsqd
_refine_ls_weighting_details
'w=1/[\s^2^(Fo^2^)+(0.2000P)^2^] where P=(Fo^2^+2Fc^2^)/3'
_refine_ls_weighting_scheme      calc
_refine_ls_wR_factor_gt          0.3150
_refine_ls_wR_factor_ref         0.3688
_reflns_Friedel_coverage         0.000
_reflns_number_gt                7397
_reflns_number_total             14618
_reflns_threshold_expression     'I > 2\s(I)'
_cod_data_source_file            c7cc06793c2.cif
_cod_data_source_block           exp_19_1_smart_sq
_cod_original_formula_sum        'C81 H84 N8 Zn1.50'
_cod_database_code               7120731
_shelx_space_group_comment
;
The symmetry employed for this shelxl refinement is uniquely defined
by the following loop, which should always be used as a source of
symmetry information in preference to the above space-group names.
They are only intended as comments.
;
_olex2_refinement_description
;
1. Fixed Uiso
 At 1.2 times of:
  All C(H) groups, All N(H) groups
 At 1.5 times of:
  All C(H,H,H) groups
2. Uiso/Uaniso restraints and constraints
Uanis(C85) \\sim Ueq: with sigma of 0.01 and sigma for terminal atoms of 0.02
3.a Aromatic/amide H refined with riding coordinates:
 C4(H4), N0AA(H0AA), C30(H30), C36(H36), C41(H41), C46(H46), C55(H55),
 C60(H60), C63(H63), C65(H65), C71(H71), C73(H73), C1CA(H1CA), C4CA(H4CA),
 C0CA(H0CA), C2CA(H2CA), C22(H22), C29(H29), C6AA(H6AA), C33(H33), C0BA(H0BA),
 C1AA(H1AA), C52(H52), C76(H76), C90(H90), C6(H6), C8(H8), C10(H10), C11(H11),
 C13(H13)
3.b Idealised Me refined as rotating group:
 C1(H1A,H1B,H1C), C1BA(H1BA,H1BB,H1BC), C2BA(H2BA,H2BB,H2BC), C38(H38A,H38B,
 H38C), C5AA(H5AA,H5AB,H5AC), C19(H19A,H19B,H19C), C57(H57A,H57B,H57C),
 C3AA(H3AA,H3AB,H3AC), C3BA(H3BA,H3BB,H3BC), C69(H69A,H69B,H69C), C84(H84A,H84B,
 H84C), C85(H85A,H85B,H85C), C94(H94A,H94B,H94C), C9BA(H9BA,H9BB,H9BC),
 C6BA(H6BA,H6BB,H6BC), C4BA(H4BA,H4BB,H4BC), C5CA(H5CA,H5CB,H5CC), C7BA(H7BA,
 H7BB,H7BC)
;
_shelx_res_file
;
    exp_19_1_smart_sq.res created by SHELXL-2014/7

TITL exp_19_1_smart in P-1 #2
REM reset to P-1 #2
CELL 1.54184 9.3496 15.161466 30.008494 95.6304 95.061 104.3305
ZERR 2 0.00035 0.000451 0.001179 0.0028 0.0032 0.0029
LATT 1
SFAC C H N Zn
UNIT 162 168 16 3
ISOR 0.01 0.02 C85

L.S. 40 0 103
PLAN  20
ABIN
fmap 2 53
acta
SHEL 999 0.835
REM <olex2.extras>
REM <HklSrc "%.\\exp_19_1_smart_sq.hkl">
REM </olex2.extras>

WGHT    0.200000
FVAR       3.69845
ZN1   4    0.008885    0.820980    0.351903    11.00000    0.11746    0.04793 =
         0.06114   -0.00342    0.01602   -0.02001
ZN3   4    0.000000    1.000000    0.000000    10.50000    0.08231    0.03731 =
         0.07091   -0.00326    0.00051   -0.03327
C1    1    0.606771    1.606904    0.114353    11.00000    0.04937    0.02832 =
         0.08691   -0.01125   -0.00440   -0.01220
AFIX 137
H1A   2    0.581330    1.661528    0.126092    11.00000   -1.50000
H1B   2    0.665143    1.619744    0.089873    11.00000   -1.50000
H1C   2    0.663052    1.586581    0.137732    11.00000   -1.50000
AFIX   0
C4    1   -0.344313    0.455313    0.271918    11.00000    0.04698    0.04667 =
         0.07986    0.00961    0.00065   -0.00609
AFIX  43
H4    2   -0.246676    0.451785    0.271059    11.00000   -1.20000
AFIX   0
C5BA  1    0.479580    1.351396    0.442029    11.00000    0.09486    0.05963 =
         0.21969   -0.04758    0.06901   -0.01887
C1BA  1    0.375618    1.514977    0.137884    11.00000    0.05788    0.04308 =
         0.10736   -0.01463    0.01920   -0.00763
AFIX 137
H1BA  2    0.429135    1.489459    0.159834    11.00000   -1.50000
H1BB  2    0.280469    1.472971    0.127924    11.00000   -1.50000
H1BC  2    0.361815    1.572067    0.151175    11.00000   -1.50000
AFIX   0
C2BA  1    0.923469    1.239789    0.374989    11.00000    0.08346    0.18622 =
         0.18984    0.11041    0.06449    0.04667
AFIX 137
H2BA  2    0.883082    1.221057    0.343991    11.00000   -1.50000
H2BB  2    1.028330    1.244741    0.378015    11.00000   -1.50000
H2BC  2    0.906656    1.298223    0.384754    11.00000   -1.50000
AFIX   0
N0AA  3   -0.099013    0.953672    0.180899    11.00000    0.07205    0.03898 =
         0.06931   -0.00360    0.01316   -0.00030
AFIX  43
H0AA  2   -0.060439    0.909638    0.172648    11.00000   -1.20000
AFIX   0
N13   3    0.190555    0.855124    0.399891    11.00000    0.15670    0.07119 =
         0.05247    0.00074    0.01655   -0.03145
N16   3    0.064743    1.092419    0.057200    11.00000    0.05132    0.02907 =
         0.08245    0.00196   -0.00370   -0.00291
C18   1    0.669069    1.348843    0.061474    11.00000    0.03802    0.03910 =
         0.07167    0.00503    0.00208    0.00456
C20   1   -0.100372    1.009149    0.107330    11.00000    0.05649    0.03960 =
         0.08050    0.00461   -0.00020    0.00382
C21   1    0.512698    1.260571    0.427896    11.00000    0.06893    0.05779 =
         0.09449   -0.00795    0.01536   -0.01281
C23   1   -0.461599    0.377389    0.256217    11.00000    0.06333    0.04587 =
         0.08453    0.01440   -0.00873   -0.00852
C25   1    0.691343    1.173576    0.407020    11.00000    0.07101    0.08053 =
         0.06544    0.01184    0.01743    0.00837
C28   1   -0.135548    1.011812    0.153744    11.00000    0.06664    0.03725 =
         0.08510    0.00001    0.00590    0.00076
C30   1   -0.192330    1.071435    0.180259    11.00000    0.12468    0.06035 =
         0.12065    0.00594    0.03055    0.03667
AFIX  43
H30   2   -0.226005    1.120110    0.170789    11.00000   -1.20000
AFIX   0
C32   1    0.464433    1.531693    0.097380    11.00000    0.02867    0.02962 =
         0.08530   -0.00324    0.00211   -0.00804
C36   1   -0.603360    0.384381    0.258066    11.00000    0.05280    0.07697 =
         0.12364    0.03430    0.00667   -0.01589
AFIX  43
H36   2   -0.681356    0.332815    0.248202    11.00000   -1.20000
AFIX   0
C38   1    0.376938    1.565348    0.060500    11.00000    0.04185    0.03329 =
         0.11488   -0.00800   -0.01149    0.00402
AFIX 137
H38A  2    0.359735    1.622871    0.071743    11.00000   -1.50000
H38B  2    0.283387    1.521081    0.051369    11.00000   -1.50000
H38C  2    0.432453    1.573339    0.035105    11.00000   -1.50000
AFIX   0
N39   3    0.089952    0.946049    0.329682    11.00000    0.09535    0.04785 =
         0.06712   -0.00265    0.02051   -0.00819
C41   1    0.546475    1.275223    0.046006    11.00000    0.03993    0.02823 =
         0.08334   -0.00119   -0.00157    0.00525
AFIX  43
H41   2    0.561683    1.219122    0.035059    11.00000   -1.20000
AFIX   0
C44   1    0.402306    1.283905    0.046604    11.00000    0.03592    0.02694 =
         0.08692   -0.00291   -0.00047   -0.00587
C46   1    0.639543    1.431740    0.077782    11.00000    0.02299    0.03770 =
         0.06951    0.00161   -0.00783   -0.00526
AFIX  43
H46   2    0.719540    1.481898    0.088093    11.00000   -1.20000
AFIX   0
C48   1    0.496904    1.442528    0.079276    11.00000    0.03413    0.02828 =
         0.07855   -0.00079   -0.00348   -0.00805
C49   1   -0.087941    0.925445    0.261656    11.00000    0.09628    0.04902 =
         0.07141   -0.01662    0.02686    0.00419
C51   1   -0.371354    0.535787    0.288344    11.00000    0.05132    0.05234 =
         0.08513    0.00707    0.01668   -0.00707
C55   1    0.658980    1.253119    0.422792    11.00000    0.05872    0.06604 =
         0.07883   -0.00456    0.00959   -0.00791
AFIX  43
H55   2    0.737201    1.305415    0.430642    11.00000   -1.20000
AFIX   0
N57   3   -0.134869    0.780199    0.293197    11.00000    0.10278    0.04939 =
         0.06950   -0.00703    0.03158   -0.00680
C60   1    0.335130    0.850837    0.464205    11.00000    0.19712    0.11282 =
         0.05942    0.00602   -0.00071   -0.04580
AFIX  43
H60   2    0.374164    0.830339    0.489618    11.00000   -1.20000
AFIX   0
C62   1   -0.132309    0.974666    0.224219    11.00000    0.09362    0.04752 =
         0.07197   -0.00893    0.02436   -0.00360
C63   1    0.137592    0.708835    0.430802    11.00000    0.16798    0.09048 =
         0.07933    0.01817    0.00899   -0.02285
AFIX  43
H63   2    0.164042    0.679447    0.454811    11.00000   -1.20000
AFIX   0
C65   1    0.571139    1.094880    0.396675    11.00000    0.08322    0.07002 =
         0.06789   -0.00182    0.01708    0.00999
AFIX  43
H65   2    0.588965    1.039087    0.386483    11.00000   -1.20000
AFIX   0
C68   1    0.014073    1.082993    0.098040    11.00000    0.05882    0.03318 =
         0.07092    0.00569   -0.00079    0.00437
N70   3   -0.036757    0.686076    0.363644    11.00000    0.13230    0.06352 =
         0.06392    0.00468    0.01736   -0.02068
C71   1    0.377725    1.365971    0.062635    11.00000    0.02849    0.03441 =
         0.08402   -0.00165   -0.00378   -0.00573
AFIX  43
H71   2    0.280704    1.371266    0.062536    11.00000   -1.20000
AFIX   0
C73   1   -0.190532    1.046082    0.223824    11.00000    0.15285    0.07158 =
         0.09305   -0.00291    0.04413    0.03783
AFIX  43
H73   2   -0.224215    1.074301    0.248239    11.00000   -1.20000
AFIX   0
C75   1   -0.177758    0.933961    0.076774    11.00000    0.06400    0.03453 =
         0.08012    0.00099    0.00072   -0.00672
C77   1   -0.428788    0.289149    0.237268    11.00000    0.08628    0.04313 =
         0.09418    0.00462   -0.01636   -0.01011
C1CA  1    0.222389    1.092476    0.322591    11.00000    0.09569    0.05100 =
         0.09334   -0.00701    0.02940   -0.01109
AFIX  43
H1CA  2    0.293991    1.148277    0.328629    11.00000   -1.20000
AFIX   0
C4CA  1    0.099575    1.155354    0.130558    11.00000    0.06420    0.04066 =
         0.07485    0.00180   -0.00479   -0.00252
AFIX  43
H4CA  2    0.085273    1.164953    0.160747    11.00000   -1.20000
AFIX   0
N6    3    0.152789    1.081785   -0.032602    11.00000    0.05758    0.02742 =
         0.08420    0.00303   -0.00441   -0.00547
C0CA  1    0.402716    1.179059    0.417020    11.00000    0.05691    0.05977 =
         0.11151   -0.01271    0.01929   -0.01045
AFIX  43
H0CA  2    0.305402    1.179932    0.420815    11.00000   -1.20000
AFIX   0
C9AA  1    0.829154    1.340691    0.060925    11.00000    0.02935    0.05529 =
         0.09444    0.00415   -0.00163    0.01251
C2CA  1    0.380525    0.935848    0.451583    11.00000    0.16225    0.09091 =
         0.07083   -0.00933    0.01277   -0.03633
AFIX  43
H2CA  2    0.457801    0.983470    0.466496    11.00000   -1.20000
AFIX   0
C3CA  1    0.851774    1.172617    0.402377    11.00000    0.08427    0.12248 =
         0.08293    0.01903    0.03682    0.02915
C5AA  1    0.913453    1.412639    0.035488    11.00000    0.04809    0.09641 =
         0.19210    0.04231    0.02611    0.01620
AFIX 137
H5AA  2    0.891609    1.392415    0.003724    11.00000   -1.50000
H5AB  2    1.018109    1.423048    0.044260    11.00000   -1.50000
H5AC  2    0.884740    1.468626    0.042156    11.00000   -1.50000
AFIX   0
C19   1   -0.576002    0.210992    0.225178    11.00000    0.14465    0.06963 =
         0.14995    0.00577   -0.02867   -0.03785
AFIX 137
H19A  2   -0.639165    0.213604    0.248554    11.00000   -1.50000
H19B  2   -0.553004    0.152537    0.222460    11.00000   -1.50000
H19C  2   -0.626120    0.218904    0.197106    11.00000   -1.50000
AFIX   0
C22   1   -0.282285    0.782594    0.229173    11.00000    0.10252    0.04867 =
         0.07276   -0.01079    0.02203   -0.00773
AFIX  43
H22   2   -0.322070    0.803619    0.204046    11.00000   -1.20000
AFIX   0
C24   1    0.184185    1.169604    0.063244    11.00000    0.05436    0.03595 =
         0.08018   -0.00161   -0.01412    0.00147
C26   1    0.428102    1.099101    0.401375    11.00000    0.07502    0.06993 =
         0.07757   -0.01789    0.02087   -0.00251
C2AA  1   -0.164479    0.834040    0.261635    11.00000    0.09763    0.04832 =
         0.07298   -0.00271    0.03136   -0.00655
C29   1   -0.517794    0.539169    0.289329    11.00000    0.08989    0.07092 =
         0.11719    0.02659    0.05243    0.01683
AFIX  43
H29   2   -0.537150    0.593736    0.300798    11.00000   -1.20000
AFIX   0
C6AA  1    0.204472    1.207216    0.109857    11.00000    0.06149    0.03965 =
         0.08803   -0.00028   -0.00209   -0.01392
AFIX  43
H6AA  2    0.277733    1.258639    0.123298    11.00000   -1.20000
AFIX   0
C33   1    0.297459    1.138231   -0.087180    11.00000    0.07505    0.04281 =
         0.09004    0.00582    0.01130   -0.01110
AFIX  43
H33   2    0.335073    1.143356   -0.114756    11.00000   -1.20000
AFIX   0
C7AA  1    0.287483    0.939743    0.410670    11.00000    0.14379    0.08135 =
         0.05395   -0.00702    0.02276   -0.02912
C8AA  1    0.217418    0.798686    0.431728    11.00000    0.15796    0.08047 =
         0.06615   -0.00880    0.00602   -0.03070
C45   1    0.030384    0.976235    0.293012    11.00000    0.08093    0.05608 =
         0.07170   -0.01004    0.02911   -0.00391
C0BA  1    0.116791    1.068171    0.288422    11.00000    0.09394    0.05048 =
         0.07513   -0.00598    0.02369   -0.00887
AFIX  43
H0BA  2    0.100463    1.103152    0.265638    11.00000   -1.20000
AFIX   0
C1AA  1   -0.157367    0.535989    0.366326    11.00000    0.14323    0.06289 =
         0.08907    0.01104    0.01760   -0.01580
AFIX  43
H1AA  2   -0.223096    0.478231    0.358982    11.00000   -1.20000
AFIX   0
C52   1   -0.051403    0.560997    0.401188    11.00000    0.16920    0.08729 =
         0.08749    0.02832    0.00469   -0.01805
AFIX  43
H52   2   -0.029773    0.524458    0.422646    11.00000   -1.20000
AFIX   0
C53   1    0.023314    0.655654    0.399246    11.00000    0.16320    0.07744 =
         0.06930    0.01038    0.00018   -0.02971
C56   1    0.301509    1.013490    0.386872    11.00000    0.09352    0.05269 =
         0.07707   -0.01040    0.01285   -0.00807
C57   1   -0.368409    0.303283    0.194898    11.00000    0.18874    0.07562 =
         0.19857   -0.00294    0.09430    0.02761
AFIX 137
H57A  2   -0.410157    0.346638    0.180590    11.00000   -1.50000
H57B  2   -0.392732    0.246044    0.175566    11.00000   -1.50000
H57C  2   -0.262353    0.326526    0.200477    11.00000   -1.50000
AFIX   0
C0AA  1   -0.636103    0.464410    0.273890    11.00000    0.04498    0.11850 =
         0.11654    0.05406    0.02140    0.00795
C3AA  1    0.348637    1.339891    0.465927    11.00000    0.28883    0.07954 =
         0.42433   -0.06092    0.27161   -0.00266
AFIX 137
H3AA  2    0.264912    1.299403    0.447224    11.00000   -1.50000
H3AB  2    0.328540    1.398446    0.473053    11.00000   -1.50000
H3AC  2    0.366070    1.314234    0.493271    11.00000   -1.50000
AFIX   0
C3BA  1    0.908982    1.362822    0.108480    11.00000    0.06865    0.15039 =
         0.12754   -0.02055   -0.01676    0.04700
AFIX 137
H3BA  2    0.919252    1.426151    0.119101    11.00000   -1.50000
H3BB  2    1.005636    1.351597    0.108518    11.00000   -1.50000
H3BC  2    0.852587    1.324729    0.127921    11.00000   -1.50000
AFIX   0
C4AA  1    0.273200    1.201311    0.031167    11.00000    0.03526    0.02708 =
         0.08252    0.00259   -0.00004   -0.00535
C69   1    0.614642    1.423704    0.461468    11.00000    0.14399    0.14642 =
         0.44112   -0.18827   -0.04375    0.01917
AFIX 137
H69A  2    0.632352    1.421075    0.493252    11.00000   -1.50000
H69B  2    0.600665    1.482783    0.456555    11.00000   -1.50000
H69C  2    0.698407    1.414096    0.447189    11.00000   -1.50000
AFIX   0
C74   1    0.206952    1.016779    0.349025    11.00000    0.09308    0.05086 =
         0.07216   -0.00236    0.02878   -0.00609
C76   1    0.344561    1.197438   -0.048646    11.00000    0.06463    0.04287 =
         0.09137    0.00286    0.00027   -0.01934
AFIX  43
H76   2    0.420719    1.251194   -0.045092    11.00000   -1.20000
AFIX   0
C78   1   -0.246077    0.619368    0.304660    11.00000    0.08531    0.04114 =
         0.06920   -0.00406    0.02455   -0.00627
C84   1    0.835789    1.246462    0.044780    11.00000    0.04481    0.07221 =
         0.34272    0.00332   -0.00231    0.03409
AFIX 137
H84A  2    0.799781    1.206092    0.066361    11.00000   -1.50000
H84B  2    0.936733    1.246305    0.041167    11.00000   -1.50000
H84C  2    0.775155    1.225904    0.016346    11.00000   -1.50000
AFIX   0
C85   1   -0.805825    0.564957    0.295426    11.00000    0.15630    0.26275 =
         0.28762    0.03453    0.11316    0.08013
AFIX 137
H85A  2   -0.757872    0.575473    0.325807    11.00000   -1.50000
H85B  2   -0.906978    0.568281    0.295640    11.00000   -1.50000
H85C  2   -0.754378    0.610792    0.278435    11.00000   -1.50000
AFIX   0
C88   1   -0.234901    0.693259    0.281352    11.00000    0.08393    0.05157 =
         0.07543   -0.00912    0.02857   -0.01018
C90   1   -0.326747    0.696691    0.241445    11.00000    0.09760    0.05277 =
         0.07876   -0.01034    0.02435   -0.00903
AFIX  43
H90   2   -0.403430    0.648837    0.226425    11.00000   -1.20000
AFIX   0
C94   1   -0.344199    0.258248    0.273326    11.00000    0.20561    0.08371 =
         0.21053   -0.02209   -0.08014    0.07688
AFIX 137
H94A  2   -0.240115    0.277112    0.270167    11.00000   -1.50000
H94B  2   -0.375344    0.192578    0.271378    11.00000   -1.50000
H94C  2   -0.361726    0.284813    0.302051    11.00000   -1.50000
AFIX   0
C95   1   -0.152728    0.614884    0.341554    11.00000    0.09556    0.05093 =
         0.09568    0.00466    0.04012   -0.00872
C98   1    0.256110    1.162434   -0.014386    11.00000    0.05406    0.03485 =
         0.08011    0.01050   -0.00320   -0.00961
C8BA  1   -0.802940    0.466760    0.273041    11.00000    0.06746    0.14177 =
         0.18117    0.06637    0.04154    0.01530
C9BA  1   -0.867910    0.413095    0.308361    11.00000    0.07394    0.26358 =
         0.19480    0.11906    0.06527    0.03150
AFIX 137
H9BA  2   -0.909775    0.350307    0.295735    11.00000   -1.50000
H9BB  2   -0.944374    0.438025    0.319719    11.00000   -1.50000
H9BC  2   -0.791703    0.416160    0.332528    11.00000   -1.50000
AFIX   0
C6BA  1   -0.874352    0.460157    0.230557    11.00000    0.08805    0.36767 =
         0.20759    0.16011    0.04942    0.11481
AFIX 137
H6BA  2   -0.807458    0.493780    0.211972    11.00000   -1.50000
H6BB  2   -0.958861    0.485189    0.232032    11.00000   -1.50000
H6BC  2   -0.906834    0.396869    0.217866    11.00000   -1.50000
AFIX   0
C4BA  1    0.445044    1.393916    0.400439    11.00000    0.45798    0.19408 =
         0.39315    0.15052    0.25163    0.21076
AFIX 137
H4BA  2    0.485171    1.367703    0.375548    11.00000   -1.50000
H4BB  2    0.488655    1.458919    0.405663    11.00000   -1.50000
H4BC  2    0.339288    1.382234    0.393589    11.00000   -1.50000
AFIX   0
C5CA  1    0.850297    1.070982    0.379310    11.00000    0.10783    0.21265 =
         0.35027    0.05605    0.12200    0.06035
AFIX 137
H5CA  2    0.801627    1.060942    0.349029    11.00000   -1.50000
H5CB  2    0.797811    1.025789    0.396437    11.00000   -1.50000
H5CC  2    0.950581    1.066079    0.378816    11.00000   -1.50000
AFIX   0
C7BA  1    0.932405    1.185608    0.446898    11.00000    0.08591    0.37358 =
         0.13244    0.11299    0.03621    0.06384
AFIX 137
H7BA  2    1.037064    1.198163    0.444521    11.00000   -1.50000
H7BB  2    0.901675    1.130994    0.461060    11.00000   -1.50000
H7BC  2    0.912029    1.236294    0.464681    11.00000   -1.50000
AFIX   0
N2    3   -0.135529    0.850755    0.399706    11.00000    0.19691    0.09441 =
         0.12006   -0.02211    0.08731   -0.01495
C6    1   -0.268021    0.824775    0.388716    11.00000    0.19074    0.26518 =
         0.17830   -0.13033   -0.09214    0.12690
AFIX  43
H6    2   -0.308911    0.802267    0.359171    11.00000   -1.20000
AFIX   0
C8    1   -0.348519    0.830678    0.421180    11.00000    0.29988    0.20566 =
         0.09897   -0.06419    0.02530    0.01358
AFIX  43
H8    2   -0.449211    0.802555    0.413506    11.00000   -1.20000
AFIX   0
C10   1   -0.161529    0.896978    0.472393    11.00000    0.16663    0.18927 =
         0.11754    0.03858    0.02366    0.03320
AFIX  43
H10   2   -0.118769    0.926968    0.500753    11.00000   -1.20000
AFIX   0
C11   1   -0.073564    0.883827    0.443918    11.00000    0.31159    0.21507 =
         0.05397   -0.03200    0.01006    0.14404
AFIX  43
H11   2    0.028205    0.895845    0.452314    11.00000   -1.20000
AFIX   0
C13   1   -0.311291    0.871305    0.465124    11.00000    0.16621    0.18857 =
         0.16571   -0.03064    0.06013    0.01630
AFIX  43
H13   2   -0.376739    0.879484    0.485817    11.00000   -1.20000
AFIX   0
HKLF 4

REM  exp_19_1_smart in P-1 #2
REM R1 =  0.1137 for    7397 Fo > 4sig(Fo)  and  0.1742 for all   14618 data
REM    835 parameters refined using      6 restraints

END

WGHT      0.2000      0.0000

REM Highest difference peak  1.298,  deepest hole -0.476,  1-sigma level  0.094
Q1    1   0.0664  0.8046  0.3375  11.00000  0.05    1.29
Q2    1   0.0553  1.1361 -0.0167  11.00000  0.05    0.90
Q3    1  -0.1614  1.0786 -0.0210  11.00000  0.05    0.86
Q4    1   0.1654  1.0386  0.0550  11.00000  0.05    0.70
Q5    1   0.1718  1.2037  0.0039  11.00000  0.05    0.66
Q6    1   0.9438  1.4239  0.0823  11.00000  0.05    0.66
Q7    1   0.8534  1.3207  0.0133  11.00000  0.05    0.65
Q8    1  -0.3764  0.7340  0.4075  11.00000  0.05    0.61
Q9    1  -0.2225  0.2996  0.2405  11.00000  0.05    0.61
Q10   1  -0.0475  0.7242  0.2823  11.00000  0.05    0.60
Q11   1  -0.1468  0.6454  0.2768  11.00000  0.05    0.60
Q12   1   0.2648  1.1155  0.0630  11.00000  0.05    0.59
Q13   1   0.1023  0.9209  0.4027  11.00000  0.05    0.57
Q14   1  -0.4578  0.2038  0.2595  11.00000  0.05    0.55
Q15   1   0.1939  0.9057  0.3160  11.00000  0.05    0.55
Q16   1   0.5646  1.3759  0.5017  11.00000  0.05    0.54
Q17   1   0.8709  1.1384  0.3605  11.00000  0.05    0.49
Q18   1  -0.4655  0.2541  0.1829  11.00000  0.05    0.46
Q19   1   0.4323  1.3798  0.3820  11.00000  0.05    0.44
Q20   1   0.3097  0.9799  0.3319  11.00000  0.05    0.41
;
_shelx_res_checksum              35334
_shelx_fab_checksum              98873
_shelx_fab_file
;
    1    0    0     -9.56      0.00
    2    0    0     33.02      0.00
    3    0    0     14.71      0.00
    4    0    0      7.80      0.00
    5    0    0     12.74      0.00
    6    0    0      4.82      0.00
    7    0    0     -1.75      0.00
    8    0    0     -1.21      0.00
    9    0    0      3.63      0.00
   10    0    0      0.72      0.00
  -10    1    0     -0.45      0.00
   -9    1    0      1.46      0.00
   -8    1    0     -1.06      0.00
   -7    1    0     -5.23      0.00
   -6    1    0     -5.94      0.00
   -5    1    0      1.28      0.00
   -4    1    0     -6.49      0.00
   -3    1    0    -13.80      0.00
   -2    1    0     -8.93      0.00
    1    1    0     -9.94      0.00
    2    1    0      2.19      0.00
    3    1    0      0.89      0.00
    4    1    0     -3.82      0.00
    5    1    0      5.26      0.00
    6    1    0      0.32      0.00
    7    1    0     -2.52      0.00
    8    1    0     -3.04      0.00
    9    1    0      1.47      0.00
   10    1    0     -0.65      0.00
  -11    2    0     -0.81      0.00
  -10    2    0     -1.10      0.00
   -9    2    0      1.95      0.00
   -8    2    0      2.38      0.00
   -7    2    0     -4.59      0.00
   -6    2    0     -5.99      0.00
   -5    2    0     -4.54      0.00
   -4    2    0     -4.13      0.00
   -3    2    0    -14.88      0.00
   -2    2    0    -16.46      0.00
   -1    2    0   -115.18      0.00
    0    2    0     -6.51      0.00
    1    2    0    -20.11      0.00
    2    2    0    -15.29      0.00
    3    2    0    -10.26      0.00
    4    2    0     -9.12      0.00
    5    2    0     -2.31      0.00
    6    2    0      0.96      0.00
    7    2    0     -2.36      0.00
    8    2    0     -3.78      0.00
    9    2    0     -0.10      0.00
   10    2    0     -1.18      0.00
  -11    3    0     -0.13      0.00
  -10    3    0     -0.97      0.00
   -9    3    0      2.57      0.00
   -8    3    0      4.31      0.00
   -7    3    0      0.70      0.00
   -6    3    0      3.61      0.00
   -5    3    0      1.08      0.00
   -4    3    0     11.56      0.00
   -3    3    0     14.27      0.00
   -2    3    0     22.41      0.00
   -1    3    0    -27.03      0.00
    0    3    0     13.20      0.00
    1    3    0      4.05      0.00
    2    3    0      8.96      0.00
    3    3    0      7.37      0.00
    4    3    0      1.84      0.00
    5    3    0      3.79      0.00
    6    3    0      6.89      0.00
    7    3    0      2.88      0.00
    8    3    0     -0.76      0.00
    9    3    0      2.20      0.00
   10    3    0      0.02      0.00
  -11    4    0      0.63      0.00
  -10    4    0      0.04      0.00
   -9    4    0      0.17      0.00
   -8    4    0      2.41      0.00
   -7    4    0     -1.92      0.00
   -6    4    0      3.34      0.00
   -5    4    0      0.68      0.00
   -4    4    0      9.80      0.00
   -3    4    0     14.11      0.00
   -2    4    0     19.86      0.00
   -1    4    0     -0.04      0.00
    0    4    0      5.55      0.00
    1    4    0      1.43      0.00
    2    4    0      1.75      0.00
    3    4    0      2.88      0.00
    4    4    0      1.95      0.00
    5    4    0      1.57      0.00
    6    4    0      4.19      0.00
    7    4    0      1.62      0.00
    8    4    0      0.88      0.00
    9    4    0      1.14      0.00
  -11    5    0      0.52      0.00
  -10    5    0     -1.49      0.00
   -9    5    0     -1.28      0.00
   -8    5    0     -0.05      0.00
   -7    5    0     -3.79      0.00
   -6    5    0     -4.19      0.00
   -5    5    0     -1.38      0.00
   -4    5    0     -3.11      0.00
   -3    5    0      4.14      0.00
   -2    5    0     10.00      0.00
   -1    5    0     -7.24      0.00
    0    5    0     -5.32      0.00
    1    5    0    -10.18      0.00
    2    5    0    -16.62      0.00
    3    5    0     -9.67      0.00
    4    5    0     -9.97      0.00
    5    5    0     -6.47      0.00
    6    5    0     -1.75      0.00
    7    5    0     -2.22      0.00
    8    5    0     -2.09      0.00
    9    5    0     -1.01      0.00
  -11    6    0     -0.90      0.00
  -10    6    0     -1.72      0.00
   -9    6    0      0.68      0.00
   -8    6    0      1.51      0.00
   -7    6    0     -2.80      0.00
   -6    6    0     -4.04      0.00
   -5    6    0     -3.07      0.00
   -4    6    0     -4.80      0.00
   -3    6    0      2.46      0.00
   -2    6    0     14.81      0.00
   -1    6    0     -2.54      0.00
    0    6    0     13.53      0.00
    1    6    0      7.36      0.00
    2    6    0      1.86      0.00
    3    6    0      1.67      0.00
    4    6    0     -4.22      0.00
    5    6    0     -2.58      0.00
    6    6    0      0.07      0.00
    7    6    0     -0.73      0.00
    8    6    0     -1.12      0.00
    9    6    0     -1.17      0.00
  -11    7    0      0.97      0.00
  -10    7    0     -0.20      0.00
   -9    7    0      1.40      0.00
   -8    7    0      5.91      0.00
   -7    7    0     -1.80      0.00
   -6    7    0      0.11      0.00
   -5    7    0      0.19      0.00
   -4    7    0     -3.44      0.00
   -3    7    0     -7.04      0.00
   -2    7    0      3.69      0.00
   -1    7    0     -6.08      0.00
    0    7    0     11.02      0.00
    1    7    0     11.18      0.00
    2    7    0     10.93      0.00
    3    7    0      9.90      0.00
    4    7    0      4.16      0.00
    5    7    0      2.63      0.00
    6    7    0      4.89      0.00
    7    7    0      0.18      0.00
    8    7    0      1.75      0.00
  -10    8    0     -2.65      0.00
   -9    8    0     -0.52      0.00
   -8    8    0      4.12      0.00
   -7    8    0      2.25      0.00
   -6    8    0      1.35      0.00
   -5    8    0      1.41      0.00
   -4    8    0     -5.39      0.00
   -3    8    0     -3.59      0.00
   -2    8    0      2.67      0.00
   -1    8    0    -10.34      0.00
    0    8    0     -3.95      0.00
    1    8    0     -1.46      0.00
    2    8    0      0.61      0.00
    3    8    0      3.84      0.00
    4    8    0      2.03      0.00
    5    8    0     -1.28      0.00
    6    8    0      4.40      0.00
    7    8    0     -0.45      0.00
    8    8    0      1.14      0.00
  -10    9    0     -0.29      0.00
   -9    9    0     -2.48      0.00
   -8    9    0      0.52      0.00
   -7    9    0      1.80      0.00
   -6    9    0      1.38      0.00
   -5    9    0     -1.08      0.00
   -4    9    0     -1.53      0.00
   -3    9    0     -0.10      0.00
   -2    9    0      4.27      0.00
   -1    9    0     -9.95      0.00
    0    9    0     -7.06      0.00
    1    9    0     -8.56      0.00
    2    9    0     -6.37      0.00
    3    9    0     -2.03      0.00
    4    9    0     -4.06      0.00
    5    9    0     -4.59      0.00
    6    9    0     -1.16      0.00
    7    9    0     -0.73      0.00
  -10   10    0     -1.23      0.00
   -9   10    0     -0.84      0.00
   -8   10    0     -3.57      0.00
   -7   10    0     -1.34      0.00
   -6   10    0      4.53      0.00
   -5   10    0     -0.11      0.00
   -4   10    0     -0.16      0.00
   -3   10    0     -1.99      0.00
   -2   10    0      4.13      0.00
   -1   10    0     -2.90      0.00
    0   10    0     -1.79      0.00
    1   10    0     -2.60      0.00
    2   10    0     -2.74      0.00
    3   10    0     -1.09      0.00
    4   10    0     -2.11      0.00
    5   10    0     -1.22      0.00
    6   10    0     -0.39      0.00
    7   10    0      0.99      0.00
  -10   11    0      0.12      0.00
   -9   11    0     -1.91      0.00
   -8   11    0     -5.06      0.00
   -7   11    0     -1.47      0.00
   -6   11    0      2.81      0.00
   -5   11    0      2.89      0.00
   -4   11    0      1.96      0.00
   -3   11    0      0.60      0.00
   -2   11    0      5.89      0.00
   -1   11    0      7.22      0.00
    0   11    0      3.09      0.00
    1   11    0      2.72      0.00
    2   11    0      1.49      0.00
    3   11    0      1.70      0.00
    4   11    0      2.44      0.00
    5   11    0      1.00      0.00
    6   11    0      0.10      0.00
   -9   12    0      1.60      0.00
   -8   12    0     -2.03      0.00
   -7   12    0     -1.53      0.00
   -6   12    0     -2.80      0.00
   -5   12    0      0.81      0.00
   -4   12    0     -0.63      0.00
   -3   12    0     -1.45      0.00
   -2   12    0      2.69      0.00
   -1   12    0      4.90      0.00
    0   12    0      1.68      0.00
    1   12    0      4.19      0.00
    2   12    0      2.16      0.00
    3   12    0      1.77      0.00
    4   12    0      1.34      0.00
    5   12    0     -0.68      0.00
    6   12    0     -1.15      0.00
   -9   13    0      3.17      0.00
   -8   13    0     -1.14      0.00
   -7   13    0      1.87      0.00
   -6   13    0     -2.19      0.00
   -5   13    0     -0.64      0.00
   -4   13    0     -2.16      0.00
   -3   13    0     -4.09      0.00
   -2   13    0     -2.90      0.00
   -1   13    0     -3.24      0.00
    0   13    0     -2.62      0.00
    1   13    0     -0.97      0.00
    2   13    0     -0.67      0.00
    3   13    0     -1.08      0.00
    4   13    0     -0.72      0.00
    5   13    0     -0.15      0.00
   -9   14    0      2.79      0.00
   -8   14    0     -0.75      0.00
   -7   14    0      2.89      0.00
   -6   14    0     -1.51      0.00
   -5   14    0      2.71      0.00
   -4   14    0      2.23      0.00
   -3   14    0     -2.34      0.00
   -2   14    0     -0.18      0.00
   -1   14    0     -2.85      0.00
    0   14    0     -1.92      0.00
    1   14    0     -0.82      0.00
    2   14    0     -0.54      0.00
    3   14    0     -1.08      0.00
    4   14    0      1.26      0.00
   -8   15    0     -1.96      0.00
   -7   15    0      0.38      0.00
   -6   15    0      0.84      0.00
   -5   15    0      0.97      0.00
   -4   15    0      2.98      0.00
   -3   15    0     -1.50      0.00
   -2   15    0      3.75      0.00
   -1   15    0      1.52      0.00
    0   15    0     -0.07      0.00
    1   15    0      0.96      0.00
    2   15    0      0.52      0.00
    3   15    0     -0.29      0.00
   -7   16    0     -0.77      0.00
   -6   16    0     -0.65      0.00
   -5   16    0     -1.62      0.00
   -4   16    0      0.54      0.00
   -3   16    0     -0.93      0.00
   -2   16    0      1.33      0.00
   -1   16    0      0.08      0.00
    0   16    0     -1.57      0.00
    1   16    0     -0.28      0.00
    2   16    0     -0.76      0.00
   -6   17    0     -0.98      0.00
   -5   17    0     -0.59      0.00
   -4   17    0     -0.13      0.00
   -3   17    0      0.40      0.00
   -2   17    0     -0.59      0.00
   -1   17    0      0.02      0.00
    0   17    0      0.03      0.00
   -3   18    0     -0.11      0.00
   -2   18    0      0.29      0.00
    2  -18    1      0.91      0.00
    3  -18    1     -0.92      0.00
    4  -18    1     -0.41      0.00
   -1  -17    1      1.17      0.00
    0  -17    1      0.19      0.00
    1  -17    1      1.31      0.00
    2  -17    1      0.82      0.00
    3  -17    1     -0.79      0.00
    4  -17    1     -0.63      0.00
    5  -17    1     -0.63      0.00
    6  -17    1      0.19      0.00
   -2  -16    1     -0.50      0.00
   -1  -16    1     -0.84      0.00
    0  -16    1     -0.84      0.00
    1  -16    1      0.01      0.00
    2  -16    1     -0.60      0.00
    3  -16    1      0.83      0.00
    4  -16    1     -0.32      0.00
    5  -16    1     -2.35      0.00
    6  -16    1     -2.36      0.00
    7  -16    1     -0.32      0.00
   -3  -15    1      0.41      0.00
   -2  -15    1     -0.43      0.00
   -1  -15    1      0.15      0.00
    0  -15    1      0.19      0.00
    1  -15    1      2.03      0.00
    2  -15    1      0.78      0.00
    3  -15    1     -0.09      0.00
    4  -15    1      2.68      0.00
    5  -15    1     -1.57      0.00
    6  -15    1      0.27      0.00
    7  -15    1     -1.11      0.00
    8  -15    1     -0.87      0.00
   -4  -14    1      0.52      0.00
   -3  -14    1      0.13      0.00
   -2  -14    1      0.38      0.00
   -1  -14    1      1.07      0.00
    0  -14    1      0.02      0.00
    1  -14    1      0.30      0.00
    2  -14    1      2.02      0.00
    3  -14    1     -1.23      0.00
    4  -14    1      6.18      0.00
    5  -14    1      2.70      0.00
    6  -14    1      1.98      0.00
    7  -14    1      0.77      0.00
    8  -14    1     -2.72      0.00
    9  -14    1      2.43      0.00
   -5  -13    1      0.04      0.00
   -4  -13    1     -0.53      0.00
   -3  -13    1     -0.51      0.00
   -2  -13    1     -2.10      0.00
   -1  -13    1     -2.93      0.00
    0  -13    1     -3.59      0.00
    1  -13    1     -3.91      0.00
    2  -13    1     -1.78      0.00
    3  -13    1     -4.31      0.00
    4  -13    1      0.46      0.00
    5  -13    1      1.40      0.00
    6  -13    1     -2.33      0.00
    7  -13    1      3.98      0.00
    8  -13    1     -1.26      0.00
    9  -13    1      4.06      0.00
   -6  -12    1     -1.42      0.00
   -5  -12    1      0.46      0.00
   -4  -12    1     -0.79      0.00
   -3  -12    1      0.52      0.00
   -2  -12    1     -0.20      0.00
   -1  -12    1     -1.13      0.00
    0  -12    1      1.47      0.00
    1  -12    1     -1.85      0.00
    2  -12    1     -2.05      0.00
    3  -12    1     -4.32      0.00
    4  -12    1     -2.30      0.00
    5  -12    1     -1.06      0.00
    6  -12    1     -2.75      0.00
    7  -12    1      2.47      0.00
    8  -12    1     -3.26      0.00
    9  -12    1      4.33      0.00
   -6  -11    1      0.37      0.00
   -5  -11    1      1.40      0.00
   -4  -11    1      1.79      0.00
   -3  -11    1      4.44      0.00
   -2  -11    1      3.03      0.00
   -1  -11    1      4.82      0.00
    0  -11    1      5.59      0.00
    1  -11    1      5.40      0.00
    2  -11    1      4.63      0.00
    3  -11    1     -0.80      0.00
    4  -11    1     -0.69      0.00
    5  -11    1      2.64      0.00
    6  -11    1     -1.82      0.00
    7  -11    1      0.45      0.00
    8  -11    1     -3.39      0.00
    9  -11    1      2.36      0.00
   10  -11    1      1.03      0.00
   -7  -10    1     -0.15      0.00
   -6  -10    1      0.08      0.00
   -5  -10    1      0.10      0.00
   -4  -10    1      1.29      0.00
   -3  -10    1      2.42      0.00
   -2  -10    1      0.10      0.00
   -1  -10    1      1.89      0.00
    0  -10    1      2.84      0.00
    1  -10    1      4.82      0.00
    2  -10    1      4.96      0.00
    3  -10    1     -1.39      0.00
    4  -10    1     -0.55      0.00
    5  -10    1      3.25      0.00
    6  -10    1     -0.24      0.00
    7  -10    1     -1.22      0.00
    8  -10    1     -5.13      0.00
    9  -10    1     -1.22      0.00
   10  -10    1     -1.15      0.00
   -7   -9    1     -0.01      0.00
   -6   -9    1     -2.97      0.00
   -5   -9    1     -4.52      0.00
   -4   -9    1     -4.79      0.00
   -3   -9    1     -3.46      0.00
   -2   -9    1     -6.23      0.00
   -1   -9    1     -7.02      0.00
    0   -9    1     -5.21      0.00
    1   -9    1     -2.47      0.00
    2   -9    1      4.85      0.00
    3   -9    1     -0.79      0.00
    4   -9    1     -0.03      0.00
    5   -9    1     -0.53      0.00
    6   -9    1      1.82      0.00
    7   -9    1     -0.22      0.00
    8   -9    1     -2.93      0.00
    9   -9    1     -0.07      0.00
   10   -9    1     -0.42      0.00
   -8   -8    1     -0.08      0.00
   -7   -8    1     -0.09      0.00
   -6   -8    1     -0.10      0.00
   -5   -8    1     -3.64      0.00
   -4   -8    1     -2.96      0.00
   -3   -8    1     -1.29      0.00
   -2   -8    1     -6.08      0.00
   -1   -8    1    -10.05      0.00
    0   -8    1     -8.49      0.00
    1   -8    1     -6.19      0.00
    2   -8    1      7.44      0.00
    3   -8    1     -1.54      0.00
    4   -8    1     -1.67      0.00
    5   -8    1     -1.20      0.00
    6   -8    1      2.32      0.00
    7   -8    1      3.65      0.00
    8   -8    1      0.71      0.00
    9   -8    1     -2.49      0.00
   10   -8    1     -0.16      0.00
   -8   -7    1      2.15      0.00
   -7   -7    1      2.02      0.00
   -6   -7    1      6.47      0.00
   -5   -7    1      2.84      0.00
   -4   -7    1      5.39      0.00
   -3   -7    1      7.83      0.00
   -2   -7    1      7.04      0.00
   -1   -7    1      7.26      0.00
    0   -7    1     -3.84      0.00
    1   -7    1    -10.89      0.00
    2   -7    1      3.29      0.00
    3   -7    1     -6.91      0.00
    4   -7    1     -3.48      0.00
    5   -7    1      0.66      0.00
    6   -7    1      0.65      0.00
    7   -7    1      4.02      0.00
    8   -7    1      4.22      0.00
    9   -7    1     -0.05      0.00
   10   -7    1     -1.62      0.00
   11   -7    1      1.40      0.00
   -9   -6    1     -1.07      0.00
   -8   -6    1      0.96      0.00
   -7   -6    1      0.39      0.00
   -6   -6    1      2.45      0.00
   -5   -6    1      1.24      0.00
   -4   -6    1      2.68      0.00
   -3   -6    1      7.72      0.00
   -2   -6    1     13.14      0.00
   -1   -6    1     14.86      0.00
    0   -6    1      4.49      0.00
    1   -6    1     -8.75      0.00
    2   -6    1      9.33      0.00
    3   -6    1     -3.25      0.00
    4   -6    1      0.36      0.00
    5   -6    1     -3.99      0.00
    6   -6    1     -3.28      0.00
    7   -6    1      0.05      0.00
    8   -6    1      6.50      0.00
    9   -6    1      0.40      0.00
   10   -6    1     -1.71      0.00
   11   -6    1     -1.08      0.00
   -9   -5    1     -1.67      0.00
   -8   -5    1     -3.01      0.00
   -7   -5    1     -1.63      0.00
   -6   -5    1     -2.65      0.00
   -5   -5    1     -5.17      0.00
   -4   -5    1     -7.12      0.00
   -3   -5    1     -7.08      0.00
   -2   -5    1     -7.27      0.00
   -1   -5    1      4.19      0.00
    0   -5    1      7.77      0.00
    1   -5    1    -12.94      0.00
    2   -5    1     11.36      0.00
    3   -5    1     -0.96      0.00
    4   -5    1     -1.60      0.00
    5   -5    1     -5.86      0.00
    6   -5    1     -7.12      0.00
    7   -5    1     -2.55      0.00
    8   -5    1      0.84      0.00
    9   -5    1      0.15      0.00
   10   -5    1     -2.19      0.00
   11   -5    1     -1.36      0.00
   -9   -4    1     -0.14      0.00
   -8   -4    1     -1.36      0.00
   -7   -4    1     -1.32      0.00
   -6   -4    1     -1.04      0.00
   -5   -4    1     -4.33      0.00
   -4   -4    1     -5.60      0.00
   -3   -4    1     -7.77      0.00
   -2   -4    1    -15.50      0.00
   -1   -4    1      4.50      0.00
    0   -4    1      9.55      0.00
    1   -4    1    -10.56      0.00
    2   -4    1     12.21      0.00
    3   -4    1      0.42      0.00
    4   -4    1      2.09      0.00
    5   -4    1      1.25      0.00
    6   -4    1     -4.96      0.00
    7   -4    1     -3.46      0.00
    8   -4    1     -0.49      0.00
    9   -4    1      0.47      0.00
   10   -4    1     -0.45      0.00
   11   -4    1      0.05      0.00
  -10   -3    1      2.23      0.00
   -9   -3    1      1.62      0.00
   -8   -3    1      1.27      0.00
   -7   -3    1      3.22      0.00
   -6   -3    1      6.04      0.00
   -5   -3    1      2.64      0.00
   -4   -3    1      6.78      0.00
   -3   -3    1     10.00      0.00
   -2   -3    1      1.22      0.00
   -1   -3    1     16.94      0.00
    0   -3    1     15.17      0.00
    1   -3    1     16.58      0.00
    2   -3    1     28.96      0.00
    3   -3    1     16.24      0.00
    4   -3    1     13.71      0.00
    5   -3    1      4.97      0.00
    6   -3    1      4.01      0.00
    7   -3    1     -0.11      0.00
    8   -3    1      3.23      0.00
    9   -3    1      1.94      0.00
   10   -3    1     -0.08      0.00
   11   -3    1     -0.66      0.00
  -10   -2    1     -0.84      0.00
   -9   -2    1      0.80      0.00
   -8   -2    1     -1.53      0.00
   -7   -2    1      0.71      0.00
   -6   -2    1      4.09      0.00
   -5   -2    1     -3.61      0.00
   -4   -2    1     -3.38      0.00
   -3   -2    1      1.25      0.00
   -2   -2    1    -17.84      0.00
   -1   -2    1     -6.32      0.00
    0   -2    1    -38.12      0.00
    1   -2    1    -36.69      0.00
    2   -2    1      2.14      0.00
    3   -2    1      3.73      0.00
    4   -2    1      6.78      0.00
    5   -2    1     -2.75      0.00
    6   -2    1      2.90      0.00
    7   -2    1     -0.92      0.00
    8   -2    1      3.40      0.00
    9   -2    1      3.26      0.00
   10   -2    1     -1.40      0.00
  -10   -1    1     -0.60      0.00
   -9   -1    1     -0.34      0.00
   -8   -1    1     -2.97      0.00
   -7   -1    1     -2.16      0.00
   -6   -1    1      2.38      0.00
   -5   -1    1     -6.32      0.00
   -4   -1    1     -7.37      0.00
   -3   -1    1     -3.67      0.00
   -2   -1    1    -30.26      0.00
   -1   -1    1     15.21      0.00
    2   -1    1    -20.58      0.00
    3   -1    1    -21.72      0.00
    4   -1    1     -2.68      0.00
    5   -1    1     -8.04      0.00
    6   -1    1     -3.39      0.00
    7   -1    1     -4.96      0.00
    8   -1    1      0.06      0.00
    9   -1    1      0.99      0.00
   10   -1    1     -1.71      0.00
  -10    0    1      1.26      0.00
   -9    0    1      1.87      0.00
   -8    0    1     -2.35      0.00
   -7    0    1     -0.10      0.00
   -6    0    1      8.14      0.00
   -5    0    1      7.47      0.00
   -4    0    1      7.48      0.00
   -3    0    1     19.88      0.00
   -2    0    1      1.35      0.00
   -1    0    1     81.51      0.00
    1    0    1    -42.12      0.00
    2    0    1     19.47      0.00
    3    0    1     -6.24      0.00
    4    0    1      6.36      0.00
    5    0    1      3.89      0.00
    6    0    1     -0.29      0.00
    7    0    1     -3.83      0.00
    8    0    1      1.27      0.00
    9    0    1      2.24      0.00
   10    0    1     -0.34      0.00
  -10    1    1      0.70      0.00
   -9    1    1      2.99      0.00
   -8    1    1     -3.30      0.00
   -7    1    1     -3.07      0.00
   -6    1    1      4.83      0.00
   -5    1    1      5.01      0.00
   -4    1    1      3.01      0.00
   -3    1    1     14.13      0.00
   -2    1    1     -8.76      0.00
   -1    1    1     17.47      0.00
    1    1    1    -22.49      0.00
    2    1    1     32.76      0.00
    3    1    1      2.93      0.00
    4    1    1      8.56      0.00
    5    1    1      7.40      0.00
    6    1    1      2.70      0.00
    7    1    1     -3.13      0.00
    8    1    1      1.33      0.00
    9    1    1      2.86      0.00
   10    1    1      0.13      0.00
  -11    2    1     -1.32      0.00
  -10    2    1     -0.93      0.00
   -9    2    1      1.43      0.00
   -8    2    1     -2.50      0.00
   -7    2    1     -7.05      0.00
   -6    2    1     -7.54      0.00
   -5    2    1     -2.30      0.00
   -4    2    1    -13.12      0.00
   -3    2    1    -15.46      0.00
   -2    2    1    -49.08      0.00
   -1    2    1    -88.43      0.00
    0    2    1     50.04      0.00
    1    2    1    -45.81      0.00
    2    2    1     -1.70      0.00
    3    2    1    -15.56      0.00
    4    2    1     -6.68      0.00
    5    2    1     -1.18      0.00
    6    2    1     -3.00      0.00
    7    2    1     -6.12      0.00
    8    2    1     -3.40      0.00
    9    2    1      0.19      0.00
   10    2    1     -1.93      0.00
  -11    3    1     -1.15      0.00
  -10    3    1     -0.73      0.00
   -9    3    1      2.21      0.00
   -8    3    1      3.37      0.00
   -7    3    1     -2.75      0.00
   -6    3    1     -3.92      0.00
   -5    3    1      3.06      0.00
   -4    3    1     -0.35      0.00
   -3    3    1     -1.77      0.00
   -2    3    1     -8.99      0.00
   -1    3    1    -68.75      0.00
    0    3    1     29.26      0.00
    1    3    1    -12.58      0.00
    2    3    1      9.57      0.00
    3    3    1     -7.32      0.00
    4    3    1      0.82      0.00
    5    3    1      2.99      0.00
    6    3    1      4.16      0.00
    7    3    1     -1.17      0.00
    8    3    1     -1.93      0.00
    9    3    1      0.00      0.00
   10    3    1     -1.13      0.00
  -11    4    1      0.49      0.00
  -10    4    1     -0.50      0.00
   -9    4    1      2.31      0.00
   -8    4    1      4.13      0.00
   -7    4    1      0.41      0.00
   -6    4    1      0.39      0.00
   -5    4    1      5.02      0.00
   -4    4    1     11.39      0.00
   -3    4    1     16.74      0.00
   -2    4    1     18.21      0.00
   -1    4    1    -26.25      0.00
    0    4    1     23.57      0.00
    1    4    1      1.40      0.00
    2    4    1     18.52      0.00
    3    4    1      3.40      0.00
    4    4    1      6.96      0.00
    5    4    1      6.13      0.00
    6    4    1      6.16      0.00
    7    4    1      2.51      0.00
    8    4    1     -0.60      0.00
    9    4    1      3.21      0.00
  -11    5    1      0.72      0.00
  -10    5    1     -1.65      0.00
   -9    5    1     -1.92      0.00
   -8    5    1      1.98      0.00
   -7    5    1     -2.50      0.00
   -6    5    1      0.63      0.00
   -5    5    1     -0.82      0.00
   -4    5    1      5.85      0.00
   -3    5    1     13.10      0.00
   -2    5    1      8.64      0.00
   -1    5    1    -18.40      0.00
    0    5    1     -5.83      0.00
    1    5    1    -17.24      0.00
    2    5    1      0.69      0.00
    3    5    1     -9.46      0.00
    4    5    1     -2.55      0.00
    5    5    1     -1.71      0.00
    6    5    1      0.73      0.00
    7    5    1      0.71      0.00
    8    5    1     -0.80      0.00
    9    5    1      1.13      0.00
  -11    6    1      0.26      0.00
  -10    6    1     -1.95      0.00
   -9    6    1     -1.77      0.00
   -8    6    1      0.60      0.00
   -7    6    1     -1.91      0.00
   -6    6    1     -2.45      0.00
   -5    6    1     -2.78      0.00
   -4    6    1     -3.51      0.00
   -3    6    1     11.33      0.00
   -2    6    1     12.38      0.00
   -1    6    1     -1.25      0.00
    0    6    1     -0.20      0.00
    1    6    1    -10.64      0.00
    2    6    1     -4.51      0.00
    3    6    1    -10.21      0.00
    4    6    1     -9.26      0.00
    5    6    1     -4.60      0.00
    6    6    1     -1.62      0.00
    7    6    1     -0.37      0.00
    8    6    1     -2.28      0.00
    9    6    1     -0.48      0.00
  -11    7    1      0.51      0.00
  -10    7    1      0.25      0.00
   -9    7    1      2.15      0.00
   -8    7    1      0.27      0.00
   -7    7    1     -1.72      0.00
   -6    7    1     -1.83      0.00
   -5    7    1     -1.91      0.00
   -4    7    1     -7.12      0.00
   -3    7    1      2.86      0.00
   -2    7    1     12.45      0.00
   -1    7    1      3.38      0.00
    0    7    1     15.02      0.00
    1    7    1      6.95      0.00
    2    7    1      9.30      0.00
    3    7    1      4.58      0.00
    4    7    1     -0.16      0.00
    5    7    1      1.53      0.00
    6    7    1      1.22      0.00
    7    7    1      0.51      0.00
    8    7    1     -0.39      0.00
  -10    8    1     -1.38      0.00
   -9    8    1      0.87      0.00
   -8    8    1      2.39      0.00
   -7    8    1     -0.21      0.00
   -6    8    1      1.29      0.00
   -5    8    1     -0.99      0.00
   -4    8    1     -6.59      0.00
   -3    8    1     -4.86      0.00
   -2    8    1      0.29      0.00
   -1    8    1     -4.81      0.00
    0    8    1      8.04      0.00
    1    8    1      3.77      0.00
    2    8    1      8.65      0.00
    3    8    1      7.72      0.00
    4    8    1      2.59      0.00
    5    8    1      1.75      0.00
    6    8    1      2.68      0.00
    7    8    1     -0.74      0.00
    8    8    1      0.51      0.00
  -10    9    1     -2.38      0.00
   -9    9    1      0.10      0.00
   -8    9    1      3.00      0.00
   -7    9    1      3.55      0.00
   -6    9    1      0.68      0.00
   -5    9    1      0.36      0.00
   -4    9    1     -4.34      0.00
   -3    9    1     -2.16      0.00
   -2    9    1     -0.82      0.00
   -1    9    1     -9.61      0.00
    0    9    1     -3.75      0.00
    1    9    1     -5.09      0.00
    2    9    1     -0.64      0.00
    3    9    1     -0.47      0.00
    4    9    1     -1.36      0.00
    5    9    1     -3.07      0.00
    6    9    1      1.73      0.00
    7    9    1     -0.35      0.00
  -10   10    1      0.35      0.00
   -9   10    1     -2.71      0.00
   -8   10    1     -0.29      0.00
   -7   10    1      1.70      0.00
   -6   10    1      1.02      0.00
   -5   10    1      0.88      0.00
   -4   10    1     -1.61      0.00
   -3   10    1     -2.11      0.00
   -2   10    1      2.17      0.00
   -1   10    1     -9.15      0.00
    0   10    1     -4.58      0.00
    1   10    1     -5.40      0.00
    2   10    1     -4.37      0.00
    3   10    1     -2.15      0.00
    4   10    1     -2.21      0.00
    5   10    1     -2.02      0.00
    6   10    1      0.69      0.00
    7   10    1      0.18      0.00
  -10   11    1     -0.92      0.00
   -9   11    1     -2.34      0.00
   -8   11    1     -2.89      0.00
   -7   11    1     -0.22      0.00
   -6   11    1      5.33      0.00
   -5   11    1      1.27      0.00
   -4   11    1      1.09      0.00
   -3   11    1     -2.15      0.00
   -2   11    1      7.06      0.00
   -1   11    1     -1.56      0.00
    0   11    1     -0.34      0.00
    1   11    1     -1.46      0.00
    2   11    1     -0.07      0.00
    3   11    1      0.66      0.00
    4   11    1      0.72      0.00
    5   11    1     -0.21      0.00
    6   11    1      0.44      0.00
   -9   12    1     -2.73      0.00
   -8   12    1     -2.30      0.00
   -7   12    1     -2.91      0.00
   -6   12    1      2.86      0.00
   -5   12    1      1.37      0.00
   -4   12    1      3.56      0.00
   -3   12    1     -0.19      0.00
   -2   12    1      6.55      0.00
   -1   12    1      5.39      0.00
    0   12    1      3.92      0.00
    1   12    1      3.02      0.00
    2   12    1      2.11      0.00
    3   12    1      0.55      0.00
    4   12    1      1.44      0.00
    5   12    1     -0.75      0.00
    6   12    1     -0.49      0.00
   -9   13    1     -0.23      0.00
   -8   13    1      0.65      0.00
   -7   13    1     -3.54      0.00
   -6   13    1     -1.59      0.00
   -5   13    1      0.03      0.00
   -4   13    1     -0.06      0.00
   -3   13    1     -3.93      0.00
   -2   13    1      0.90      0.00
   -1   13    1      2.25      0.00
    0   13    1     -0.24      0.00
    1   13    1      2.62      0.00
    2   13    1      0.05      0.00
    3   13    1      0.04      0.00
    4   13    1      0.17      0.00
    5   13    1     -1.45      0.00
   -9   14    1      1.99      0.00
   -8   14    1      1.53      0.00
   -7   14    1     -0.70      0.00
   -6   14    1     -1.23      0.00
   -5   14    1     -0.12      0.00
   -4   14    1     -0.40      0.00
   -3   14    1     -2.94      0.00
   -2   14    1     -2.31      0.00
   -1   14    1     -3.31      0.00
    0   14    1     -3.70      0.00
    1   14    1      0.20      0.00
    2   14    1     -1.59      0.00
    3   14    1      0.32      0.00
    4   14    1      0.35      0.00
   -8   15    1      0.49      0.00
   -7   15    1      0.99      0.00
   -6   15    1     -0.09      0.00
   -5   15    1      0.78      0.00
   -4   15    1      1.35      0.00
   -3   15    1     -0.27      0.00
   -2   15    1      0.62      0.00
   -1   15    1     -1.43      0.00
    0   15    1     -0.47      0.00
    1   15    1      0.69      0.00
    2   15    1     -0.14      0.00
    3   15    1      0.23      0.00
   -7   16    1     -0.60      0.00
   -6   16    1      0.59      0.00
   -5   16    1     -0.33      0.00
   -4   16    1      0.52      0.00
   -3   16    1      0.25      0.00
   -2   16    1      2.58      0.00
   -1   16    1      0.76      0.00
    0   16    1     -0.84      0.00
    1   16    1      0.86      0.00
    2   16    1     -0.14      0.00
   -6   17    1     -0.15      0.00
   -5   17    1     -0.32      0.00
   -4   17    1     -0.50      0.00
   -3   17    1     -0.70      0.00
   -2   17    1      0.74      0.00
   -1   17    1     -0.28      0.00
    0   17    1     -1.94      0.00
   -3   18    1      0.69      0.00
    2  -18    2     -2.04      0.00
    3  -18    2     -0.39      0.00
    4  -18    2     -0.22      0.00
   -1  -17    2      0.76      0.00
    0  -17    2      1.11      0.00
    1  -17    2      0.59      0.00
    2  -17    2      1.08      0.00
    3  -17    2     -0.56      0.00
    4  -17    2     -0.14      0.00
    5  -17    2     -0.88      0.00
    6  -17    2      1.50      0.00
   -2  -16    2     -0.26      0.00
   -1  -16    2      0.20      0.00
    0  -16    2     -0.81      0.00
    1  -16    2     -0.05      0.00
    2  -16    2      0.79      0.00
    3  -16    2     -0.77      0.00
    4  -16    2     -1.37      0.00
    5  -16    2     -2.12      0.00
    6  -16    2     -0.76      0.00
    7  -16    2      0.13      0.00
   -3  -15    2     -0.99      0.00
   -2  -15    2      0.05      0.00
   -1  -15    2     -1.11      0.00
    0  -15    2     -0.49      0.00
    1  -15    2      1.16      0.00
    2  -15    2     -0.52      0.00
    3  -15    2      1.02      0.00
    4  -15    2     -1.65      0.00
    5  -15    2     -2.74      0.00
    6  -15    2     -2.54      0.00
    7  -15    2     -0.87      0.00
    8  -15    2     -0.34      0.00
   -4  -14    2     -0.10      0.00
   -3  -14    2      0.34      0.00
   -2  -14    2      1.38      0.00
   -1  -14    2      1.55      0.00
    0  -14    2      1.55      0.00
    1  -14    2      3.08      0.00
    2  -14    2      0.04      0.00
    3  -14    2      3.61      0.00
    4  -14    2      5.19      0.00
    5  -14    2      1.55      0.00
    6  -14    2      1.24      0.00
    7  -14    2     -2.29      0.00
    8  -14    2     -1.17      0.00
    9  -14    2      1.16      0.00
   -5  -13    2      0.60      0.00
   -4  -13    2     -0.19      0.00
   -3  -13    2     -0.16      0.00
   -2  -13    2     -1.25      0.00
   -1  -13    2     -0.63      0.00
    0  -13    2     -2.99      0.00
    1  -13    2     -2.38      0.00
    2  -13    2     -0.38      0.00
    3  -13    2      0.56      0.00
    4  -13    2      5.05      0.00
    5  -13    2      2.27      0.00
    6  -13    2      2.43      0.00
    7  -13    2     -0.07      0.00
    8  -13    2     -1.36      0.00
    9  -13    2      1.72      0.00
   -6  -12    2     -0.33      0.00
   -5  -12    2     -0.56      0.00
   -4  -12    2     -1.70      0.00
   -3  -12    2     -0.28      0.00
   -2  -12    2     -4.38      0.00
   -1  -12    2     -1.60      0.00
    0  -12    2     -2.82      0.00
    1  -12    2     -3.94      0.00
    2  -12    2     -3.54      0.00
    3  -12    2     -5.83      0.00
    4  -12    2     -3.89      0.00
    5  -12    2     -0.23      0.00
    6  -12    2     -1.00      0.00
    7  -12    2      1.97      0.00
    8  -12    2     -0.41      0.00
    9  -12    2      3.93      0.00
   -6  -11    2     -0.25      0.00
   -5  -11    2      1.27      0.00
   -4  -11    2      0.96      0.00
   -3  -11    2      2.86      0.00
   -2  -11    2      1.28      0.00
   -1  -11    2      1.82      0.00
    0  -11    2      5.71      0.00
    1  -11    2     -0.68      0.00
    2  -11    2      0.87      0.00
    3  -11    2     -3.29      0.00
    4  -11    2     -1.00      0.00
    5  -11    2      0.91      0.00
    6  -11    2     -0.10      0.00
    7  -11    2      2.51      0.00
    8  -11    2     -1.87      0.00
    9  -11    2      3.16      0.00
   10  -11    2      0.65      0.00
   -7  -10    2      0.26      0.00
   -6  -10    2      1.42      0.00
   -5  -10    2      2.11      0.00
   -4  -10    2      2.85      0.00
   -3  -10    2      5.64      0.00
   -2  -10    2      2.11      0.00
   -1  -10    2      3.81      0.00
    0  -10    2      7.88      0.00
    1  -10    2      0.98      0.00
    2  -10    2      6.23      0.00
    3  -10    2     -1.54      0.00
    4  -10    2     -0.85      0.00
    5  -10    2      2.25      0.00
    6  -10    2     -1.65      0.00
    7  -10    2     -0.52      0.00
    8  -10    2     -1.61      0.00
    9  -10    2      0.63      0.00
   10  -10    2     -0.13      0.00
   -7   -9    2     -0.85      0.00
   -6   -9    2     -1.97      0.00
   -5   -9    2     -3.20      0.00
   -4   -9    2     -0.67      0.00
   -3   -9    2     -0.53      0.00
   -2   -9    2     -3.25      0.00
   -1   -9    2     -1.55      0.00
    0   -9    2      3.67      0.00
    1   -9    2     -1.06      0.00
    2   -9    2      5.83      0.00
    3   -9    2     -4.16      0.00
    4   -9    2     -1.73      0.00
    5   -9    2      1.81      0.00
    6   -9    2     -3.48      0.00
    7   -9    2     -1.78      0.00
    8   -9    2     -1.56      0.00
    9   -9    2     -1.63      0.00
   10   -9    2     -1.16      0.00
   -8   -8    2     -1.49      0.00
   -7   -8    2     -0.41      0.00
   -6   -8    2     -3.66      0.00
   -5   -8    2     -6.60      0.00
   -4   -8    2     -4.08      0.00
   -3   -8    2     -4.69      0.00
   -2   -8    2     -7.55      0.00
   -1   -8    2    -10.35      0.00
    0   -8    2     -2.69      0.00
    1   -8    2      0.25      0.00
    2   -8    2      9.23      0.00
    3   -8    2     -1.23      0.00
    4   -8    2      0.58      0.00
    5   -8    2      1.29      0.00
    6   -8    2      1.56      0.00
    7   -8    2      1.04      0.00
    8   -8    2     -2.24      0.00
    9   -8    2     -1.57      0.00
   10   -8    2     -1.18      0.00
   -8   -7    2      0.31      0.00
   -7   -7    2      2.92      0.00
   -6   -7    2      2.66      0.00
   -5   -7    2     -0.43      0.00
   -4   -7    2      1.50      0.00
   -3   -7    2      1.85      0.00
   -2   -7    2     -0.23      0.00
   -1   -7    2    -10.54      0.00
    0   -7    2     -6.47      0.00
    1   -7    2     -3.63      0.00
    2   -7    2      7.03      0.00
    3   -7    2     -7.04      0.00
    4   -7    2      0.09      0.00
    5   -7    2     -0.03      0.00
    6   -7    2      3.21      0.00
    7   -7    2      4.99      0.00
    8   -7    2      1.47      0.00
    9   -7    2     -1.69      0.00
   10   -7    2      0.24      0.00
   -9   -6    2      1.75      0.00
   -8   -6    2      2.13      0.00
   -7   -6    2      3.56      0.00
   -6   -6    2      5.02      0.00
   -5   -6    2      3.32      0.00
   -4   -6    2      5.64      0.00
   -3   -6    2     10.12      0.00
   -2   -6    2     14.53      0.00
   -1   -6    2      6.39      0.00
    0   -6    2     -6.37      0.00
    1   -6    2    -11.95      0.00
    2   -6    2      7.17      0.00
    3   -6    2     -5.22      0.00
    4   -6    2     -1.23      0.00
    5   -6    2     -4.04      0.00
    6   -6    2      0.65      0.00
    7   -6    2      6.18      0.00
    8   -6    2      3.86      0.00
    9   -6    2     -0.10      0.00
   10   -6    2     -2.46      0.00
   11   -6    2      0.86      0.00
   -9   -5    2     -1.14      0.00
   -8   -5    2     -1.79      0.00
   -7   -5    2      0.17      0.00
   -6   -5    2     -0.69      0.00
   -5   -5    2     -1.95      0.00
   -4   -5    2     -1.60      0.00
   -3   -5    2     -0.77      0.00
   -2   -5    2     12.86      0.00
   -1   -5    2      8.52      0.00
    0   -5    2     -6.47      0.00
    1   -5    2    -12.75      0.00
    2   -5    2     14.12      0.00
    3   -5    2     -0.45      0.00
    4   -5    2     -1.18      0.00
    5   -5    2     -8.98      0.00
    6   -5    2     -4.75      0.00
    7   -5    2      0.94      0.00
    8   -5    2      5.19      0.00
    9   -5    2     -1.06      0.00
   10   -5    2     -3.78      0.00
   11   -5    2     -0.94      0.00
   -9   -4    2     -0.74      0.00
   -8   -4    2     -4.37      0.00
   -7   -4    2     -1.12      0.00
   -6   -4    2     -3.45      0.00
   -5   -4    2     -4.15      0.00
   -4   -4    2     -6.85      0.00
   -3   -4    2    -12.94      0.00
   -2   -4    2     -1.38      0.00
   -1   -4    2      5.60      0.00
    0   -4    2      7.82      0.00
    1   -4    2    -25.46      0.00
    2   -4    2      6.82      0.00
    3   -4    2     -1.26      0.00
    4   -4    2      0.51      0.00
    5   -4    2     -7.71      0.00
    6   -4    2     -8.53      0.00
    7   -4    2     -2.29      0.00
    8   -4    2      0.86      0.00
    9   -4    2     -0.10      0.00
   10   -4    2     -1.89      0.00
   11   -4    2     -0.04      0.00
  -10   -3    2      0.02      0.00
   -9   -3    2      2.04      0.00
   -8   -3    2     -1.84      0.00
   -7   -3    2      1.16      0.00
   -6   -3    2      0.53      0.00
   -5   -3    2      0.35      0.00
   -4   -3    2      1.38      0.00
   -3   -3    2     -4.46      0.00
   -2   -3    2      0.86      0.00
   -1   -3    2     16.40      0.00
    0   -3    2     39.21      0.00
    1   -3    2    -14.04      0.00
    2   -3    2     24.78      0.00
    3   -3    2      7.67      0.00
    4   -3    2      6.83      0.00
    5   -3    2      4.82      0.00
    6   -3    2     -4.90      0.00
    7   -3    2     -2.77      0.00
    8   -3    2      1.98      0.00
    9   -3    2      0.94      0.00
   10   -3    2     -0.40      0.00
   11   -3    2     -0.31      0.00
  -10   -2    2      0.74      0.00
   -9   -2    2      2.24      0.00
   -8   -2    2     -0.49      0.00
   -7   -2    2      3.20      0.00
   -6   -2    2      3.26      0.00
   -5   -2    2      1.58      0.00
   -4   -2    2      5.29      0.00
   -3   -2    2     -1.18      0.00
   -2   -2    2     -3.91      0.00
   -1   -2    2      1.85      0.00
    0   -2    2     19.10      0.00
    1   -2    2      4.12      0.00
    2   -2    2     27.99      0.00
    3   -2    2     16.72      0.00
    4   -2    2     10.76      0.00
    5   -2    2      9.63      0.00
    6   -2    2      0.44      0.00
    7   -2    2     -0.03      0.00
    8   -2    2      4.48      0.00
    9   -2    2      1.27      0.00
   10   -2    2     -0.53      0.00
  -10   -1    2     -1.66      0.00
   -9   -1    2      1.05      0.00
   -8   -1    2     -1.49      0.00
   -7   -1    2     -0.67      0.00
   -6   -1    2     -0.22      0.00
   -5   -1    2     -6.98      0.00
   -4   -1    2     -5.70      0.00
   -3   -1    2    -11.95      0.00
   -2   -1    2    -27.82      0.00
   -1   -1    2    -31.99      0.00
    1   -1    2    -50.73      0.00
    2   -1    2    -21.18      0.00
    3   -1    2     -5.36      0.00
    4   -1    2     -2.42      0.00
    5   -1    2     -1.11      0.00
    6   -1    2     -0.21      0.00
    7   -1    2     -2.01      0.00
    8   -1    2      1.25      0.00
    9   -1    2      0.63      0.00
   10   -1    2     -0.88      0.00
  -10    0    2      0.62      0.00
   -9    0    2      1.10      0.00
   -8    0    2     -1.59      0.00
   -7    0    2     -0.31      0.00
   -6    0    2      5.13      0.00
   -5    0    2     -2.24      0.00
   -4    0    2      6.77      0.00
   -3    0    2      5.09      0.00
   -2    0    2     -8.02      0.00
   -1    0    2     50.96      0.00
    1    0    2    -34.70      0.00
    2    0    2    -16.52      0.00
    3    0    2    -13.11      0.00
    4    0    2      1.58      0.00
    5    0    2     -2.81      0.00
    6    0    2     -1.19      0.00
    7    0    2     -3.24      0.00
    8    0    2      0.12      0.00
    9    0    2      0.73      0.00
   10    0    2      0.00      0.00
  -10    1    2      0.43      0.00
   -9    1    2      1.10      0.00
   -8    1    2     -2.07      0.00
   -7    1    2      0.87      0.00
   -6    1    2     10.36      0.00
   -5    1    2      4.47      0.00
   -4    1    2     17.34      0.00
   -3    1    2     17.77      0.00
   -2    1    2      2.81      0.00
   -1    1    2    118.49      0.00
    0    1    2     35.00      0.00
    1    1    2     15.75      0.00
    2    1    2     18.52      0.00
    3    1    2      1.52      0.00
    4    1    2      9.34      0.00
    5    1    2      3.65      0.00
    6    1    2      1.17      0.00
    7    1    2     -1.03      0.00
    8    1    2      4.40      0.00
    9    1    2      1.84      0.00
   10    1    2      0.98      0.00
  -11    2    2     -1.19      0.00
  -10    2    2     -1.21      0.00
   -9    2    2      2.33      0.00
   -8    2    2     -3.97      0.00
   -7    2    2     -5.34      0.00
   -6    2    2      2.16      0.00
   -5    2    2     -5.80      0.00
   -4    2    2     -1.36      0.00
   -3    2    2     -1.36      0.00
   -2    2    2    -43.22      0.00
   -1    2    2     29.37      0.00
    0    2    2     34.53      0.00
    1    2    2    -10.88      0.00
    2    2    2      4.38      0.00
    3    2    2     -7.90      0.00
    4    2    2      1.31      0.00
    5    2    2     -0.65      0.00
    6    2    2     -0.88      0.00
    7    2    2     -5.01      0.00
    8    2    2      0.44      0.00
    9    2    2     -0.78      0.00
   10    2    2     -0.49      0.00
  -11    3    2     -1.10      0.00
  -10    3    2     -0.85      0.00
   -9    3    2      2.59      0.00
   -8    3    2     -2.86      0.00
   -7    3    2     -5.76      0.00
   -6    3    2     -3.85      0.00
   -5    3    2     -3.21      0.00
   -4    3    2     -9.23      0.00
   -3    3    2    -11.39      0.00
   -2    3    2    -53.84      0.00
   -1    3    2    -28.63      0.00
    0    3    2     13.30      0.00
    1    3    2    -22.32      0.00
    2    3    2     -4.99      0.00
    3    3    2    -11.59      0.00
    4    3    2     -3.00      0.00
    5    3    2     -2.61      0.00
    6    3    2     -2.41      0.00
    7    3    2     -6.54      0.00
    8    3    2     -2.33      0.00
    9    3    2     -1.87      0.00
   10    3    2     -1.40      0.00
  -11    4    2     -0.92      0.00
  -10    4    2     -0.94      0.00
   -9    4    2      3.08      0.00
   -8    4    2      3.55      0.00
   -7    4    2     -1.82      0.00
   -6    4    2     -1.25      0.00
   -5    4    2      6.43      0.00
   -4    4    2      3.11      0.00
   -3    4    2      0.75      0.00
   -2    4    2     -7.34      0.00
   -1    4    2    -22.85      0.00
    0    4    2     27.50      0.00
    1    4    2     10.91      0.00
    2    4    2     16.83      0.00
    3    4    2      2.80      0.00
    4    4    2     10.03      0.00
    5    4    2      5.94      0.00
    6    4    2      5.95      0.00
    7    4    2     -0.19      0.00
    8    4    2      1.32      0.00
    9    4    2      0.38      0.00
  -11    5    2      0.21      0.00
  -10    5    2     -1.86      0.00
   -9    5    2      2.03      0.00
   -8    5    2      2.46      0.00
   -7    5    2      0.13      0.00
   -6    5    2     -1.48      0.00
   -5    5    2      6.62      0.00
   -4    5    2      9.52      0.00
   -3    5    2      9.58      0.00
   -2    5    2      2.04      0.00
   -1    5    2    -27.55      0.00
    0    5    2      4.10      0.00
    1    5    2     -1.78      0.00
    2    5    2      5.33      0.00
    3    5    2     -3.78      0.00
    4    5    2      4.31      0.00
    5    5    2      3.11      0.00
    6    5    2      3.79      0.00
    7    5    2      1.12      0.00
    8    5    2     -0.64      0.00
    9    5    2      2.28      0.00
  -11    6    2     -0.42      0.00
  -10    6    2     -2.93      0.00
   -9    6    2     -1.89      0.00
   -8    6    2      1.20      0.00
   -7    6    2     -1.00      0.00
   -6    6    2     -0.12      0.00
   -5    6    2      0.29      0.00
   -4    6    2      7.29      0.00
   -3    6    2     13.22      0.00
   -2    6    2      6.74      0.00
   -1    6    2    -19.69      0.00
    0    6    2     -8.73      0.00
    1    6    2    -15.64      0.00
    2    6    2     -1.82      0.00
    3    6    2    -14.83      0.00
    4    6    2     -5.54      0.00
    5    6    2     -3.07      0.00
    6    6    2     -0.97      0.00
    7    6    2      0.32      0.00
    8    6    2     -1.33      0.00
    9    6    2      0.12      0.00
  -11    7    2      0.52      0.00
  -10    7    2     -0.40      0.00
   -9    7    2      0.27      0.00
   -8    7    2     -0.24      0.00
   -7    7    2     -1.30      0.00
   -6    7    2     -1.45      0.00
   -5    7    2     -5.13      0.00
   -4    7    2     -1.25      0.00
   -3    7    2     11.30      0.00
   -2    7    2     14.37      0.00
   -1    7    2      3.88      0.00
    0    7    2      5.99      0.00
    1    7    2     -2.40      0.00
    2    7    2      4.48      0.00
    3    7    2     -5.41      0.00
    4    7    2     -3.53      0.00
    5    7    2     -0.26      0.00
    6    7    2     -0.77      0.00
    7    7    2      0.48      0.00
    8    7    2     -1.24      0.00
  -10    8    2     -0.68      0.00
   -9    8    2      1.38      0.00
   -8    8    2     -1.66      0.00
   -7    8    2      0.00      0.00
   -6    8    2     -0.94      0.00
   -5    8    2     -4.11      0.00
   -4    8    2     -7.03      0.00
   -3    8    2     -0.08      0.00
   -2    8    2      8.03      0.00
   -1    8    2      4.84      0.00
    0    8    2      9.58      0.00
    1    8    2      5.99      0.00
    2    8    2     10.44      0.00
    3    8    2      3.89      0.00
    4    8    2      1.63      0.00
    5    8    2      2.55      0.00
    6    8    2      1.33      0.00
    7    8    2      0.31      0.00
    8    8    2     -0.30      0.00
  -10    9    2     -0.96      0.00
   -9    9    2      1.63      0.00
   -8    9    2      0.40      0.00
   -7    9    2      2.36      0.00
   -6    9    2      1.35      0.00
   -5    9    2     -2.23      0.00
   -4    9    2     -5.14      0.00
   -3    9    2     -2.98      0.00
   -2    9    2     -1.52      0.00
   -1    9    2     -3.59      0.00
    0    9    2      2.56      0.00
    1    9    2      0.48      0.00
    2    9    2      3.95      0.00
    3    9    2      0.92      0.00
    4    9    2     -0.80      0.00
    5    9    2     -0.44      0.00
    6    9    2      0.33      0.00
    7    9    2     -0.40      0.00
  -10   10    2     -0.25      0.00
   -9   10    2      1.65      0.00
   -8   10    2      1.64      0.00
   -7   10    2      3.28      0.00
   -6   10    2     -0.06      0.00
   -5   10    2     -0.93      0.00
   -4   10    2     -2.42      0.00
   -3   10    2     -3.43      0.00
   -2   10    2     -2.53      0.00
   -1   10    2     -7.61      0.00
    0   10    2     -4.39      0.00
    1   10    2     -4.09      0.00
    2   10    2      0.67      0.00
    3   10    2     -1.95      0.00
    4   10    2     -0.62      0.00
    5   10    2     -1.79      0.00
    6   10    2      0.66      0.00
    7   10    2     -0.06      0.00
  -10   11    2     -0.39      0.00
   -9   11    2     -3.15      0.00
   -8   11    2     -0.53      0.00
   -7   11    2      2.59      0.00
   -6   11    2      1.73      0.00
   -5   11    2      2.33      0.00
   -4   11    2     -1.13      0.00
   -3   11    2     -3.41      0.00
   -2   11    2      1.77      0.00
   -1   11    2     -5.54      0.00
    0   11    2     -3.72      0.00
    1   11    2     -2.46      0.00
    2   11    2     -0.94      0.00
    3   11    2     -1.30      0.00
    4   11    2      0.24      0.00
    5   11    2     -0.13      0.00
    6   11    2      1.45      0.00
   -9   12    2     -2.15      0.00
   -8   12    2     -1.92      0.00
   -7   12    2      0.79      0.00
   -6   12    2      3.29      0.00
   -5   12    2      1.86      0.00
   -4   12    2      1.87      0.00
   -3   12    2     -2.20      0.00
   -2   12    2      8.02      0.00
   -1   12    2      0.78      0.00
    0   12    2      0.91      0.00
    1   12    2     -0.77      0.00
    2   12    2      0.67      0.00
    3   12    2      0.07      0.00
    4   12    2      0.47      0.00
    5   12    2     -0.74      0.00
   -9   13    2     -1.73      0.00
   -8   13    2     -1.21      0.00
   -7   13    2     -4.30      0.00
   -6   13    2      1.66      0.00
   -5   13    2      0.84      0.00
   -4   13    2      3.41      0.00
   -3   13    2     -0.79      0.00
   -2   13    2      6.28      0.00
   -1   13    2      2.21      0.00
    0   13    2      3.56      0.00
    1   13    2      1.51      0.00
    2   13    2      1.62      0.00
    3   13    2      0.67      0.00
    4   13    2     -0.33      0.00
    5   13    2     -0.65      0.00
   -9   14    2      0.10      0.00
   -8   14    2      1.68      0.00
   -7   14    2     -3.23      0.00
   -6   14    2     -0.62      0.00
   -5   14    2      0.21      0.00
   -4   14    2      0.87      0.00
   -3   14    2     -4.82      0.00
   -2   14    2     -0.50      0.00
   -1   14    2     -0.66      0.00
    0   14    2     -0.22      0.00
    1   14    2      0.62      0.00
    2   14    2     -0.52      0.00
    3   14    2      0.51      0.00
    4   14    2     -0.16      0.00
   -8   15    2      1.58      0.00
   -7   15    2     -0.88      0.00
   -6   15    2     -0.70      0.00
   -5   15    2     -0.23      0.00
   -4   15    2      0.44      0.00
   -3   15    2     -2.67      0.00
   -2   15    2     -1.39      0.00
   -1   15    2     -1.77      0.00
    0   15    2     -1.89      0.00
    1   15    2      0.26      0.00
    2   15    2     -1.53      0.00
    3   15    2      1.43      0.00
   -7   16    2      0.03      0.00
   -6   16    2     -0.27      0.00
   -5   16    2     -1.20      0.00
   -4   16    2      0.99      0.00
   -3   16    2      1.25      0.00
   -2   16    2      0.58      0.00
   -1   16    2     -0.95      0.00
    0   16    2      0.80      0.00
    1   16    2      0.86      0.00
    2   16    2     -0.23      0.00
   -6   17    2      0.49      0.00
   -5   17    2     -0.53      0.00
   -4   17    2      0.18      0.00
   -3   17    2      1.17      0.00
   -2   17    2      0.69      0.00
   -1   17    2     -0.28      0.00
    0   17    2     -1.05      0.00
    2  -18    3     -0.67      0.00
    3  -18    3      0.31      0.00
    4  -18    3      0.13      0.00
   -1  -17    3      0.52      0.00
    0  -17    3     -0.16      0.00
    1  -17    3      0.87      0.00
    2  -17    3     -1.58      0.00
    3  -17    3     -0.20      0.00
    4  -17    3      0.25      0.00
    5  -17    3      0.76      0.00
    6  -17    3      1.65      0.00
   -2  -16    3      0.20      0.00
   -1  -16    3      0.55      0.00
    0  -16    3      1.41      0.00
    1  -16    3      0.39      0.00
    2  -16    3     -0.23      0.00
    3  -16    3     -1.25      0.00
    4  -16    3     -0.55      0.00
    5  -16    3     -2.31      0.00
    6  -16    3      0.68      0.00
    7  -16    3      0.75      0.00
   -3  -15    3     -0.52      0.00
   -2  -15    3     -0.91      0.00
   -1  -15    3     -1.02      0.00
    0  -15    3     -1.19      0.00
    1  -15    3     -0.99      0.00
    2  -15    3      1.09      0.00
    3  -15    3     -1.50      0.00
    4  -15    3     -2.58      0.00
    5  -15    3     -3.87      0.00
    6  -15    3     -1.82      0.00
    7  -15    3     -0.38      0.00
    8  -15    3      1.63      0.00
   -4  -14    3      1.90      0.00
   -3  -14    3      0.07      0.00
   -2  -14    3      1.55      0.00
   -1  -14    3      0.16      0.00
    0  -14    3      0.97      0.00
    1  -14    3      2.23      0.00
    2  -14    3      1.93      0.00
    3  -14    3      2.58      0.00
    4  -14    3      0.13      0.00
    5  -14    3     -0.77      0.00
    6  -14    3     -2.44      0.00
    7  -14    3     -1.85      0.00
    8  -14    3     -0.87      0.00
   -5  -13    3     -0.09      0.00
   -4  -13    3      0.54      0.00
   -3  -13    3     -0.74      0.00
   -2  -13    3      1.29      0.00
   -1  -13    3      1.70      0.00
    0  -13    3      0.07      0.00
    1  -13    3      1.76      0.00
    2  -13    3      0.71      0.00
    3  -13    3      4.97      0.00
    4  -13    3      6.35      0.00
    5  -13    3      4.44      0.00
    6  -13    3      1.48      0.00
    7  -13    3     -1.99      0.00
    8  -13    3     -0.50      0.00
    9  -13    3      0.93      0.00
   -6  -12    3     -0.19      0.00
   -5  -12    3     -1.16      0.00
   -4  -12    3     -1.16      0.00
   -3  -12    3     -2.05      0.00
   -2  -12    3     -3.33      0.00
   -1  -12    3     -1.07      0.00
    0  -12    3     -4.90      0.00
    1  -12    3     -4.50      0.00
    2  -12    3     -2.37      0.00
    3  -12    3     -1.56      0.00
    4  -12    3      0.92      0.00
    5  -12    3     -0.01      0.00
    6  -12    3      2.60      0.00
    7  -12    3     -1.61      0.00
    8  -12    3     -0.28      0.00
    9  -12    3     -0.63      0.00
   -6  -11    3      0.35      0.00
   -5  -11    3     -0.58      0.00
   -4  -11    3      0.17      0.00
   -3  -11    3      0.78      0.00
   -2  -11    3     -4.10      0.00
   -1  -11    3      2.21      0.00
    0  -11    3     -2.48      0.00
    1  -11    3     -2.96      0.00
    2  -11    3     -2.21      0.00
    3  -11    3     -5.67      0.00
    4  -11    3     -4.11      0.00
    5  -11    3      0.34      0.00
    6  -11    3      2.74      0.00
    7  -11    3      0.49      0.00
    8  -11    3      1.81      0.00
    9  -11    3      2.65      0.00
   10  -11    3      1.88      0.00
   -7  -10    3      1.54      0.00
   -6  -10    3      1.90      0.00
   -5  -10    3      2.47      0.00
   -4  -10    3      3.70      0.00
   -3  -10    3      3.47      0.00
   -2  -10    3      1.84      0.00
   -1  -10    3      5.05      0.00
    0  -10    3      5.07      0.00
    1  -10    3      0.36      0.00
    2  -10    3      4.35      0.00
    3  -10    3     -2.74      0.00
    4  -10    3      1.35      0.00
    5  -10    3      0.87      0.00
    6  -10    3      2.26      0.00
    7  -10    3      1.89      0.00
    8  -10    3     -0.25      0.00
    9  -10    3      0.33      0.00
   10  -10    3      1.03      0.00
   -8   -9    3     -1.38      0.00
   -7   -9    3      0.32      0.00
   -6   -9    3      0.03      0.00
   -5   -9    3      1.33      0.00
   -4   -9    3      1.60      0.00
   -3   -9    3      3.27      0.00
   -2   -9    3      0.46      0.00
   -1   -9    3      4.20      0.00
    0   -9    3      6.11      0.00
    1   -9    3     -2.52      0.00
    2   -9    3      4.65      0.00
    3   -9    3     -4.72      0.00
    4   -9    3     -0.74      0.00
    5   -9    3     -2.83      0.00
    6   -9    3     -2.50      0.00
    7   -9    3     -1.61      0.00
    8   -9    3      0.82      0.00
    9   -9    3     -2.58      0.00
   10   -9    3     -0.44      0.00
   -8   -8    3     -2.17      0.00
   -7   -8    3     -2.67      0.00
   -6   -8    3     -5.22      0.00
   -5   -8    3     -5.41      0.00
   -4   -8    3     -1.65      0.00
   -3   -8    3     -2.72      0.00
   -2   -8    3     -5.95      0.00
   -1   -8    3     -3.29      0.00
    0   -8    3      3.69      0.00
    1   -8    3     -3.27      0.00
    2   -8    3      7.42      0.00
    3   -8    3     -4.44      0.00
    4   -8    3      0.48      0.00
    5   -8    3     -0.83      0.00
    6   -8    3     -2.44      0.00
    7   -8    3     -2.45      0.00
    8   -8    3      0.82      0.00
    9   -8    3     -3.27      0.00
   10   -8    3     -1.76      0.00
   -8   -7    3     -0.76      0.00
   -7   -7    3      0.77      0.00
   -6   -7    3     -1.86      0.00
   -5   -7    3     -4.84      0.00
   -4   -7    3     -0.80      0.00
   -3   -7    3     -4.01      0.00
   -2   -7    3     -7.71      0.00
   -1   -7    3     -9.67      0.00
    0   -7    3      1.28      0.00
    1   -7    3      3.50      0.00
    2   -7    3     11.01      0.00
    3   -7    3     -2.97      0.00
    4   -7    3      4.69      0.00
    5   -7    3      3.26      0.00
    6   -7    3      2.51      0.00
    7   -7    3      0.41      0.00
    8   -7    3     -1.10      0.00
    9   -7    3     -0.85      0.00
   10   -7    3     -0.16      0.00
   -9   -6    3      2.36      0.00
   -8   -6    3      1.67      0.00
   -7   -6    3      5.24      0.00
   -6   -6    3      3.98      0.00
   -5   -6    3      1.02      0.00
   -4   -6    3      3.50      0.00
   -3   -6    3      4.72      0.00
   -2   -6    3      4.73      0.00
   -1   -6    3    -11.20      0.00
    0   -6    3     -3.98      0.00
    1   -6    3     -1.39      0.00
    2   -6    3      6.39      0.00
    3   -6    3    -11.32      0.00
    4   -6    3      2.89      0.00
    5   -6    3     -0.08      0.00
    6   -6    3      5.59      0.00
    7   -6    3      5.53      0.00
    8   -6    3      2.19      0.00
    9   -6    3     -1.08      0.00
   10   -6    3      0.03      0.00
   11   -6    3      1.86      0.00
   -9   -5    3      2.33      0.00
   -8   -5    3      0.44      0.00
   -7   -5    3      3.00      0.00
   -6   -5    3      2.84      0.00
   -5   -5    3      1.34      0.00
   -4   -5    3      3.45      0.00
   -3   -5    3     11.59      0.00
   -2   -5    3     13.62      0.00
   -1   -5    3     -4.30      0.00
    0   -5    3    -12.88      0.00
    1   -5    3    -11.20      0.00
    2   -5    3     13.82      0.00
    3   -5    3     -6.45      0.00
    4   -5    3     -2.93      0.00
    5   -5    3     -8.44      0.00
    6   -5    3      2.21      0.00
    7   -5    3      5.48      0.00
    8   -5    3      2.79      0.00
    9   -5    3     -1.69      0.00
   10   -5    3     -4.01      0.00
   11   -5    3      0.44      0.00
   -9   -4    3     -1.66      0.00
   -8   -4    3     -3.41      0.00
   -7   -4    3     -1.07      0.00
   -6   -4    3     -1.80      0.00
   -5   -4    3     -2.75      0.00
   -4   -4    3     -4.80      0.00
   -3   -4    3     -3.12      0.00
   -2   -4    3     11.17      0.00
   -1   -4    3      4.39      0.00
    0   -4    3    -20.43      0.00
    1   -4    3    -17.47      0.00
    2   -4    3     16.26      0.00
    3   -4    3     -3.19      0.00
    4   -4    3     -3.56      0.00
    5   -4    3    -13.27      0.00
    6   -4    3     -5.51      0.00
    7   -4    3     -0.17      0.00
    8   -4    3      3.16      0.00
    9   -4    3     -1.01      0.00
   10   -4    3     -2.81      0.00
   11   -4    3      0.65      0.00
  -10   -3    3     -1.76      0.00
   -9   -3    3     -0.30      0.00
   -8   -3    3     -3.48      0.00
   -7   -3    3     -0.27      0.00
   -6   -3    3     -1.14      0.00
   -5   -3    3     -1.26      0.00
   -4   -3    3     -6.89      0.00
   -3   -3    3     -6.27      0.00
   -2   -3    3     11.98      0.00
   -1   -3    3     22.48      0.00
    0   -3    3     10.53      0.00
    1   -3    3    -20.42      0.00
    2   -3    3     14.43      0.00
    3   -3    3      1.48      0.00
    4   -3    3      3.65      0.00
    5   -3    3     -8.37      0.00
    6   -3    3     -6.45      0.00
    7   -3    3     -1.05      0.00
    8   -3    3      0.99      0.00
    9   -3    3     -0.91      0.00
   10   -3    3     -1.48      0.00
  -10   -2    3      0.76      0.00
   -9   -2    3      2.74      0.00
   -8   -2    3     -1.95      0.00
   -7   -2    3      2.00      0.00
   -6   -2    3      1.20      0.00
   -5   -2    3      3.18      0.00
   -4   -2    3     -0.25      0.00
   -3   -2    3     -3.67      0.00
   -2   -2    3      6.23      0.00
   -1   -2    3     23.03      0.00
    0   -2    3     48.51      0.00
    1   -2    3    -16.37      0.00
    2   -2    3     36.00      0.00
    3   -2    3     12.82      0.00
    4   -2    3     12.06      0.00
    5   -2    3      4.23      0.00
    6   -2    3     -4.57      0.00
    7   -2    3     -1.78      0.00
    8   -2    3      4.57      0.00
    9   -2    3     -0.09      0.00
   10   -2    3     -1.17      0.00
  -10   -1    3     -0.12      0.00
   -9   -1    3      1.60      0.00
   -8   -1    3     -0.94      0.00
   -7   -1    3      1.40      0.00
   -6   -1    3     -1.79      0.00
   -5   -1    3      1.14      0.00
   -4   -1    3     -4.78      0.00
   -3   -1    3    -16.22      0.00
   -2   -1    3    -18.54      0.00
   -1   -1    3    -28.33      0.00
    0   -1    3      4.59      0.00
    1   -1    3    -31.37      0.00
    2   -1    3     17.62      0.00
    3   -1    3      7.57      0.00
    4   -1    3      6.78      0.00
    5   -1    3      7.46      0.00
    6   -1    3     -3.64      0.00
    7   -1    3     -0.13      0.00
    8   -1    3      4.03      0.00
    9   -1    3     -0.55      0.00
   10   -1    3     -0.47      0.00
  -10    0    3     -0.48      0.00
   -9    0    3      0.49      0.00
   -8    0    3     -1.16      0.00
   -7    0    3      0.21      0.00
   -6    0    3     -2.34      0.00
   -5    0    3      0.48      0.00
   -4    0    3     -4.80      0.00
   -3    0    3    -14.19      0.00
   -2    0    3    -11.81      0.00
   -1    0    3    -43.39      0.00
    1    0    3    -54.32      0.00
    2    0    3    -22.26      0.00
    3    0    3     -7.98      0.00
    4    0    3     -2.28      0.00
    5    0    3      3.02      0.00
    6    0    3     -3.05      0.00
    7    0    3     -1.77      0.00
    8    0    3     -0.12      0.00
    9    0    3     -0.42      0.00
   10    0    3      0.96      0.00
  -10    1    3      1.36      0.00
   -9    1    3      1.11      0.00
   -8    1    3     -0.66      0.00
   -7    1    3      2.92      0.00
   -6    1    3      4.95      0.00
   -5    1    3      8.92      0.00
   -4    1    3     15.37      0.00
   -3    1    3     10.83      0.00
   -2    1    3     30.47      0.00
   -1    1    3     41.27      0.00
    0    1    3     12.35      0.00
    1    1    3     -0.09      0.00
    2    1    3     -2.12      0.00
    3    1    3     -3.53      0.00
    4    1    3      5.68      0.00
    5    1    3      3.91      0.00
    6    1    3     -0.48      0.00
    7    1    3      1.97      0.00
    8    1    3      2.09      0.00
    9    1    3      1.64      0.00
   10    1    3      1.30      0.00
  -11    2    3     -0.75      0.00
  -10    2    3      0.16      0.00
   -9    2    3      0.19      0.00
   -8    2    3     -1.00      0.00
   -7    2    3      0.11      0.00
   -6    2    3      2.99      0.00
   -5    2    3      2.18      0.00
   -4    2    3     13.29      0.00
   -3    2    3      1.46      0.00
   -2    2    3      7.90      0.00
   -1    2    3     64.22      0.00
    0    2    3      5.43      0.00
    1    2    3     19.32      0.00
    2    2    3      3.80      0.00
    3    2    3     -3.61      0.00
    4    2    3      3.17      0.00
    5    2    3      1.19      0.00
    6    2    3     -2.39      0.00
    7    2    3      0.48      0.00
    8    2    3      2.13      0.00
    9    2    3      0.47      0.00
   10    2    3      0.75      0.00
  -11    3    3     -1.24      0.00
  -10    3    3     -1.06      0.00
   -9    3    3      1.26      0.00
   -8    3    3     -3.11      0.00
   -7    3    3     -5.00      0.00
   -6    3    3     -1.39      0.00
   -5    3    3     -8.72      0.00
   -4    3    3     -6.16      0.00
   -3    3    3    -12.28      0.00
   -2    3    3    -33.50      0.00
   -1    3    3     15.17      0.00
    0    3    3    -11.32      0.00
    1    3    3     -4.53      0.00
    2    3    3     -9.97      0.00
    3    3    3    -10.35      0.00
    4    3    3     -4.53      0.00
    5    3    3     -3.23      0.00
    6    3    3     -4.98      0.00
    7    3    3     -4.88      0.00
    8    3    3     -2.41      0.00
    9    3    3     -2.14      0.00
  -11    4    3     -1.44      0.00
  -10    4    3     -0.10      0.00
   -9    4    3      2.81      0.00
   -8    4    3     -1.39      0.00
   -7    4    3     -2.51      0.00
   -6    4    3      0.52      0.00
   -5    4    3     -1.66      0.00
   -4    4    3     -6.55      0.00
   -3    4    3     -6.71      0.00
   -2    4    3    -29.75      0.00
   -1    4    3      5.76      0.00
    0    4    3     11.73      0.00
    1    4    3      6.63      0.00
    2    4    3      1.37      0.00
    3    4    3      0.41      0.00
    4    4    3      1.93      0.00
    5    4    3      0.80      0.00
    6    4    3     -0.10      0.00
    7    4    3     -2.72      0.00
    8    4    3     -0.64      0.00
    9    4    3     -0.94      0.00
  -11    5    3     -0.99      0.00
  -10    5    3     -0.98      0.00
   -9    5    3      2.97      0.00
   -8    5    3      2.78      0.00
   -7    5    3     -2.45      0.00
   -6    5    3      1.63      0.00
   -5    5    3      5.34      0.00
   -4    5    3      1.30      0.00
   -3    5    3     -3.20      0.00
   -2    5    3     -9.48      0.00
   -1    5    3     -7.91      0.00
    0    5    3     14.19      0.00
    1    5    3     14.46      0.00
    2    5    3      7.49      0.00
    3    5    3      6.40      0.00
    4    5    3      9.89      0.00
    5    5    3      4.86      0.00
    6    5    3      5.46      0.00
    7    5    3     -0.20      0.00
    8    5    3      2.60      0.00
    9    5    3      0.62      0.00
  -11    6    3     -0.84      0.00
  -10    6    3     -2.91      0.00
   -9    6    3      1.19      0.00
   -8    6    3      0.90      0.00
   -7    6    3     -0.19      0.00
   -6    6    3     -0.85      0.00
   -5    6    3      6.53      0.00
   -4    6    3      8.50      0.00
   -3    6    3      6.09      0.00
   -2    6    3     -8.25      0.00
   -1    6    3    -25.81      0.00
    0    6    3    -11.67      0.00
    1    6    3     -2.20      0.00
    2    6    3     -7.71      0.00
    3    6    3     -5.82      0.00
    4    6    3     -0.38      0.00
    5    6    3     -0.70      0.00
    6    6    3      1.84      0.00
    7    6    3     -1.01      0.00
    8    6    3     -1.33      0.00
    9    6    3      0.19      0.00
  -11    7    3     -0.74      0.00
  -10    7    3     -1.59      0.00
   -9    7    3     -0.30      0.00
   -8    7    3      1.64      0.00
   -7    7    3     -0.36      0.00
   -6    7    3      0.84      0.00
   -5    7    3      1.55      0.00
   -4    7    3      6.69      0.00
   -3    7    3     10.57      0.00
   -2    7    3      9.12      0.00
   -1    7    3    -10.10      0.00
    0    7    3     -4.21      0.00
    1    7    3     -3.79      0.00
    2    7    3     -3.50      0.00
    3    7    3     -9.86      0.00
    4    7    3     -3.29      0.00
    5    7    3     -1.77      0.00
    6    7    3      0.48      0.00
    7    7    3     -0.03      0.00
    8    7    3     -0.36      0.00
  -10    8    3      0.16      0.00
   -9    8    3      0.16      0.00
   -8    8    3     -0.19      0.00
   -7    8    3     -2.59      0.00
   -6    8    3     -0.86      0.00
   -5    8    3     -6.98      0.00
   -4    8    3     -0.42      0.00
   -3    8    3      7.44      0.00
   -2    8    3     14.43      0.00
   -1    8    3      6.05      0.00
    0    8    3      6.88      0.00
    1    8    3      3.66      0.00
    2    8    3      4.63      0.00
    3    8    3     -1.43      0.00
    4    8    3      0.52      0.00
    5    8    3      1.14      0.00
    6    8    3      1.49      0.00
    7    8    3      0.07      0.00
    8    8    3     -0.02      0.00
  -10    9    3     -0.85      0.00
   -9    9    3     -0.64      0.00
   -8    9    3     -0.32      0.00
   -7    9    3     -0.61      0.00
   -6    9    3     -0.65      0.00
   -5    9    3     -4.17      0.00
   -4    9    3     -3.61      0.00
   -3    9    3     -2.24      0.00
   -2    9    3      4.31      0.00
   -1    9    3      2.25      0.00
    0    9    3      3.34      0.00
    1    9    3      3.17      0.00
    2    9    3      5.26      0.00
    3    9    3      0.09      0.00
    4    9    3      1.25      0.00
    5    9    3     -1.08      0.00
    6    9    3      0.83      0.00
    7    9    3     -0.26      0.00
  -10   10    3      1.01      0.00
   -9   10    3      1.50      0.00
   -8   10    3      1.27      0.00
   -7   10    3      1.36      0.00
   -6   10    3      1.56      0.00
   -5   10    3     -1.97      0.00
   -4   10    3     -4.18      0.00
   -3   10    3     -3.69      0.00
   -2   10    3     -0.86      0.00
   -1   10    3     -3.59      0.00
    0   10    3      0.03      0.00
    1   10    3      1.15      0.00
    2   10    3      1.23      0.00
    3   10    3     -1.94      0.00
    4   10    3     -0.50      0.00
    5   10    3     -2.08      0.00
    6   10    3     -0.46      0.00
    7   10    3     -0.62      0.00
  -10   11    3     -0.26      0.00
   -9   11    3      0.98      0.00
   -8   11    3      1.19      0.00
   -7   11    3      0.95      0.00
   -6   11    3      1.07      0.00
   -5   11    3     -1.48      0.00
   -4   11    3     -2.37      0.00
   -3   11    3     -4.55      0.00
   -2   11    3     -1.08      0.00
   -1   11    3     -5.37      0.00
    0   11    3     -2.34      0.00
    1   11    3     -0.85      0.00
    2   11    3      1.81      0.00
    3   11    3     -1.48      0.00
    4   11    3      1.48      0.00
    5   11    3     -0.04      0.00
    6   11    3      0.65      0.00
   -9   12    3     -1.88      0.00
   -8   12    3      0.11      0.00
   -7   12    3      1.72      0.00
   -6   12    3      1.66      0.00
   -5   12    3      2.53      0.00
   -4   12    3     -1.00      0.00
   -3   12    3     -2.55      0.00
   -2   12    3      1.26      0.00
   -1   12    3     -3.56      0.00
    0   12    3     -2.76      0.00
    1   12    3     -1.66      0.00
    2   12    3     -0.04      0.00
    3   12    3     -1.26      0.00
    4   12    3      1.12      0.00
    5   12    3      0.73      0.00
   -9   13    3     -0.68      0.00
   -8   13    3     -1.95      0.00
   -7   13    3      0.40      0.00
   -6   13    3      1.01      0.00
   -5   13    3      3.12      0.00
   -4   13    3      1.71      0.00
   -3   13    3      0.39      0.00
   -2   13    3      7.08      0.00
   -1   13    3      1.18      0.00
    0   13    3      0.65      0.00
    1   13    3     -0.61      0.00
    2   13    3      0.89      0.00
    3   13    3     -0.29      0.00
    4   13    3     -0.18      0.00
    5   13    3     -0.48      0.00
   -8   14    3     -1.30      0.00
   -7   14    3     -2.73      0.00
   -6   14    3      1.39      0.00
   -5   14    3      2.57      0.00
   -4   14    3      0.95      0.00
   -3   14    3      0.20      0.00
   -2   14    3      4.18      0.00
   -1   14    3      0.35      0.00
    0   14    3      3.14      0.00
    1   14    3      0.91      0.00
    2   14    3      1.36      0.00
    3   14    3     -0.14      0.00
    4   14    3     -1.73      0.00
   -8   15    3      0.49      0.00
   -7   15    3     -1.38      0.00
   -6   15    3     -1.43      0.00
   -5   15    3      0.53      0.00
   -4   15    3     -1.13      0.00
   -3   15    3     -4.13      0.00
   -2   15    3     -1.56      0.00
   -1   15    3     -1.16      0.00
    0   15    3      0.27      0.00
    1   15    3     -1.24      0.00
    2   15    3      0.41      0.00
    3   15    3     -0.36      0.00
   -7   16    3     -0.32      0.00
   -6   16    3     -2.04      0.00
   -5   16    3     -0.26      0.00
   -4   16    3      0.27      0.00
   -3   16    3     -0.96      0.00
   -2   16    3     -0.84      0.00
   -1   16    3     -0.32      0.00
    0   16    3     -0.69      0.00
    1   16    3     -0.45      0.00
    2   16    3      0.39      0.00
   -6   17    3     -0.68      0.00
   -5   17    3     -0.30      0.00
   -4   17    3      0.95      0.00
   -3   17    3      1.47      0.00
   -2   17    3     -0.08      0.00
   -1   17    3     -0.23      0.00
    0   17    3      1.19      0.00
    2  -18    4      0.59      0.00
    3  -18    4     -0.14      0.00
    4  -18    4      0.38      0.00
   -1  -17    4      1.04      0.00
    0  -17    4     -0.59      0.00
    1  -17    4     -2.02      0.00
    2  -17    4     -0.15      0.00
    3  -17    4      0.37      0.00
    4  -17    4      0.43      0.00
    5  -17    4      1.04      0.00
    6  -17    4      1.21      0.00
   -2  -16    4      0.61      0.00
   -1  -16    4      1.21      0.00
    0  -16    4     -0.39      0.00
    1  -16    4      1.39      0.00
    2  -16    4     -0.81      0.00
    3  -16    4     -0.01      0.00
    4  -16    4     -0.46      0.00
    5  -16    4      0.09      0.00
    6  -16    4      1.13      0.00
    7  -16    4      1.10      0.00
   -3  -15    4     -1.18      0.00
   -2  -15    4     -2.05      0.00
   -1  -15    4     -0.22      0.00
    0  -15    4     -0.62      0.00
    1  -15    4      0.35      0.00
    2  -15    4     -2.22      0.00
    3  -15    4     -2.09      0.00
    4  -15    4     -2.27      0.00
    5  -15    4     -3.49      0.00
    6  -15    4     -0.61      0.00
    7  -15    4      2.53      0.00
    8  -15    4      0.70      0.00
   -4  -14    4     -0.21      0.00
   -3  -14    4      1.24      0.00
   -2  -14    4     -1.34      0.00
   -1  -14    4      0.13      0.00
    0  -14    4     -0.11      0.00
    1  -14    4      0.20      0.00
    2  -14    4      1.24      0.00
    3  -14    4     -1.31      0.00
    4  -14    4     -1.90      0.00
    5  -14    4     -4.40      0.00
    6  -14    4     -2.64      0.00
    7  -14    4     -1.96      0.00
    8  -14    4      0.52      0.00
   -5  -13    4     -0.80      0.00
   -4  -13    4      1.43      0.00
   -3  -13    4      2.11      0.00
   -2  -13    4      2.28      0.00
   -1  -13    4      1.94      0.00
    0  -13    4      2.17      0.00
    1  -13    4      2.76      0.00
    2  -13    4      4.52      0.00
    3  -13    4      4.30      0.00
    4  -13    4      4.95      0.00
    5  -13    4      2.46      0.00
    6  -13    4     -0.68      0.00
    7  -13    4     -1.02      0.00
    8  -13    4     -0.37      0.00
    9  -13    4      0.36      0.00
   -6  -12    4     -0.08      0.00
   -5  -12    4     -1.83      0.00
   -4  -12    4     -0.30      0.00
   -3  -12    4     -2.17      0.00
   -2  -12    4     -0.64      0.00
   -1  -12    4     -0.88      0.00
    0  -12    4     -3.24      0.00
    1  -12    4     -0.31      0.00
    2  -12    4      1.28      0.00
    3  -12    4      1.60      0.00
    4  -12    4      4.43      0.00
    5  -12    4      2.82      0.00
    6  -12    4     -0.01      0.00
    7  -12    4     -1.50      0.00
    8  -12    4     -0.84      0.00
    9  -12    4     -0.83      0.00
   -6  -11    4     -0.26      0.00
   -5  -11    4     -1.24      0.00
   -4  -11    4     -0.82      0.00
   -3  -11    4     -2.71      0.00
   -2  -11    4     -3.05      0.00
   -1  -11    4     -1.49      0.00
    0  -11    4     -4.60      0.00
    1  -11    4     -3.70      0.00
    2  -11    4     -3.46      0.00
    3  -11    4     -5.54      0.00
    4  -11    4     -0.11      0.00
    5  -11    4     -0.58      0.00
    6  -11    4      2.12      0.00
    7  -11    4     -2.59      0.00
    8  -11    4      0.02      0.00
    9  -11    4     -1.39      0.00
   10  -11    4     -0.48      0.00
   -7  -10    4      1.77      0.00
   -6  -10    4      2.24      0.00
   -5  -10    4      0.77      0.00
   -4  -10    4      1.78      0.00
   -3  -10    4      1.63      0.00
   -2  -10    4     -1.17      0.00
   -1  -10    4      5.29      0.00
    0  -10    4     -1.98      0.00
    1  -10    4      1.28      0.00
    2  -10    4     -0.06      0.00
    3  -10    4     -4.22      0.00
    4  -10    4      0.34      0.00
    5  -10    4      2.89      0.00
    6  -10    4      6.58      0.00
    7  -10    4      1.90      0.00
    8  -10    4      1.11      0.00
    9  -10    4      0.21      0.00
   10  -10    4      2.68      0.00
   -8   -9    4     -1.11      0.00
   -7   -9    4      1.08      0.00
   -6   -9    4      2.06      0.00
   -5   -9    4      3.02      0.00
   -4   -9    4      3.78      0.00
   -3   -9    4      3.24      0.00
   -2   -9    4      2.99      0.00
   -1   -9    4      6.47      0.00
    0   -9    4     -1.51      0.00
    1   -9    4      2.57      0.00
    2   -9    4      3.50      0.00
    3   -9    4     -4.44      0.00
    4   -9    4      1.00      0.00
    5   -9    4     -3.65      0.00
    6   -9    4      0.85      0.00
    7   -9    4      2.99      0.00
    8   -9    4     -0.35      0.00
    9   -9    4     -1.04      0.00
   10   -9    4      1.78      0.00
   -8   -8    4     -2.24      0.00
   -7   -8    4     -2.34      0.00
   -6   -8    4     -3.88      0.00
   -5   -8    4      0.54      0.00
   -4   -8    4     -1.48      0.00
   -3   -8    4      0.73      0.00
   -2   -8    4     -1.86      0.00
   -1   -8    4      3.48      0.00
    0   -8    4     -2.88      0.00
    1   -8    4      0.38      0.00
    2   -8    4      0.55      0.00
    3   -8    4     -5.69      0.00
    4   -8    4     -1.76      0.00
    5   -8    4     -9.38      0.00
    6   -8    4     -3.73      0.00
    7   -8    4      0.05      0.00
    8   -8    4      0.25      0.00
    9   -8    4     -4.50      0.00
   10   -8    4      0.28      0.00
   -8   -7    4     -1.50      0.00
   -7   -7    4     -2.88      0.00
   -6   -7    4     -5.61      0.00
   -5   -7    4     -3.41      0.00
   -4   -7    4     -3.51      0.00
   -3   -7    4     -4.36      0.00
   -2   -7    4     -7.60      0.00
   -1   -7    4      1.66      0.00
    0   -7    4      2.76      0.00
    1   -7    4      3.93      0.00
    2   -7    4      6.09      0.00
    3   -7    4      1.37      0.00
    4   -7    4      5.91      0.00
    5   -7    4     -1.03      0.00
    6   -7    4     -0.24      0.00
    7   -7    4     -2.11      0.00
    8   -7    4      0.35      0.00
    9   -7    4     -3.00      0.00
   10   -7    4     -0.02      0.00
   -9   -6    4      1.75      0.00
   -8   -6    4      2.15      0.00
   -7   -6    4      2.46      0.00
   -6   -6    4     -0.13      0.00
   -5   -6    4     -0.24      0.00
   -4   -6    4      0.94      0.00
   -3   -6    4     -0.67      0.00
   -2   -6    4     -7.00      0.00
   -1   -6    4     -1.52      0.00
    0   -6    4      2.57      0.00
    1   -6    4      7.15      0.00
    2   -6    4      5.61      0.00
    3   -6    4     -0.67      0.00
    4   -6    4      8.65      0.00
    5   -6    4      3.57      0.00
    6   -6    4      3.41      0.00
    7   -6    4      1.92      0.00
    8   -6    4      0.34      0.00
    9   -6    4      0.13      0.00
   10   -6    4      0.82      0.00
   -9   -5    4      3.04      0.00
   -8   -5    4      1.73      0.00
   -7   -5    4      5.16      0.00
   -6   -5    4      2.28      0.00
   -5   -5    4      2.41      0.00
   -4   -5    4      3.87      0.00
   -3   -5    4      7.53      0.00
   -2   -5    4      0.62      0.00
   -1   -5    4    -14.29      0.00
    0   -5    4     -9.11      0.00
    1   -5    4      2.28      0.00
    2   -5    4      3.46      0.00
    3   -5    4    -12.09      0.00
    4   -5    4      0.74      0.00
    5   -5    4     -1.16      0.00
    6   -5    4      5.75      0.00
    7   -5    4      4.88      0.00
    8   -5    4      1.94      0.00
    9   -5    4     -1.95      0.00
   10   -5    4     -0.48      0.00
   -9   -4    4      1.46      0.00
   -8   -4    4     -1.23      0.00
   -7   -4    4      1.59      0.00
   -6   -4    4      0.36      0.00
   -5   -4    4      0.46      0.00
   -4   -4    4     -0.48      0.00
   -3   -4    4     11.18      0.00
   -2   -4    4      2.80      0.00
   -1   -4    4    -12.65      0.00
    0   -4    4    -20.33      0.00
    1   -4    4     -4.43      0.00
    2   -4    4     12.27      0.00
    3   -4    4     -9.27      0.00
    4   -4    4     -4.66      0.00
    5   -4    4     -9.35      0.00
    6   -4    4      0.59      0.00
    7   -4    4      2.94      0.00
    8   -4    4      1.08      0.00
    9   -4    4     -2.03      0.00
   10   -4    4     -1.91      0.00
  -10   -3    4     -2.28      0.00
   -9   -3    4     -2.63      0.00
   -8   -3    4     -2.49      0.00
   -7   -3    4     -1.31      0.00
   -6   -3    4     -1.38      0.00
   -5   -3    4     -2.18      0.00
   -4   -3    4     -5.83      0.00
   -3   -3    4      5.26      0.00
   -2   -3    4     11.16      0.00
   -1   -3    4     14.36      0.00
    0   -3    4    -28.48      0.00
    1   -3    4     -7.52      0.00
    2   -3    4     13.61      0.00
    3   -3    4     -8.45      0.00
    4   -3    4     -4.03      0.00
    5   -3    4    -13.58      0.00
    6   -3    4     -3.70      0.00
    7   -3    4      0.51      0.00
    8   -3    4      0.30      0.00
    9   -3    4     -0.73      0.00
   10   -3    4      0.33      0.00
  -10   -2    4      0.75      0.00
   -9   -2    4     -0.14      0.00
   -8   -2    4     -1.55      0.00
   -7   -2    4      0.34      0.00
   -6   -2    4      1.23      0.00
   -5   -2    4     -0.29      0.00
   -4   -2    4     -6.03      0.00
   -3   -2    4      5.85      0.00
   -2   -2    4     17.32      0.00
   -1   -2    4     44.83      0.00
    0   -2    4     -4.42      0.00
    1   -2    4      4.82      0.00
    2   -2    4     21.06      0.00
    3   -2    4      3.24      0.00
    4   -2    4      8.40      0.00
    5   -2    4     -8.88      0.00
    6   -2    4     -4.63      0.00
    7   -2    4      1.10      0.00
    8   -2    4      1.26      0.00
    9   -2    4     -1.29      0.00
   10   -2    4     -0.77      0.00
  -10   -1    4      0.52      0.00
   -9   -1    4      0.97      0.00
   -8   -1    4     -1.39      0.00
   -7   -1    4      0.62      0.00
   -6   -1    4      1.43      0.00
   -5   -1    4      0.01      0.00
   -4   -1    4     -8.74      0.00
   -3   -1    4     -6.63      0.00
   -2   -1    4    -11.09      0.00
   -1   -1    4     24.24      0.00
    0   -1    4      7.96      0.00
    1   -1    4     -6.97      0.00
    2   -1    4     30.37      0.00
    3   -1    4     10.38      0.00
    4   -1    4     14.84      0.00
    5   -1    4     -2.77      0.00
    6   -1    4     -2.94      0.00
    7   -1    4      0.03      0.00
    8   -1    4      4.43      0.00
    9   -1    4     -0.77      0.00
   10   -1    4     -0.57      0.00
  -10    0    4      0.27      0.00
   -9    0    4     -0.49      0.00
   -8    0    4     -1.23      0.00
   -7    0    4      0.47      0.00
   -6    0    4     -1.39      0.00
   -5    0    4     -0.07      0.00
   -4    0    4    -14.09      0.00
   -3    0    4    -19.41      0.00
   -2    0    4    -30.92      0.00
   -1    0    4    -15.47      0.00
    0    0    4    -16.43      0.00
    1    0    4    -38.51      0.00
    2    0    4      3.43      0.00
    3    0    4     -2.41      0.00
    4    0    4      8.94      0.00
    5    0    4      2.16      0.00
    6    0    4     -2.86      0.00
    7    0    4     -1.64      0.00
    8    0    4      1.36      0.00
    9    0    4     -1.62      0.00
   10    0    4     -0.63      0.00
  -10    1    4      2.44      0.00
   -9    1    4      0.58      0.00
   -8    1    4     -0.95      0.00
   -7    1    4      1.54      0.00
   -6    1    4      1.20      0.00
   -5    1    4     10.09      0.00
   -4    1    4     -0.27      0.00
   -3    1    4     -1.58      0.00
   -2    1    4      5.85      0.00
   -1    1    4    -18.77      0.00
    0    1    4      5.29      0.00
    1    1    4    -37.22      0.00
    2    1    4    -11.49      0.00
    3    1    4     -3.44      0.00
    4    1    4      5.92      0.00
    5    1    4      3.03      0.00
    6    1    4     -1.45      0.00
    7    1    4     -0.75      0.00
    8    1    4      0.78      0.00
    9    1    4      0.45      0.00
   10    1    4      1.88      0.00
  -11    2    4     -0.97      0.00
  -10    2    4      2.06      0.00
   -9    2    4      1.82      0.00
   -8    2    4     -0.47      0.00
   -7    2    4      2.50      0.00
   -6    2    4      2.25      0.00
   -5    2    4     14.21      0.00
   -4    2    4     11.70      0.00
   -3    2    4      9.09      0.00
   -2    2    4     32.45      0.00
   -1    2    4      4.46      0.00
    0    2    4     36.24      0.00
    1    2    4      2.01      0.00
    2    2    4      1.59      0.00
    3    2    4     -1.75      0.00
    4    2    4      7.15      0.00
    5    2    4      3.56      0.00
    6    2    4      1.25      0.00
    7    2    4      4.36      0.00
    8    2    4      2.80      0.00
    9    2    4      3.18      0.00
   10    2    4      1.39      0.00
  -11    3    4     -1.69      0.00
  -10    3    4      0.12      0.00
   -9    3    4     -0.40      0.00
   -8    3    4     -1.17      0.00
   -7    3    4     -1.34      0.00
   -6    3    4     -3.53      0.00
   -5    3    4      0.87      0.00
   -4    3    4      2.68      0.00
   -3    3    4     -7.59      0.00
   -2    3    4      9.93      0.00
   -1    3    4      5.68      0.00
    0    3    4      4.89      0.00
    1    3    4     -1.13      0.00
    2    3    4     -9.55      0.00
    3    3    4    -13.41      0.00
    4    3    4     -3.00      0.00
    5    3    4     -3.04      0.00
    6    3    4     -4.35      0.00
    7    3    4     -1.32      0.00
    8    3    4     -1.76      0.00
    9    3    4     -0.55      0.00
  -11    4    4     -1.12      0.00
  -10    4    4     -0.02      0.00
   -9    4    4      1.24      0.00
   -8    4    4     -2.11      0.00
   -7    4    4     -2.37      0.00
   -6    4    4     -2.46      0.00
   -5    4    4     -6.13      0.00
   -4    4    4     -6.12      0.00
   -3    4    4     -8.81      0.00
   -2    4    4     -4.03      0.00
   -1    4    4      4.79      0.00
    0    4    4      0.98      0.00
    1    4    4      0.28      0.00
    2    4    4     -3.53      0.00
    3    4    4     -6.34      0.00
    4    4    4     -4.26      0.00
    5    4    4     -2.21      0.00
    6    4    4     -4.57      0.00
    7    4    4     -3.17      0.00
    8    4    4     -3.07      0.00
    9    4    4     -1.43      0.00
  -11    5    4     -1.44      0.00
  -10    5    4      0.29      0.00
   -9    5    4      3.46      0.00
   -8    5    4     -0.94      0.00
   -7    5    4     -1.26      0.00
   -6    5    4      1.65      0.00
   -5    5    4     -2.70      0.00
   -4    5    4     -6.46      0.00
   -3    5    4     -4.63      0.00
   -2    5    4    -10.75      0.00
   -1    5    4      8.82      0.00
    0    5    4     17.85      0.00
    1    5    4     12.38      0.00
    2    5    4      6.96      0.00
    3    5    4      8.94      0.00
    4    5    4      5.71      0.00
    5    5    4      3.06      0.00
    6    5    4      1.77      0.00
    7    5    4     -0.16      0.00
    8    5    4      1.13      0.00
    9    5    4      0.79      0.00
  -11    6    4     -1.51      0.00
  -10    6    4     -1.75      0.00
   -9    6    4      1.43      0.00
   -8    6    4      1.47      0.00
   -7    6    4     -1.63      0.00
   -6    6    4      2.56      0.00
   -5    6    4      1.61      0.00
   -4    6    4     -0.11      0.00
   -3    6    4     -4.47      0.00
   -2    6    4    -15.41      0.00
   -1    6    4    -12.01      0.00
    0    6    4      2.73      0.00
    1    6    4      3.75      0.00
    2    6    4     -1.28      0.00
    3    6    4      4.67      0.00
    4    6    4      5.49      0.00
    5    6    4      1.88      0.00
    6    6    4      3.60      0.00
    7    6    4     -1.51      0.00
    8    6    4      1.75      0.00
  -10    7    4     -0.90      0.00
   -9    7    4      0.92      0.00
   -8    7    4      0.94      0.00
   -7    7    4      1.31      0.00
   -6    7    4      1.49      0.00
   -5    7    4      6.18      0.00
   -4    7    4      6.75      0.00
   -3    7    4      5.65      0.00
   -2    7    4     -8.78      0.00
   -1    7    4    -16.58      0.00
    0    7    4     -9.72      0.00
    1    7    4      0.03      0.00
    2    7    4    -12.18      0.00
    3    7    4     -5.53      0.00
    4    7    4     -1.88      0.00
    5    7    4     -2.17      0.00
    6    7    4      1.21      0.00
    7    7    4     -1.35      0.00
    8    7    4     -1.13      0.00
  -10    8    4      1.17      0.00
   -9    8    4     -0.63      0.00
   -8    8    4      2.21      0.00
   -7    8    4     -0.02      0.00
   -6    8    4      0.13      0.00
   -5    8    4      0.97      0.00
   -4    8    4      4.34      0.00
   -3    8    4      9.04      0.00
   -2    8    4     11.84      0.00
   -1    8    4     -1.73      0.00
    0    8    4     -1.62      0.00
    1    8    4      2.23      0.00
    2    8    4     -4.46      0.00
    3    8    4     -3.33      0.00
    4    8    4      1.33      0.00
    5    8    4      0.56      0.00
    6    8    4      1.92      0.00
    7    8    4     -0.43      0.00
    8    8    4     -0.14      0.00
  -10    9    4     -0.35      0.00
   -9    9    4     -3.34      0.00
   -8    9    4      0.01      0.00
   -7    9    4     -3.30      0.00
   -6    9    4     -1.88      0.00
   -5    9    4     -5.36      0.00
   -4    9    4      0.06      0.00
   -3    9    4      4.95      0.00
   -2    9    4     11.18      0.00
   -1    9    4      3.05      0.00
    0    9    4      3.02      0.00
    1    9    4      5.08      0.00
    2    9    4      2.08      0.00
    3    9    4     -0.57      0.00
    4    9    4      0.97      0.00
    5    9    4     -0.55      0.00
    6    9    4      1.04      0.00
    7    9    4     -0.03      0.00
  -10   10    4      1.12      0.00
   -9   10    4     -2.75      0.00
   -8   10    4      1.44      0.00
   -7   10    4     -1.11      0.00
   -6   10    4     -0.12      0.00
   -5   10    4     -2.51      0.00
   -4   10    4     -3.06      0.00
   -3   10    4     -4.05      0.00
   -2   10    4      2.37      0.00
   -1   10    4     -0.10      0.00
    0   10    4      2.48      0.00
    1   10    4      2.28      0.00
    2   10    4      0.61      0.00
    3   10    4     -2.73      0.00
    4   10    4     -0.51      0.00
    5   10    4     -3.33      0.00
    6   10    4      0.64      0.00
    7   10    4     -0.21      0.00
  -10   11    4      2.29      0.00
   -9   11    4     -0.25      0.00
   -8   11    4      1.99      0.00
   -7   11    4     -0.55      0.00
   -6   11    4      1.38      0.00
   -5   11    4     -1.11      0.00
   -4   11    4     -4.70      0.00
   -3   11    4     -3.97      0.00
   -2   11    4      2.45      0.00
   -1   11    4     -2.80      0.00
    0   11    4     -0.35      0.00
    1   11    4      2.60      0.00
    2   11    4      0.00      0.00
    3   11    4     -0.52      0.00
    4   11    4      1.25      0.00
    5   11    4     -0.77      0.00
    6   11    4      0.21      0.00
   -9   12    4      0.59      0.00
   -8   12    4      1.18      0.00
   -7   12    4     -0.76      0.00
   -6   12    4      1.90      0.00
   -5   12    4     -0.75      0.00
   -4   12    4     -2.36      0.00
   -3   12    4     -4.55      0.00
   -2   12    4     -0.11      0.00
   -1   12    4     -5.48      0.00
    0   12    4     -1.86      0.00
    1   12    4      0.48      0.00
    2   12    4      1.03      0.00
    3   12    4      1.02      0.00
    4   12    4      2.22      0.00
    5   12    4      0.28      0.00
   -9   13    4     -1.23      0.00
   -8   13    4      0.66      0.00
   -7   13    4      0.86      0.00
   -6   13    4      1.75      0.00
   -5   13    4      2.73      0.00
   -4   13    4     -0.09      0.00
   -3   13    4     -1.26      0.00
   -2   13    4      1.92      0.00
   -1   13    4     -2.19      0.00
    0   13    4     -1.71      0.00
    1   13    4     -0.70      0.00
    2   13    4     -0.64      0.00
    3   13    4     -1.32      0.00
    4   13    4      0.02      0.00
    5   13    4     -0.05      0.00
   -8   14    4     -2.17      0.00
   -7   14    4     -0.08      0.00
   -6   14    4      0.86      0.00
   -5   14    4      3.36      0.00
   -4   14    4      2.08      0.00
   -3   14    4      1.65      0.00
   -2   14    4      4.61      0.00
   -1   14    4      1.37      0.00
    0   14    4      0.58      0.00
    1   14    4      0.63      0.00
    2   14    4     -0.45      0.00
    3   14    4     -1.44      0.00
    4   14    4     -0.33      0.00
   -8   15    4     -1.19      0.00
   -7   15    4     -1.25      0.00
   -6   15    4      0.41      0.00
   -5   15    4      2.10      0.00
   -4   15    4     -0.89      0.00
   -3   15    4     -0.17      0.00
   -2   15    4      2.03      0.00
   -1   15    4      0.53      0.00
    0   15    4      0.77      0.00
    1   15    4      0.88      0.00
    2   15    4      0.69      0.00
    3   15    4     -0.20      0.00
   -7   16    4     -0.40      0.00
   -6   16    4     -1.75      0.00
   -5   16    4     -0.69      0.00
   -4   16    4     -1.89      0.00
   -3   16    4     -1.84      0.00
   -2   16    4     -1.21      0.00
   -1   16    4     -0.80      0.00
    0   16    4     -0.64      0.00
    1   16    4     -0.85      0.00
   -5   17    4      0.19      0.00
   -4   17    4      0.57      0.00
   -3   17    4     -0.43      0.00
   -2   17    4     -0.92      0.00
   -1   17    4      1.16      0.00
    0   17    4     -0.07      0.00
    2  -18    5      0.83      0.00
    3  -18    5     -0.51      0.00
    4  -18    5      0.02      0.00
   -1  -17    5     -0.37      0.00
    0  -17    5     -1.25      0.00
    1  -17    5     -0.11      0.00
    2  -17    5      0.21      0.00
    3  -17    5     -0.42      0.00
    4  -17    5      0.37      0.00
    5  -17    5      2.40      0.00
    6  -17    5      0.78      0.00
   -2  -16    5      1.60      0.00
   -1  -16    5      1.30      0.00
    0  -16    5      0.14      0.00
    1  -16    5     -1.11      0.00
    2  -16    5      0.93      0.00
    3  -16    5      1.19      0.00
    4  -16    5     -0.17      0.00
    5  -16    5      0.46      0.00
    6  -16    5      0.22      0.00
    7  -16    5     -0.65      0.00
   -3  -15    5     -2.05      0.00
   -2  -15    5     -0.70      0.00
   -1  -15    5      0.05      0.00
    0  -15    5     -1.12      0.00
    1  -15    5      0.37      0.00
    2  -15    5     -1.07      0.00
    3  -15    5     -0.35      0.00
    4  -15    5     -2.17      0.00
    5  -15    5     -0.04      0.00
    6  -15    5      1.68      0.00
    7  -15    5      2.90      0.00
    8  -15    5     -0.03      0.00
   -4  -14    5      0.67      0.00
   -3  -14    5     -1.18      0.00
   -2  -14    5     -2.66      0.00
   -1  -14    5     -0.13      0.00
    0  -14    5     -1.95      0.00
    1  -14    5     -0.05      0.00
    2  -14    5     -4.09      0.00
    3  -14    5     -2.88      0.00
    4  -14    5     -4.07      0.00
    5  -14    5     -3.59      0.00
    6  -14    5     -2.08      0.00
    7  -14    5      1.64      0.00
    8  -14    5     -0.25      0.00
   -5  -13    5      0.57      0.00
   -4  -13    5      0.82      0.00
   -3  -13    5      3.95      0.00
   -2  -13    5      0.62      0.00
   -1  -13    5      1.78      0.00
    0  -13    5      2.11      0.00
    1  -13    5      2.52      0.00
    2  -13    5      2.81      0.00
    3  -13    5      1.38      0.00
    4  -13    5      0.74      0.00
    5  -13    5     -2.92      0.00
    6  -13    5     -1.57      0.00
    7  -13    5     -1.93      0.00
    8  -13    5      0.71      0.00
    9  -13    5      2.10      0.00
   -6  -12    5      0.16      0.00
   -5  -12    5     -1.24      0.00
   -4  -12    5     -0.15      0.00
   -3  -12    5      1.65      0.00
   -2  -12    5      0.88      0.00
   -1  -12    5      0.65      0.00
    0  -12    5      1.98      0.00
    1  -12    5      2.30      0.00
    2  -12    5      6.00      0.00
    3  -12    5      5.08      0.00
    4  -12    5      6.67      0.00
    5  -12    5      2.45      0.00
    6  -12    5     -0.09      0.00
    7  -12    5     -1.13      0.00
    8  -12    5     -0.83      0.00
    9  -12    5     -0.82      0.00
   -6  -11    5     -0.20      0.00
   -5  -11    5     -2.45      0.00
   -4  -11    5     -1.88      0.00
   -3  -11    5     -3.10      0.00
   -2  -11    5     -1.51      0.00
   -1  -11    5     -3.16      0.00
    0  -11    5     -3.59      0.00
    1  -11    5     -2.52      0.00
    2  -11    5     -1.14      0.00
    3  -11    5     -3.10      0.00
    4  -11    5      1.55      0.00
    5  -11    5      0.50      0.00
    6  -11    5     -1.27      0.00
    7  -11    5     -2.40      0.00
    8  -11    5     -1.86      0.00
    9  -11    5     -1.15      0.00
   10  -11    5     -0.74      0.00
   -7  -10    5      1.50      0.00
   -6  -10    5      0.53      0.00
   -5  -10    5      0.53      0.00
   -4  -10    5      0.10      0.00
   -3  -10    5     -1.35      0.00
   -2  -10    5     -0.18      0.00
   -1  -10    5     -2.15      0.00
    0  -10    5     -1.45      0.00
    1  -10    5     -1.40      0.00
    2  -10    5     -4.10      0.00
    3  -10    5     -6.12      0.00
    4  -10    5      2.61      0.00
    5  -10    5      2.63      0.00
    6  -10    5      3.29      0.00
    7  -10    5     -0.90      0.00
    8  -10    5     -0.91      0.00
    9  -10    5     -0.68      0.00
   10  -10    5     -1.18      0.00
   -8   -9    5     -0.25      0.00
   -7   -9    5      2.37      0.00
   -6   -9    5      2.63      0.00
   -5   -9    5      2.06      0.00
   -4   -9    5      1.69      0.00
   -3   -9    5      2.65      0.00
   -2   -9    5      1.96      0.00
   -1   -9    5      2.23      0.00
    0   -9    5     -0.88      0.00
    1   -9    5      5.48      0.00
    2   -9    5      0.09      0.00
    3   -9    5     -1.41      0.00
    4   -9    5      2.43      0.00
    5   -9    5      2.69      0.00
    6   -9    5      6.11      0.00
    7   -9    5      3.51      0.00
    8   -9    5     -0.63      0.00
    9   -9    5      0.73      0.00
   10   -9    5      2.78      0.00
   -8   -8    5     -2.34      0.00
   -7   -8    5     -1.32      0.00
   -6   -8    5      0.18      0.00
   -5   -8    5      2.20      0.00
   -4   -8    5      1.52      0.00
   -3   -8    5      1.72      0.00
   -2   -8    5      2.15      0.00
   -1   -8    5      1.30      0.00
    0   -8    5     -5.99      0.00
    1   -8    5      4.04      0.00
    2   -8    5     -0.68      0.00
    3   -8    5     -7.15      0.00
    4   -8    5     -5.59      0.00
    5   -8    5     -8.16      0.00
    6   -8    5     -0.55      0.00
    7   -8    5      4.55      0.00
    8   -8    5     -1.33      0.00
    9   -8    5     -0.83      0.00
   10   -8    5      1.34      0.00
   -8   -7    5     -2.70      0.00
   -7   -7    5     -3.01      0.00
   -6   -7    5     -5.09      0.00
   -5   -7    5      0.42      0.00
   -4   -7    5     -4.27      0.00
   -3   -7    5     -0.73      0.00
   -2   -7    5      0.09      0.00
   -1   -7    5      3.14      0.00
    0   -7    5     -6.55      0.00
    1   -7    5      6.60      0.00
    2   -7    5     -2.95      0.00
    3   -7    5     -2.35      0.00
    4   -7    5     -3.46      0.00
    5   -7    5     -9.57      0.00
    6   -7    5     -3.85      0.00
    7   -7    5      1.43      0.00
    8   -7    5     -2.08      0.00
    9   -7    5     -4.79      0.00
   10   -7    5      0.67      0.00
   -9   -6    5      1.02      0.00
   -8   -6    5      0.12      0.00
   -7   -6    5     -1.28      0.00
   -6   -6    5     -3.50      0.00
   -5   -6    5      0.15      0.00
   -4   -6    5     -3.58      0.00
   -3   -6    5     -1.20      0.00
   -2   -6    5     -2.78      0.00
   -1   -6    5      7.12      0.00
    0   -6    5      3.42      0.00
    1   -6    5     12.49      0.00
    2   -6    5      3.75      0.00
    3   -6    5     13.74      0.00
    4   -6    5      8.07      0.00
    5   -6    5     -0.39      0.00
    6   -6    5     -0.22      0.00
    7   -6    5      0.29      0.00
    8   -6    5      1.01      0.00
    9   -6    5     -1.32      0.00
   10   -6    5      1.40      0.00
   -9   -5    5      1.74      0.00
   -8   -5    5      3.23      0.00
   -7   -5    5      3.04      0.00
   -6   -5    5     -0.15      0.00
   -5   -5    5      2.74      0.00
   -4   -5    5     -0.47      0.00
   -3   -5    5      0.37      0.00
   -2   -5    5     -9.21      0.00
   -1   -5    5      0.73      0.00
    0   -5    5     -0.33      0.00
    1   -5    5      9.78      0.00
    2   -5    5     -3.17      0.00
    3   -5    5      5.69      0.00
    4   -5    5      4.93      0.00
    5   -5    5      4.03      0.00
    6   -5    5      3.60      0.00
    7   -5    5      3.57      0.00
    8   -5    5      2.00      0.00
    9   -5    5     -0.77      0.00
   10   -5    5      0.20      0.00
   -9   -4    5      2.50      0.00
   -8   -4    5      0.63      0.00
   -7   -4    5      4.28      0.00
   -6   -4    5     -0.33      0.00
   -5   -4    5      2.61      0.00
   -4   -4    5      0.43      0.00
   -3   -4    5      2.26      0.00
   -2   -4    5     -6.91      0.00
   -1   -4    5    -16.68      0.00
    0   -4    5    -14.64      0.00
    1   -4    5      5.80      0.00
    2   -4    5     -8.51      0.00
    3   -4    5     -6.96      0.00
    4   -4    5     -4.24      0.00
    5   -4    5     -0.05      0.00
    6   -4    5      2.18      0.00
    7   -4    5      2.19      0.00
    8   -4    5      1.89      0.00
    9   -4    5     -2.23      0.00
   10   -4    5     -0.21      0.00
  -10   -3    5     -2.25      0.00
   -9   -3    5     -0.01      0.00
   -8   -3    5     -2.23      0.00
   -7   -3    5      0.84      0.00
   -6   -3    5     -1.24      0.00
   -5   -3    5      1.59      0.00
   -4   -3    5     -0.25      0.00
   -3   -3    5     11.19      0.00
   -2   -3    5      0.82      0.00
   -1   -3    5    -15.67      0.00
    0   -3    5    -20.36      0.00
    1   -3    5      5.61      0.00
    2   -3    5     -2.30      0.00
    3   -3    5     -5.49      0.00
    4   -3    5     -7.95      0.00
    5   -3    5     -6.26      0.00
    6   -3    5     -1.46      0.00
    7   -3    5      1.32      0.00
    8   -3    5     -0.06      0.00
    9   -3    5     -1.20      0.00
   10   -3    5      0.74      0.00
  -10   -2    5     -0.87      0.00
   -9   -2    5     -1.91      0.00
   -8   -2    5     -1.71      0.00
   -7   -2    5      0.49      0.00
   -6   -2    5     -1.13      0.00
   -5   -2    5     -0.22      0.00
   -4   -2    5      0.47      0.00
   -3   -2    5     12.66      0.00
   -2   -2    5     17.60      0.00
   -1   -2    5     18.49      0.00
    0   -2    5    -22.69      0.00
    1   -2    5     10.21      0.00
    2   -2    5      4.54      0.00
    3   -2    5     -5.49      0.00
    4   -2    5     -5.46      0.00
    5   -2    5     -8.35      0.00
    6   -2    5     -2.12      0.00
    7   -2    5      1.68      0.00
    8   -2    5      0.06      0.00
    9   -2    5     -0.23      0.00
   10   -2    5      2.56      0.00
  -10   -1    5      1.13      0.00
   -9   -1    5      0.40      0.00
   -8   -1    5     -0.81      0.00
   -7   -1    5      1.16      0.00
   -6   -1    5     -0.10      0.00
   -5   -1    5     -2.15      0.00
   -4   -1    5     -5.11      0.00
   -3   -1    5      4.98      0.00
   -2   -1    5     18.60      0.00
   -1   -1    5     40.32      0.00
    0   -1    5    -21.22      0.00
    1   -1    5     30.44      0.00
    2   -1    5     16.27      0.00
    3   -1    5      7.10      0.00
    4   -1    5      5.32      0.00
    5   -1    5     -7.14      0.00
    6   -1    5     -3.05      0.00
    7   -1    5      3.20      0.00
    8   -1    5      0.74      0.00
    9   -1    5     -2.15      0.00
   10   -1    5      0.43      0.00
  -10    0    5     -1.12      0.00
   -9    0    5      0.29      0.00
   -8    0    5     -1.96      0.00
   -7    0    5      0.31      0.00
   -6    0    5      0.44      0.00
   -5    0    5     -6.77      0.00
   -4    0    5    -15.03      0.00
   -3    0    5    -13.37      0.00
   -2    0    5    -18.62      0.00
   -1    0    5     22.84      0.00
    0    0    5    -31.59      0.00
    1    0    5      7.83      0.00
    2    0    5      9.31      0.00
    3    0    5      9.34      0.00
    4    0    5      9.52      0.00
    5    0    5     -5.33      0.00
    6    0    5     -1.96      0.00
    7    0    5     -0.72      0.00
    8    0    5      0.95      0.00
    9    0    5     -2.45      0.00
   10    0    5     -0.33      0.00
  -10    1    5      1.31      0.00
   -9    1    5     -0.38      0.00
   -8    1    5     -1.75      0.00
   -7    1    5      1.16      0.00
   -6    1    5      1.39      0.00
   -5    1    5     -0.64      0.00
   -4    1    5    -11.81      0.00
   -3    1    5    -11.63      0.00
   -2    1    5    -25.36      0.00
   -1    1    5     19.14      0.00
    0    1    5    -35.63      0.00
    1    1    5    -20.40      0.00
    2    1    5     -6.45      0.00
    3    1    5      2.79      0.00
    4    1    5      9.89      0.00
    5    1    5     -0.46      0.00
    6    1    5     -1.30      0.00
    7    1    5     -2.26      0.00
    8    1    5      1.28      0.00
    9    1    5     -1.40      0.00
   10    1    5     -0.26      0.00
  -11    2    5      0.30      0.00
  -10    2    5      2.37      0.00
   -9    2    5      1.85      0.00
   -8    2    5     -0.91      0.00
   -7    2    5      1.91      0.00
   -6    2    5      6.04      0.00
   -5    2    5     12.32      0.00
   -4    2    5      4.48      0.00
   -3    2    5      4.97      0.00
   -2    2    5     -1.70      0.00
   -1    2    5      9.46      0.00
    0    2    5      6.16      0.00
    1    2    5    -12.42      0.00
    2    2    5     -7.53      0.00
    3    2    5      5.66      0.00
    4    2    5      8.48      0.00
    5    2    5      1.64      0.00
    6    2    5      3.54      0.00
    7    2    5      1.18      0.00
    8    2    5      4.15      0.00
    9    2    5      1.56      0.00
   10    2    5      2.13      0.00
  -11    3    5     -1.29      0.00
  -10    3    5      0.38      0.00
   -9    3    5      2.05      0.00
   -8    3    5     -1.63      0.00
   -7    3    5      0.14      0.00
   -6    3    5      0.97      0.00
   -5    3    5     10.58      0.00
   -4    3    5      4.35      0.00
   -3    3    5      5.29      0.00
   -2    3    5      8.34      0.00
   -1    3    5     -3.34      0.00
    0    3    5     23.26      0.00
    1    3    5     -2.17      0.00
    2    3    5    -11.54      0.00
    3    3    5     -3.29      0.00
    4    3    5      2.82      0.00
    5    3    5      0.57      0.00
    6    3    5      2.48      0.00
    7    3    5      1.54      0.00
    8    3    5      1.47      0.00
    9    3    5      1.72      0.00
  -11    4    5     -0.87      0.00
  -10    4    5      0.89      0.00
   -9    4    5      0.39      0.00
   -8    4    5     -2.44      0.00
   -7    4    5     -2.12      0.00
   -6    4    5     -5.40      0.00
   -5    4    5     -0.21      0.00
   -4    4    5     -0.23      0.00
   -3    4    5      0.66      0.00
   -2    4    5      7.82      0.00
   -1    4    5     -7.32      0.00
    0    4    5      4.92      0.00
    1    4    5     -7.63      0.00
    2    4    5    -14.79      0.00
    3    4    5    -12.83      0.00
    4    4    5     -5.09      0.00
    5    4    5     -5.49      0.00
    6    4    5     -4.66      0.00
    7    4    5     -4.45      0.00
    8    4    5     -2.41      0.00
    9    4    5     -1.91      0.00
  -11    5    5     -0.42      0.00
  -10    5    5     -0.22      0.00
   -9    5    5      2.22      0.00
   -8    5    5     -2.02      0.00
   -7    5    5     -0.65      0.00
   -6    5    5     -3.43      0.00
   -5    5    5     -3.94      0.00
   -4    5    5     -3.20      0.00
   -3    5    5     -3.92      0.00
   -2    5    5      8.54      0.00
   -1    5    5      5.26      0.00
    0    5    5     13.97      0.00
    1    5    5      6.92      0.00
    2    5    5      5.79      0.00
    3    5    5      2.47      0.00
    4    5    5     -1.10      0.00
    5    5    5     -0.24      0.00
    6    5    5     -2.01      0.00
    7    5    5     -1.36      0.00
    8    5    5      0.18      0.00
    9    5    5     -0.56      0.00
  -11    6    5     -1.15      0.00
  -10    6    5     -1.26      0.00
   -9    6    5      3.42      0.00
   -8    6    5     -1.21      0.00
   -7    6    5      0.70      0.00
   -6    6    5     -0.08      0.00
   -5    6    5     -4.50      0.00
   -4    6    5     -5.69      0.00
   -3    6    5     -5.97      0.00
   -2    6    5     -6.69      0.00
   -1    6    5      2.74      0.00
    0    6    5     13.59      0.00
    1    6    5      6.89      0.00
    2    6    5      5.67      0.00
    3    6    5      9.27      0.00
    4    6    5      4.46      0.00
    5    6    5      3.66      0.00
    6    6    5      2.34      0.00
    7    6    5      0.18      0.00
    8    6    5      1.65      0.00
  -10    7    5     -0.79      0.00
   -9    7    5      0.88      0.00
   -8    7    5      0.55      0.00
   -7    7    5      0.66      0.00
   -6    7    5      1.92      0.00
   -5    7    5      1.73      0.00
   -4    7    5      1.08      0.00
   -3    7    5     -3.17      0.00
   -2    7    5    -15.90      0.00
   -1    7    5    -14.27      0.00
    0    7    5     -1.94      0.00
    1    7    5     -4.72      0.00
    2    7    5     -5.46      0.00
    3    7    5      1.16      0.00
    4    7    5      1.54      0.00
    5    7    5      0.02      0.00
    6    7    5      0.90      0.00
    7    7    5     -1.90      0.00
    8    7    5      1.02      0.00
  -10    8    5      0.87      0.00
   -9    8    5      0.71      0.00
   -8    8    5      1.24      0.00
   -7    8    5      2.61      0.00
   -6    8    5      2.25      0.00
   -5    8    5      4.24      0.00
   -4    8    5      4.15      0.00
   -3    8    5      6.10      0.00
   -2    8    5     -2.57      0.00
   -1    8    5     -8.48      0.00
    0    8    5     -3.89      0.00
    1    8    5      0.02      0.00
    2    8    5     -8.28      0.00
    3    8    5     -1.92      0.00
    4    8    5      0.53      0.00
    5    8    5     -0.94      0.00
    6    8    5      0.36      0.00
    7    8    5     -1.22      0.00
    8    8    5     -0.88      0.00
  -10    9    5     -0.09      0.00
   -9    9    5     -3.13      0.00
   -8    9    5      1.53      0.00
   -7    9    5      0.14      0.00
   -6    9    5     -2.12      0.00
   -5    9    5      0.14      0.00
   -4    9    5      2.72      0.00
   -3    9    5      7.26      0.00
   -2    9    5     10.44      0.00
   -1    9    5      0.95      0.00
    0    9    5     -0.15      0.00
    1    9    5      3.57      0.00
    2    9    5     -2.58      0.00
    3    9    5     -0.86      0.00
    4    9    5      2.44      0.00
    5    9    5      1.75      0.00
    6    9    5      1.32      0.00
    7    9    5     -0.32      0.00
  -10   10    5      0.21      0.00
   -9   10    5     -3.49      0.00
   -8   10    5     -0.59      0.00
   -7   10    5     -2.33      0.00
   -6   10    5     -1.97      0.00
   -5   10    5     -1.25      0.00
   -4   10    5     -1.29      0.00
   -3   10    5      2.67      0.00
   -2   10    5      6.23      0.00
   -1   10    5     -0.02      0.00
    0   10    5      0.44      0.00
    1   10    5      2.91      0.00
    2   10    5     -1.61      0.00
    3   10    5     -2.45      0.00
    4   10    5     -1.86      0.00
    5   10    5     -0.65      0.00
    6   10    5      0.74      0.00
  -10   11    5      1.62      0.00
   -9   11    5     -2.94      0.00
   -8   11    5      1.34      0.00
   -7   11    5     -0.31      0.00
   -6   11    5      0.05      0.00
   -5   11    5     -1.39      0.00
   -4   11    5     -3.30      0.00
   -3   11    5     -2.07      0.00
   -2   11    5      3.07      0.00
   -1   11    5     -0.64      0.00
    0   11    5      2.29      0.00
    1   11    5      1.47      0.00
    2   11    5      0.11      0.00
    3   11    5     -0.72      0.00
    4   11    5     -1.46      0.00
    5   11    5     -1.66      0.00
    6   11    5      0.05      0.00
   -9   12    5     -0.93      0.00
   -8   12    5      1.93      0.00
   -7   12    5     -0.32      0.00
   -6   12    5      0.55      0.00
   -5   12    5     -0.38      0.00
   -4   12    5     -4.63      0.00
   -3   12    5     -3.25      0.00
   -2   12    5      2.54      0.00
   -1   12    5     -1.87      0.00
    0   12    5     -0.19      0.00
    1   12    5      3.23      0.00
    2   12    5      0.61      0.00
    3   12    5      2.46      0.00
    4   12    5      0.80      0.00
    5   12    5     -0.22      0.00
   -9   13    5      0.18      0.00
   -8   13    5      0.66      0.00
   -7   13    5     -0.11      0.00
   -6   13    5      1.19      0.00
   -5   13    5     -0.17      0.00
   -4   13    5     -2.61      0.00
   -3   13    5     -5.04      0.00
   -2   13    5     -0.33      0.00
   -1   13    5     -3.95      0.00
    0   13    5     -1.55      0.00
    1   13    5     -0.04      0.00
    2   13    5     -0.96      0.00
    3   13    5      1.47      0.00
    4   13    5      0.46      0.00
   -8   14    5      0.06      0.00
   -7   14    5      0.09      0.00
   -6   14    5      1.71      0.00
   -5   14    5      2.58      0.00
   -4   14    5      2.45      0.00
   -3   14    5     -0.13      0.00
   -2   14    5      2.46      0.00
   -1   14    5     -1.44      0.00
    0   14    5     -1.21      0.00
    1   14    5     -0.61      0.00
    2   14    5     -1.84      0.00
    3   14    5     -0.26      0.00
    4   14    5      0.20      0.00
   -8   15    5     -1.78      0.00
   -7   15    5      0.43      0.00
   -6   15    5      1.09      0.00
   -5   15    5      1.29      0.00
   -4   15    5      3.60      0.00
   -3   15    5      0.52      0.00
   -2   15    5      2.67      0.00
   -1   15    5      1.77      0.00
    0   15    5      0.68      0.00
    1   15    5      1.81      0.00
    2   15    5     -0.75      0.00
    3   15    5     -0.88      0.00
   -7   16    5      0.20      0.00
   -6   16    5      0.05      0.00
   -5   16    5     -0.25      0.00
   -4   16    5     -0.48      0.00
   -3   16    5     -1.64      0.00
   -2   16    5      1.11      0.00
   -1   16    5      0.09      0.00
    0   16    5     -1.19      0.00
    1   16    5      0.98      0.00
   -5   17    5     -1.83      0.00
   -4   17    5     -0.39      0.00
   -3   17    5     -0.83      0.00
   -2   17    5     -0.08      0.00
   -1   17    5     -0.46      0.00
    2  -18    6     -0.46      0.00
    3  -18    6      0.67      0.00
   -1  -17    6     -1.14      0.00
    0  -17    6     -0.60      0.00
    1  -17    6      1.31      0.00
    2  -17    6      0.33      0.00
    3  -17    6     -0.17      0.00
    4  -17    6      0.64      0.00
    5  -17    6      0.92      0.00
    6  -17    6      0.26      0.00
   -2  -16    6      1.99      0.00
   -1  -16    6     -0.17      0.00
    0  -16    6     -0.18      0.00
    1  -16    6      0.47      0.00
    2  -16    6      0.70      0.00
    3  -16    6      0.37      0.00
    4  -16    6      0.34      0.00
    5  -16    6      2.17      0.00
    6  -16    6     -0.17      0.00
    7  -16    6     -1.05      0.00
   -3  -15    6     -0.35      0.00
   -2  -15    6      0.87      0.00
   -1  -15    6     -0.02      0.00
    0  -15    6      1.87      0.00
    1  -15    6     -1.05      0.00
    2  -15    6      1.10      0.00
    3  -15    6      0.19      0.00
    4  -15    6     -0.33      0.00
    5  -15    6      0.39      0.00
    6  -15    6      1.46      0.00
    7  -15    6      0.62      0.00
    8  -15    6     -0.71      0.00
   -4  -14    6     -0.24      0.00
   -3  -14    6     -3.61      0.00
   -2  -14    6     -2.22      0.00
   -1  -14    6     -2.06      0.00
    0  -14    6     -1.16      0.00
    1  -14    6     -3.50      0.00
    2  -14    6     -1.85      0.00
    3  -14    6     -2.60      0.00
    4  -14    6     -3.82      0.00
    5  -14    6     -0.96      0.00
    6  -14    6      2.13      0.00
    7  -14    6      1.11      0.00
    8  -14    6      0.30      0.00
   -5  -13    6     -1.18      0.00
   -4  -13    6      3.43      0.00
   -3  -13    6      1.39      0.00
   -2  -13    6     -0.39      0.00
   -1  -13    6      0.53      0.00
    0  -13    6     -0.99      0.00
    1  -13    6      0.22      0.00
    2  -13    6     -1.41      0.00
    3  -13    6     -1.83      0.00
    4  -13    6     -3.40      0.00
    5  -13    6     -3.02      0.00
    6  -13    6     -2.68      0.00
    7  -13    6     -0.59      0.00
    8  -13    6      0.22      0.00
    9  -13    6      1.35      0.00
   -6  -12    6      0.24      0.00
   -5  -12    6     -0.15      0.00
   -4  -12    6      1.44      0.00
   -3  -12    6      3.61      0.00
   -2  -12    6      0.75      0.00
   -1  -12    6      3.03      0.00
    0  -12    6      4.19      0.00
    1  -12    6      3.82      0.00
    2  -12    6      5.63      0.00
    3  -12    6      3.43      0.00
    4  -12    6      2.38      0.00
    5  -12    6     -0.74      0.00
    6  -12    6      1.18      0.00
    7  -12    6     -0.82      0.00
    8  -12    6      0.54      0.00
    9  -12    6      1.97      0.00
   -6  -11    6     -0.26      0.00
   -5  -11    6     -2.02      0.00
   -4  -11    6     -3.08      0.00
   -3  -11    6      1.00      0.00
   -2  -11    6     -1.63      0.00
   -1  -11    6     -0.19      0.00
    0  -11    6      1.21      0.00
    1  -11    6     -0.22      0.00
    2  -11    6      3.61      0.00
    3  -11    6      2.87      0.00
    4  -11    6      4.00      0.00
    5  -11    6     -0.40      0.00
    6  -11    6     -0.45      0.00
    7  -11    6     -2.65      0.00
    8  -11    6     -1.03      0.00
    9  -11    6     -1.21      0.00
   10  -11    6      0.74      0.00
   -7  -10    6     -0.33      0.00
   -6  -10    6      0.32      0.00
   -5  -10    6     -1.06      0.00
   -4  -10    6     -2.21      0.00
   -3  -10    6     -0.58      0.00
   -2  -10    6     -3.22      0.00
   -1  -10    6     -3.37      0.00
    0  -10    6     -2.64      0.00
    1  -10    6     -5.74      0.00
    2  -10    6     -3.40      0.00
    3  -10    6     -2.82      0.00
    4  -10    6      1.01      0.00
    5  -10    6     -1.10      0.00
    6  -10    6     -0.36      0.00
    7  -10    6     -3.31      0.00
    8  -10    6     -1.35      0.00
    9  -10    6     -1.11      0.00
   10  -10    6     -2.15      0.00
   -8   -9    6     -0.16      0.00
   -7   -9    6      2.14      0.00
   -6   -9    6      1.49      0.00
   -5   -9    6      2.40      0.00
   -4   -9    6     -0.63      0.00
   -3   -9    6      0.61      0.00
   -2   -9    6      0.34      0.00
   -1   -9    6     -2.24      0.00
    0   -9    6      3.84      0.00
    1   -9    6      1.26      0.00
    2   -9    6     -2.62      0.00
    3   -9    6     -2.08      0.00
    4   -9    6      6.63      0.00
    5   -9    6      5.21      0.00
    6   -9    6      5.65      0.00
    7   -9    6      0.13      0.00
    8   -9    6     -1.41      0.00
    9   -9    6      0.98      0.00
   10   -9    6     -0.97      0.00
   -8   -8    6     -1.74      0.00
   -7   -8    6      1.22      0.00
   -6   -8    6      2.24      0.00
   -5   -8    6      2.45      0.00
   -4   -8    6     -0.01      0.00
   -3   -8    6      3.87      0.00
   -2   -8    6      1.82      0.00
   -1   -8    6     -3.22      0.00
    0   -8    6      4.01      0.00
    1   -8    6      4.45      0.00
    2   -8    6     -3.33      0.00
    3   -8    6     -2.23      0.00
    4   -8    6     -1.28      0.00
    5   -8    6      0.25      0.00
    6   -8    6      6.05      0.00
    7   -8    6      2.82      0.00
    8   -8    6     -0.19      0.00
    9   -8    6      0.77      0.00
   10   -8    6      0.90      0.00
   -8   -7    6     -3.63      0.00
   -7   -7    6     -2.41      0.00
   -6   -7    6     -0.96      0.00
   -5   -7    6      0.95      0.00
   -4   -7    6      0.48      0.00
   -3   -7    6      2.03      0.00
   -2   -7    6      0.54      0.00
   -1   -7    6     -6.76      0.00
    0   -7    6     -2.75      0.00
    1   -7    6     -0.38      0.00
    2   -7    6     -4.52      0.00
    3   -7    6    -11.59      0.00
    4   -7    6    -13.38      0.00
    5   -7    6     -9.06      0.00
    6   -7    6      0.73      0.00
    7   -7    6      1.99      0.00
    8   -7    6     -1.62      0.00
    9   -7    6     -1.74      0.00
   10   -7    6     -0.13      0.00
   -9   -6    6      1.68      0.00
   -8   -6    6     -2.37      0.00
   -7   -6    6     -2.04      0.00
   -6   -6    6     -3.48      0.00
   -5   -6    6     -0.48      0.00
   -4   -6    6     -4.39      0.00
   -3   -6    6      1.93      0.00
   -2   -6    6      5.60      0.00
   -1   -6    6      1.52      0.00
    0   -6    6      0.38      0.00
    1   -6    6      8.49      0.00
    2   -6    6      3.26      0.00
    3   -6    6      4.35      0.00
    4   -6    6     -3.47      0.00
    5   -6    6     -6.74      0.00
    6   -6    6     -3.14      0.00
    7   -6    6      1.16      0.00
    8   -6    6     -1.08      0.00
    9   -6    6     -2.47      0.00
   10   -6    6      1.51      0.00
   -9   -5    6      1.21      0.00
   -8   -5    6      0.28      0.00
   -7   -5    6     -0.54      0.00
   -6   -5    6     -0.79      0.00
   -5   -5    6      0.07      0.00
   -4   -5    6     -4.55      0.00
   -3   -5    6      2.02      0.00
   -2   -5    6      2.18      0.00
   -1   -5    6      5.26      0.00
    0   -5    6      8.55      0.00
    1   -5    6     15.28      0.00
    2   -5    6      7.90      0.00
    3   -5    6     19.35      0.00
    4   -5    6      4.43      0.00
    5   -5    6      2.04      0.00
    6   -5    6      1.51      0.00
    7   -5    6      3.49      0.00
    8   -5    6      1.61      0.00
    9   -5    6     -1.40      0.00
   10   -5    6      1.43      0.00
   -9   -4    6      1.34      0.00
   -8   -4    6      3.02      0.00
   -7   -4    6      2.45      0.00
   -6   -4    6      0.33      0.00
   -5   -4    6      2.11      0.00
   -4   -4    6     -5.15      0.00
   -3   -4    6     -2.62      0.00
   -2   -4    6    -12.20      0.00
   -1   -4    6     -4.32      0.00
    0   -4    6     -4.44      0.00
    1   -4    6      2.69      0.00
    2   -4    6     -9.55      0.00
    3   -4    6      8.95      0.00
    4   -4    6     -0.62      0.00
    5   -4    6      4.46      0.00
    6   -4    6      1.46      0.00
    7   -4    6      2.88      0.00
    8   -4    6      2.56      0.00
    9   -4    6     -2.50      0.00
   10   -4    6     -1.25      0.00
  -10   -3    6      0.77      0.00
   -9   -3    6      1.00      0.00
   -8   -3    6      0.02      0.00
   -7   -3    6      2.52      0.00
   -6   -3    6     -0.75      0.00
   -5   -3    6      3.04      0.00
   -4   -3    6     -1.44      0.00
   -3   -3    6     -1.95      0.00
   -2   -3    6     -7.56      0.00
   -1   -3    6    -17.40      0.00
    0   -3    6    -16.54      0.00
    1   -3    6      2.06      0.00
    2   -3    6    -17.18      0.00
    3   -3    6      2.30      0.00
    4   -3    6     -7.08      0.00
    5   -3    6     -0.17      0.00
    6   -3    6     -1.39      0.00
    7   -3    6      0.79      0.00
    8   -3    6      2.17      0.00
    9   -3    6     -0.55      0.00
   10   -3    6      0.21      0.00
  -10   -2    6     -2.24      0.00
   -9   -2    6     -1.11      0.00
   -8   -2    6     -2.00      0.00
   -7   -2    6      0.87      0.00
   -6   -2    6     -0.68      0.00
   -5   -2    6      4.51      0.00
   -4   -2    6      3.67      0.00
   -3   -2    6     11.23      0.00
   -2   -2    6      8.70      0.00
   -1   -2    6    -13.93      0.00
    0   -2    6     -4.19      0.00
    1   -2    6      9.27      0.00
    2   -2    6    -15.58      0.00
    3   -2    6      1.92      0.00
    4   -2    6     -9.97      0.00
    5   -2    6     -1.14      0.00
    6   -2    6     -1.85      0.00
    7   -2    6      0.99      0.00
    8   -2    6     -0.43      0.00
    9   -2    6      0.44      0.00
   10   -2    6      0.91      0.00
  -10   -1    6      0.76      0.00
   -9   -1    6     -0.20      0.00
   -8   -1    6     -0.99      0.00
   -7   -1    6      1.53      0.00
   -6   -1    6     -2.89      0.00
   -5   -1    6      2.43      0.00
   -4   -1    6      4.97      0.00
   -3   -1    6     11.75      0.00
   -2   -1    6     24.93      0.00
   -1   -1    6      1.80      0.00
    0   -1    6     -0.36      0.00
    1   -1    6     14.54      0.00
    2   -1    6     -4.54      0.00
    3   -1    6      1.00      0.00
    4   -1    6     -7.67      0.00
    5   -1    6     -2.79      0.00
    6   -1    6     -1.37      0.00
    7   -1    6      2.57      0.00
    8   -1    6     -0.36      0.00
    9   -1    6     -0.36      0.00
   10   -1    6      2.22      0.00
  -10    0    6     -0.08      0.00
   -9    0    6      0.62      0.00
   -8    0    6     -0.66      0.00
   -7    0    6      0.98      0.00
   -6    0    6     -5.28      0.00
   -5    0    6     -3.31      0.00
   -4    0    6     -6.51      0.00
   -3    0    6     -3.91      0.00
   -2    0    6     21.10      0.00
   -1    0    6      3.62      0.00
    0    0    6    -12.12      0.00
    1    0    6     28.40      0.00
    2    0    6      7.06      0.00
    3    0    6     10.34      0.00
    4    0    6     -1.53      0.00
    5    0    6     -3.80      0.00
    6    0    6     -3.16      0.00
    7    0    6      2.64      0.00
    8    0    6     -1.13      0.00
    9    0    6     -1.28      0.00
   10    0    6      0.42      0.00
  -10    1    6     -2.52      0.00
   -9    1    6     -0.82      0.00
   -8    1    6     -1.58      0.00
   -7    1    6      1.83      0.00
   -6    1    6     -2.82      0.00
   -5    1    6     -8.34      0.00
   -4    1    6    -15.07      0.00
   -3    1    6    -15.01      0.00
   -2    1    6      2.04      0.00
   -1    1    6      6.71      0.00
    0    1    6    -29.44      0.00
    1    1    6      8.55      0.00
    2    1    6     -0.44      0.00
    3    1    6     11.59      0.00
    4    1    6      2.05      0.00
    5    1    6     -2.63      0.00
    6    1    6     -4.22      0.00
    7    1    6     -0.45      0.00
    8    1    6     -1.76      0.00
    9    1    6     -2.76      0.00
   10    1    6     -0.59      0.00
  -11    2    6      1.17      0.00
  -10    2    6      1.43      0.00
   -9    2    6     -0.14      0.00
   -8    2    6     -0.59      0.00
   -7    2    6      2.79      0.00
   -6    2    6      3.07      0.00
   -5    2    6      1.43      0.00
   -4    2    6     -4.74      0.00
   -3    2    6     -6.02      0.00
   -2    2    6     -9.15      0.00
   -1    2    6     24.10      0.00
    0    2    6    -29.70      0.00
    1    2    6     -6.51      0.00
    2    2    6     -3.70      0.00
    3    2    6     10.79      0.00
    4    2    6      6.38      0.00
    5    2    6      2.39      0.00
    6    2    6      0.61      0.00
    7    2    6      0.85      0.00
    8    2    6      2.34      0.00
    9    2    6     -0.06      0.00
   10    2    6     -0.14      0.00
  -11    3    6      0.96      0.00
  -10    3    6      1.03      0.00
   -9    3    6      0.97      0.00
   -8    3    6     -0.70      0.00
   -7    3    6      1.31      0.00
   -6    3    6      7.38      0.00
   -5    3    6      8.84      0.00
   -4    3    6      4.88      0.00
   -3    3    6      0.75      0.00
   -2    3    6    -12.67      0.00
   -1    3    6     17.18      0.00
    0    3    6     -2.99      0.00
    1    3    6     -6.39      0.00
    2    3    6     -7.72      0.00
    3    3    6      9.07      0.00
    4    3    6      5.50      0.00
    5    3    6      2.28      0.00
    6    3    6      4.49      0.00
    7    3    6      1.66      0.00
    8    3    6      4.80      0.00
    9    3    6      1.23      0.00
  -11    4    6     -0.24      0.00
  -10    4    6      0.01      0.00
   -9    4    6      0.87      0.00
   -8    4    6     -2.08      0.00
   -7    4    6     -1.19      0.00
   -6    4    6      0.57      0.00
   -5    4    6      4.78      0.00
   -4    4    6      0.38      0.00
   -3    4    6      6.58      0.00
   -2    4    6     -7.86      0.00
   -1    4    6      3.59      0.00
    0    4    6      3.43      0.00
    1    4    6     -7.37      0.00
    2    4    6    -18.58      0.00
    3    4    6     -3.62      0.00
    4    4    6     -2.42      0.00
    5    4    6     -1.81      0.00
    6    4    6     -0.41      0.00
    7    4    6     -1.72      0.00
    8    4    6     -0.94      0.00
    9    4    6      0.35      0.00
  -11    5    6     -0.40      0.00
  -10    5    6      1.71      0.00
   -9    5    6     -0.06      0.00
   -8    5    6     -2.15      0.00
   -7    5    6     -2.75      0.00
   -6    5    6     -4.31      0.00
   -5    5    6      0.99      0.00
   -4    5    6     -0.31      0.00
   -3    5    6      9.41      0.00
   -2    5    6      4.48      0.00
   -1    5    6      1.64      0.00
    0    5    6      5.65      0.00
    1    5    6     -1.17      0.00
    2    5    6     -9.76      0.00
    3    5    6     -6.98      0.00
    4    5    6     -4.68      0.00
    5    5    6     -5.11      0.00
    6    5    6     -3.37      0.00
    7    5    6     -3.54      0.00
    8    5    6     -0.52      0.00
    9    5    6     -1.79      0.00
  -11    6    6     -0.76      0.00
  -10    6    6     -0.55      0.00
   -9    6    6      1.71      0.00
   -8    6    6     -1.07      0.00
   -7    6    6     -0.08      0.00
   -6    6    6     -3.61      0.00
   -5    6    6     -1.05      0.00
   -4    6    6     -2.06      0.00
   -3    6    6     -2.55      0.00
   -2    6    6      7.05      0.00
   -1    6    6      6.96      0.00
    0    6    6     13.79      0.00
    1    6    6      8.09      0.00
    2    6    6      7.67      0.00
    3    6    6      5.64      0.00
    4    6    6      0.99      0.00
    5    6    6      1.39      0.00
    6    6    6      0.53      0.00
    7    6    6      0.57      0.00
    8    6    6      1.63      0.00
  -10    7    6     -1.74      0.00
   -9    7    6      2.30      0.00
   -8    7    6     -1.06      0.00
   -7    7    6      0.91      0.00
   -6    7    6     -2.91      0.00
   -5    7    6     -2.30      0.00
   -4    7    6     -3.94      0.00
   -3    7    6     -6.82      0.00
   -2    7    6     -6.94      0.00
   -1    7    6     -2.53      0.00
    0    7    6      4.23      0.00
    1    7    6      1.92      0.00
    2    7    6      3.97      0.00
    3    7    6      6.65      0.00
    4    7    6      2.42      0.00
    5    7    6      1.59      0.00
    6    7    6      0.24      0.00
    7    7    6      0.01      0.00
    8    7    6      0.53      0.00
  -10    8    6     -0.95      0.00
   -9    8    6      1.47      0.00
   -8    8    6      1.14      0.00
   -7    8    6      1.70      0.00
   -6    8    6      1.62      0.00
   -5    8    6      2.81      0.00
   -4    8    6     -0.61      0.00
   -3    8    6     -2.06      0.00
   -2    8    6    -10.35      0.00
   -1    8    6    -10.89      0.00
    0    8    6     -1.76      0.00
    1    8    6     -5.73      0.00
    2    8    6     -4.05      0.00
    3    8    6      0.86      0.00
    4    8    6      0.43      0.00
    5    8    6     -0.59      0.00
    6    8    6     -0.53      0.00
    7    8    6     -1.14      0.00
  -10    9    6     -0.92      0.00
   -9    9    6      0.91      0.00
   -8    9    6      2.37      0.00
   -7    9    6      1.28      0.00
   -6    9    6      2.14      0.00
   -5    9    6      1.91      0.00
   -4    9    6      2.01      0.00
   -3    9    6      5.88      0.00
   -2    9    6      1.78      0.00
   -1    9    6     -3.57      0.00
    0    9    6      0.21      0.00
    1    9    6     -1.76      0.00
    2    9    6     -4.12      0.00
    3    9    6      0.44      0.00
    4    9    6      2.08      0.00
    5    9    6      0.64      0.00
    6    9    6      0.38      0.00
    7    9    6     -0.76      0.00
  -10   10    6     -1.72      0.00
   -9   10    6     -2.42      0.00
   -8   10    6      0.90      0.00
   -7   10    6     -1.42      0.00
   -6   10    6     -1.86      0.00
   -5   10    6      1.60      0.00
   -4   10    6      1.97      0.00
   -3   10    6      5.45      0.00
   -2   10    6      4.60      0.00
   -1   10    6     -1.24      0.00
    0   10    6      0.37      0.00
    1   10    6      0.82      0.00
    2   10    6     -2.47      0.00
    3   10    6     -1.23      0.00
    4   10    6      0.88      0.00
    5   10    6      1.48      0.00
    6   10    6      0.73      0.00
  -10   11    6     -1.50      0.00
   -9   11    6     -1.92      0.00
   -8   11    6     -1.01      0.00
   -7   11    6     -0.68      0.00
   -6   11    6     -0.61      0.00
   -5   11    6      1.50      0.00
   -4   11    6     -2.70      0.00
   -3   11    6      2.93      0.00
   -2   11    6      3.47      0.00
   -1   11    6     -0.20      0.00
    0   11    6      0.99      0.00
    1   11    6      1.35      0.00
    2   11    6     -1.89      0.00
    3   11    6     -2.12      0.00
    4   11    6     -3.24      0.00
    5   11    6      0.29      0.00
    6   11    6     -0.29      0.00
   -9   12    6     -1.53      0.00
   -8   12    6      1.60      0.00
   -7   12    6      0.23      0.00
   -6   12    6     -0.66      0.00
   -5   12    6     -1.82      0.00
   -4   12    6     -4.12      0.00
   -3   12    6      1.28      0.00
   -2   12    6      2.57      0.00
   -1   12    6     -0.33      0.00
    0   12    6      3.04      0.00
    1   12    6      1.09      0.00
    2   12    6      1.09      0.00
    3   12    6      0.48      0.00
    4   12    6     -2.25      0.00
    5   12    6      0.10      0.00
   -9   13    6     -0.70      0.00
   -8   13    6      1.22      0.00
   -7   13    6     -0.25      0.00
   -6   13    6     -1.59      0.00
   -5   13    6     -0.27      0.00
   -4   13    6     -5.25      0.00
   -3   13    6     -2.01      0.00
   -2   13    6     -0.65      0.00
   -1   13    6     -1.39      0.00
    0   13    6     -0.18      0.00
    1   13    6      1.39      0.00
    2   13    6      2.05      0.00
    3   13    6      2.85      0.00
    4   13    6     -0.10      0.00
   -8   14    6      0.32      0.00
   -7   14    6      1.24      0.00
   -6   14    6      0.65      0.00
   -5   14    6      1.72      0.00
   -4   14    6     -2.17      0.00
   -3   14    6     -2.53      0.00
   -2   14    6     -0.53      0.00
   -1   14    6     -2.55      0.00
    0   14    6     -1.37      0.00
    1   14    6     -1.44      0.00
    2   14    6     -0.60      0.00
    3   14    6      1.74      0.00
   -8   15    6      0.09      0.00
   -7   15    6      0.79      0.00
   -6   15    6      1.61      0.00
   -5   15    6      2.76      0.00
   -4   15    6      2.60      0.00
   -3   15    6      0.76      0.00
   -2   15    6      1.77      0.00
   -1   15    6     -0.07      0.00
    0   15    6      0.51      0.00
    1   15    6     -1.04      0.00
    2   15    6     -1.75      0.00
   -7   16    6      0.69      0.00
   -6   16    6      0.21      0.00
   -5   16    6      0.02      0.00
   -4   16    6      2.55      0.00
   -3   16    6      0.08      0.00
   -2   16    6      1.09      0.00
   -1   16    6      0.58      0.00
    0   16    6      0.41      0.00
    1   16    6      0.52      0.00
   -5   17    6     -1.16      0.00
   -4   17    6      0.13      0.00
   -3   17    6     -1.41      0.00
   -2   17    6      0.51      0.00
   -1   17    6     -0.41      0.00
    2  -18    7     -0.81      0.00
    3  -18    7     -0.10      0.00
   -1  -17    7     -0.67      0.00
    0  -17    7      0.26      0.00
    1  -17    7      0.43      0.00
    2  -17    7     -0.35      0.00
    3  -17    7      1.27      0.00
    4  -17    7      0.35      0.00
    5  -17    7      0.44      0.00
    6  -17    7      1.23      0.00
   -2  -16    7     -0.20      0.00
   -1  -16    7      0.55      0.00
    0  -16    7      0.10      0.00
    1  -16    7      0.51      0.00
    2  -16    7     -0.70      0.00
    3  -16    7     -0.21      0.00
    4  -16    7      0.89      0.00
    5  -16    7      0.68      0.00
    6  -16    7      0.19      0.00
    7  -16    7     -0.42      0.00
   -3  -15    7      1.03      0.00
   -2  -15    7      1.27      0.00
   -1  -15    7      1.47      0.00
    0  -15    7      0.39      0.00
    1  -15    7      1.87      0.00
    2  -15    7      1.64      0.00
    3  -15    7      0.94      0.00
    4  -15    7      0.29      0.00
    5  -15    7      0.79      0.00
    6  -15    7     -0.34      0.00
    7  -15    7     -1.62      0.00
    8  -15    7     -0.02      0.00
   -4  -14    7     -0.36      0.00
   -3  -14    7     -2.01      0.00
   -2  -14    7     -2.76      0.00
   -1  -14    7     -1.04      0.00
    0  -14    7      0.93      0.00
    1  -14    7     -1.24      0.00
    2  -14    7      0.01      0.00
    3  -14    7     -2.01      0.00
    4  -14    7     -0.06      0.00
    5  -14    7      0.79      0.00
    6  -14    7      2.77      0.00
    7  -14    7     -0.21      0.00
    8  -14    7      0.54      0.00
   -5  -13    7     -1.18      0.00
   -4  -13    7      0.35      0.00
   -3  -13    7     -1.62      0.00
   -2  -13    7     -2.97      0.00
   -1  -13    7     -1.85      0.00
    0  -13    7     -1.95      0.00
    1  -13    7     -5.66      0.00
    2  -13    7     -3.07      0.00
    3  -13    7     -4.29      0.00
    4  -13    7     -2.99      0.00
    5  -13    7     -1.68      0.00
    6  -13    7      1.50      0.00
    7  -13    7     -1.98      0.00
    8  -13    7      1.71      0.00
    9  -13    7      0.51      0.00
   -6  -12    7      0.78      0.00
   -5  -12    7     -0.94      0.00
   -4  -12    7      4.91      0.00
   -3  -12    7      4.15      0.00
   -2  -12    7      0.22      0.00
   -1  -12    7      3.14      0.00
    0  -12    7      0.75      0.00
    1  -12    7      3.00      0.00
    2  -12    7      1.91      0.00
    3  -12    7     -0.31      0.00
    4  -12    7     -1.55      0.00
    5  -12    7     -0.77      0.00
    6  -12    7     -0.62      0.00
    7  -12    7     -0.68      0.00
    8  -12    7      0.92      0.00
    9  -12    7      0.78      0.00
   -6  -11    7      0.01      0.00
   -5  -11    7     -1.76      0.00
   -4  -11    7     -0.12      0.00
   -3  -11    7      2.60      0.00
   -2  -11    7     -1.21      0.00
   -1  -11    7      3.87      0.00
    0  -11    7      2.85      0.00
    1  -11    7      5.41      0.00
    2  -11    7      5.89      0.00
    3  -11    7      2.49      0.00
    4  -11    7      0.81      0.00
    5  -11    7     -0.62      0.00
    6  -11    7      1.36      0.00
    7  -11    7      0.43      0.00
    8  -11    7      0.79      0.00
    9  -11    7      1.27      0.00
   -7  -10    7     -0.54      0.00
   -6  -10    7     -0.02      0.00
   -5  -10    7     -1.30      0.00
   -4  -10    7     -4.50      0.00
   -3  -10    7      2.34      0.00
   -2  -10    7     -4.87      0.00
   -1  -10    7      0.02      0.00
    0  -10    7     -2.22      0.00
    1  -10    7     -2.15      0.00
    2  -10    7     -0.48      0.00
    3  -10    7      1.67      0.00
    4  -10    7      0.64      0.00
    5  -10    7     -2.74      0.00
    6  -10    7     -1.58      0.00
    7  -10    7     -3.13      0.00
    8  -10    7     -0.25      0.00
    9  -10    7     -2.14      0.00
   10  -10    7      0.72      0.00
   -8   -9    7      0.60      0.00
   -7   -9    7      0.63      0.00
   -6   -9    7      1.83      0.00
   -5   -9    7      0.18      0.00
   -4   -9    7     -2.92      0.00
   -3   -9    7      2.00      0.00
   -2   -9    7     -4.85      0.00
   -1   -9    7      0.86      0.00
    0   -9    7     -1.32      0.00
    1   -9    7     -4.75      0.00
    2   -9    7     -3.80      0.00
    3   -9    7      2.08      0.00
    4   -9    7      3.55      0.00
    5   -9    7      0.35      0.00
    6   -9    7      1.77      0.00
    7   -9    7     -3.29      0.00
    8   -9    7     -1.39      0.00
    9   -9    7     -2.82      0.00
   10   -9    7     -1.38      0.00
   -8   -8    7      0.02      0.00
   -7   -8    7      0.47      0.00
   -6   -8    7      2.22      0.00
   -5   -8    7      3.06      0.00
   -4   -8    7     -1.41      0.00
   -3   -8    7      3.38      0.00
   -2   -8    7     -1.71      0.00
   -1   -8    7      1.58      0.00
    0   -8    7      5.48      0.00
    1   -8    7      1.56      0.00
    2   -8    7     -1.81      0.00
    3   -8    7      2.66      0.00
    4   -8    7      7.60      0.00
    5   -8    7      5.39      0.00
    6   -8    7      7.18      0.00
    7   -8    7      1.00      0.00
    8   -8    7      0.05      0.00
    9   -8    7      0.79      0.00
   10   -8    7     -0.56      0.00
   -8   -7    7     -2.39      0.00
   -7   -7    7     -0.95      0.00
   -6   -7    7      1.84      0.00
   -5   -7    7      2.35      0.00
   -4   -7    7     -1.66      0.00
   -3   -7    7      4.09      0.00
   -2   -7    7     -5.06      0.00
   -1   -7    7     -6.54      0.00
    0   -7    7      3.00      0.00
    1   -7    7     -1.19      0.00
    2   -7    7    -10.78      0.00
    3   -7    7     -9.22      0.00
    4   -7    7     -7.50      0.00
    5   -7    7     -2.31      0.00
    6   -7    7      5.12      0.00
    7   -7    7      0.46      0.00
    8   -7    7      0.78      0.00
    9   -7    7     -0.86      0.00
   10   -7    7      0.20      0.00
   -9   -6    7      0.67      0.00
   -8   -6    7     -1.66      0.00
   -7   -6    7     -2.92      0.00
   -6   -6    7     -0.75      0.00
   -5   -6    7     -0.41      0.00
   -4   -6    7     -0.29      0.00
   -3   -6    7      5.46      0.00
   -2   -6    7     -2.15      0.00
   -1   -6    7     -4.42      0.00
    0   -6    7      4.80      0.00
    1   -6    7     -4.01      0.00
    2   -6    7     -5.06      0.00
    3   -6    7    -12.43      0.00
    4   -6    7    -13.34      0.00
    5   -6    7     -7.67      0.00
    6   -6    7      1.86      0.00
    7   -6    7     -1.05      0.00
    8   -6    7     -0.79      0.00
    9   -6    7     -1.34      0.00
   10   -6    7      0.08      0.00
   -9   -5    7      0.74      0.00
   -8   -5    7     -1.02      0.00
   -7   -5    7     -2.77      0.00
   -6   -5    7     -1.11      0.00
   -5   -5    7     -1.49      0.00
   -4   -5    7     -1.67      0.00
   -3   -5    7      8.98      0.00
   -2   -5    7      6.10      0.00
   -1   -5    7      4.29      0.00
    0   -5    7     10.25      0.00
    1   -5    7     11.07      0.00
    2   -5    7     17.49      0.00
    3   -5    7      6.51      0.00
    4   -5    7     -0.59      0.00
    5   -5    7     -2.22      0.00
    6   -5    7      0.77      0.00
    7   -5    7      2.24      0.00
    8   -5    7     -0.77      0.00
    9   -5    7     -1.33      0.00
   10   -5    7      1.15      0.00
   -9   -4    7      0.40      0.00
   -8   -4    7      1.47      0.00
   -7   -4    7     -1.08      0.00
   -6   -4    7      1.66      0.00
   -5   -4    7     -1.89      0.00
   -4   -4    7     -6.73      0.00
   -3   -4    7      3.69      0.00
   -2   -4    7     -2.36      0.00
   -1   -4    7     -2.30      0.00
    0   -4    7      8.03      0.00
    1   -4    7      8.31      0.00
    2   -4    7     13.95      0.00
    3   -4    7     11.79      0.00
    4   -4    7      1.62      0.00
    5   -4    7      1.55      0.00
    6   -4    7      1.07      0.00
    7   -4    7      5.30      0.00
    8   -4    7      0.19      0.00
    9   -4    7     -1.37      0.00
   10   -4    7      0.87      0.00
  -10   -3    7      1.55      0.00
   -9   -3    7      0.88      0.00
   -8   -3    7      3.54      0.00
   -7   -3    7      0.73      0.00
   -6   -3    7      1.57      0.00
   -5   -3    7     -0.70      0.00
   -4   -3    7    -10.53      0.00
   -3   -3    7     -1.20      0.00
   -2   -3    7    -14.31      0.00
   -1   -3    7     -7.95      0.00
    0   -3    7     -7.88      0.00
    1   -3    7     -8.57      0.00
    2   -3    7     -4.87      0.00
    3   -3    7      6.66      0.00
    4   -3    7     -1.75      0.00
    5   -3    7      1.68      0.00
    6   -3    7     -0.84      0.00
    7   -3    7      2.47      0.00
    8   -3    7      0.71      0.00
    9   -3    7     -2.10      0.00
   10   -3    7     -1.08      0.00
  -10   -2    7     -0.06      0.00
   -9   -2    7     -1.15      0.00
   -8   -2    7      0.32      0.00
   -7   -2    7      0.33      0.00
   -6   -2    7      1.07      0.00
   -5   -2    7      3.86      0.00
   -4   -2    7     -2.25      0.00
   -3   -2    7      2.61      0.00
   -2   -2    7     -5.70      0.00
   -1   -2    7     -8.35      0.00
    0   -2    7    -11.42      0.00
    1   -2    7     -5.89      0.00
    2   -2    7    -12.90      0.00
    3   -2    7      6.14      0.00
    4   -2    7     -3.47      0.00
    5   -2    7     -0.78      0.00
    6   -2    7     -1.74      0.00
    7   -2    7      0.91      0.00
    8   -2    7      0.57      0.00
    9   -2    7      1.23      0.00
   10   -2    7      0.03      0.00
  -10   -1    7     -0.50      0.00
   -9   -1    7     -1.13      0.00
   -8   -1    7     -0.65      0.00
   -7   -1    7     -0.61      0.00
   -6   -1    7      1.05      0.00
   -5   -1    7      7.48      0.00
   -4   -1    7      3.83      0.00
   -3   -1    7     12.83      0.00
   -2   -1    7      8.00      0.00
   -1   -1    7    -10.72      0.00
    0   -1    7      5.74      0.00
    1   -1    7      0.07      0.00
    2   -1    7    -17.91      0.00
    3   -1    7      3.02      0.00
    4   -1    7     -7.64      0.00
    5   -1    7     -0.88      0.00
    6   -1    7     -1.11      0.00
    7   -1    7      2.04      0.00
    8   -1    7     -0.58      0.00
    9   -1    7      2.13      0.00
   10   -1    7      0.16      0.00
  -10    0    7      1.07      0.00
   -9    0    7      0.15      0.00
   -8    0    7      0.17      0.00
   -7    0    7     -0.14      0.00
   -6    0    7     -2.50      0.00
   -5    0    7      3.65      0.00
   -4    0    7      1.84      0.00
   -3    0    7     10.87      0.00
   -2    0    7     16.05      0.00
   -1    0    7    -15.69      0.00
    0    0    7     18.99      0.00
    1    0    7      7.33      0.00
    2    0    7     -6.42      0.00
    3    0    7      2.76      0.00
    4    0    7     -5.43      0.00
    5    0    7     -2.20      0.00
    6    0    7      0.46      0.00
    7    0    7      1.44      0.00
    8    0    7     -1.24      0.00
    9    0    7      1.31      0.00
   10    0    7      1.07      0.00
  -10    1    7     -1.06      0.00
   -9    1    7     -1.28      0.00
   -8    1    7      0.37      0.00
   -7    1    7     -0.37      0.00
   -6    1    7     -7.12      0.00
   -5    1    7     -2.70      0.00
   -4    1    7     -9.12      0.00
   -3    1    7     -2.82      0.00
   -2    1    7     24.63      0.00
   -1    1    7    -16.96      0.00
    0    1    7     12.40      0.00
    1    1    7     14.80      0.00
    2    1    7      5.91      0.00
    3    1    7      7.18      0.00
    4    1    7     -2.26      0.00
    5    1    7     -3.04      0.00
    6    1    7     -2.57      0.00
    7    1    7      0.05      0.00
    8    1    7     -3.39      0.00
    9    1    7     -0.54      0.00
   10    1    7     -0.53      0.00
  -11    2    7      0.64      0.00
  -10    2    7     -1.26      0.00
   -9    2    7     -1.12      0.00
   -8    2    7      0.13      0.00
   -7    2    7      1.01      0.00
   -6    2    7     -3.52      0.00
   -5    2    7     -4.89      0.00
   -4    2    7    -10.73      0.00
   -3    2    7     -9.70      0.00
   -2    2    7     22.02      0.00
   -1    2    7    -16.03      0.00
    0    2    7     -8.92      0.00
    1    2    7     -0.03      0.00
    2    2    7      4.05      0.00
    3    2    7      8.45      0.00
    4    2    7     -0.58      0.00
    5    2    7     -1.17      0.00
    6    2    7     -4.04      0.00
    7    2    7      0.89      0.00
    8    2    7     -2.67      0.00
    9    2    7     -1.54      0.00
  -11    3    7      0.64      0.00
  -10    3    7      1.28      0.00
   -9    3    7     -0.69      0.00
   -8    3    7      0.82      0.00
   -7    3    7      2.28      0.00
   -6    3    7      3.41      0.00
   -5    3    7      2.13      0.00
   -4    3    7     -0.95      0.00
   -3    3    7    -10.67      0.00
   -2    3    7      1.05      0.00
   -1    3    7      2.61      0.00
    0    3    7    -13.70      0.00
    1    3    7     -6.58      0.00
    2    3    7      6.34      0.00
    3    3    7     12.43      0.00
    4    3    7      4.35      0.00
    5    3    7      4.56      0.00
    6    3    7      1.78      0.00
    7    3    7      3.33      0.00
    8    3    7      2.79      0.00
    9    3    7      0.97      0.00
  -11    4    7      0.60      0.00
  -10    4    7      0.00      0.00
   -9    4    7     -0.52      0.00
   -8    4    7      0.54      0.00
   -7    4    7      1.48      0.00
   -6    4    7      6.81      0.00
   -5    4    7      3.71      0.00
   -4    4    7      3.15      0.00
   -3    4    7     -6.48      0.00
   -2    4    7     -8.60      0.00
   -1    4    7      9.36      0.00
    0    4    7     -3.56      0.00
    1    4    7    -12.12      0.00
    2    4    7     -5.35      0.00
    3    4    7      4.55      0.00
    4    4    7      2.13      0.00
    5    4    7      2.18      0.00
    6    4    7      2.38      0.00
    7    4    7      1.02      0.00
    8    4    7      2.07      0.00
    9    4    7      0.78      0.00
  -11    5    7      0.97      0.00
  -10    5    7      0.87      0.00
   -9    5    7     -0.38      0.00
   -8    5    7     -1.44      0.00
   -7    5    7     -1.50      0.00
   -6    5    7      0.77      0.00
   -5    5    7      1.51      0.00
   -4    5    7      2.31      0.00
   -3    5    7      7.32      0.00
   -2    5    7     -5.41      0.00
   -1    5    7      6.99      0.00
    0    5    7     -2.23      0.00
    1    5    7    -11.16      0.00
    2    5    7    -15.16      0.00
    3    5    7     -5.20      0.00
    4    5    7     -5.34      0.00
    5    5    7     -3.35      0.00
    6    5    7     -2.44      0.00
    7    5    7     -0.79      0.00
    8    5    7     -2.11      0.00
    9    5    7      0.61      0.00
  -11    6    7     -1.48      0.00
  -10    6    7      1.30      0.00
   -9    6    7     -1.69      0.00
   -8    6    7     -0.59      0.00
   -7    6    7     -4.40      0.00
   -6    6    7     -1.64      0.00
   -5    6    7      2.47      0.00
   -4    6    7      0.95      0.00
   -3    6    7      9.17      0.00
   -2    6    7      2.82      0.00
   -1    6    7      5.70      0.00
    0    6    7      6.65      0.00
    1    6    7      3.48      0.00
    2    6    7     -1.98      0.00
    3    6    7     -2.33      0.00
    4    6    7     -1.43      0.00
    5    6    7     -4.05      0.00
    6    6    7     -1.70      0.00
    7    6    7     -1.22      0.00
    8    6    7      0.13      0.00
  -10    7    7     -0.15      0.00
   -9    7    7     -0.87      0.00
   -8    7    7      0.66      0.00
   -7    7    7     -0.60      0.00
   -6    7    7     -3.14      0.00
   -5    7    7     -0.67      0.00
   -4    7    7     -2.55      0.00
   -3    7    7     -2.73      0.00
   -2    7    7      2.14      0.00
   -1    7    7      5.25      0.00
    0    7    7      9.40      0.00
    1    7    7      7.48      0.00
    2    7    7      7.01      0.00
    3    7    7      4.55      0.00
    4    7    7      2.73      0.00
    5    7    7      0.21      0.00
    6    7    7      0.90      0.00
    7    7    7      1.22      0.00
    8    7    7      0.21      0.00
  -10    8    7     -0.25      0.00
   -9    8    7      2.20      0.00
   -8    8    7      0.51      0.00
   -7    8    7      0.75      0.00
   -6    8    7     -2.78      0.00
   -5    8    7     -0.79      0.00
   -4    8    7     -3.37      0.00
   -3    8    7     -5.37      0.00
   -2    8    7     -5.66      0.00
   -1    8    7     -2.97      0.00
    0    8    7     -0.74      0.00
    1    8    7      0.87      0.00
    2    8    7      1.95      0.00
    3    8    7      2.32      0.00
    4    8    7      1.33      0.00
    5    8    7     -0.18      0.00
    6    8    7     -0.22      0.00
    7    8    7      0.66      0.00
  -10    9    7     -1.41      0.00
   -9    9    7      2.36      0.00
   -8    9    7      1.82      0.00
   -7    9    7      1.38      0.00
   -6    9    7      1.81      0.00
   -5    9    7      1.58      0.00
   -4    9    7     -1.95      0.00
   -3    9    7      0.05      0.00
   -2    9    7     -5.14      0.00
   -1    9    7     -6.39      0.00
    0    9    7     -2.80      0.00
    1    9    7     -3.81      0.00
    2    9    7     -1.70      0.00
    3    9    7      2.09      0.00
    4    9    7      1.49      0.00
    5    9    7     -0.20      0.00
    6    9    7     -0.77      0.00
    7    9    7     -0.97      0.00
  -10   10    7     -2.38      0.00
   -9   10    7      0.76      0.00
   -8   10    7      2.46      0.00
   -7   10    7     -0.90      0.00
   -6   10    7      2.67      0.00
   -5   10    7      1.05      0.00
   -4   10    7      0.63      0.00
   -3   10    7      4.55      0.00
   -2   10    7      0.60      0.00
   -1   10    7     -2.29      0.00
    0   10    7      0.12      0.00
    1   10    7     -2.76      0.00
    2   10    7     -2.07      0.00
    3   10    7      0.69      0.00
    4   10    7      1.70      0.00
    5   10    7      0.42      0.00
    6   10    7      0.40      0.00
  -10   11    7     -2.25      0.00
   -9   11    7     -1.68      0.00
   -8   11    7      0.23      0.00
   -7   11    7     -1.56      0.00
   -6   11    7      0.24      0.00
   -5   11    7      2.34      0.00
   -4   11    7      0.26      0.00
   -3   11    7      4.02      0.00
   -2   11    7      1.06      0.00
   -1   11    7     -1.25      0.00
    0   11    7      1.81      0.00
    1   11    7     -0.69      0.00
    2   11    7     -2.76      0.00
    3   11    7     -3.11      0.00
    4   11    7     -0.70      0.00
    5   11    7      1.07      0.00
    6   11    7      0.26      0.00
   -9   12    7     -0.23      0.00
   -8   12    7     -0.95      0.00
   -7   12    7     -0.08      0.00
   -6   12    7     -0.51      0.00
   -5   12    7      1.61      0.00
   -4   12    7     -1.74      0.00
   -3   12    7      3.70      0.00
   -2   12    7      2.81      0.00
   -1   12    7      1.44      0.00
    0   12    7      1.49      0.00
    1   12    7      1.08      0.00
    2   12    7     -0.61      0.00
    3   12    7     -2.12      0.00
    4   12    7     -1.66      0.00
    5   12    7      1.24      0.00
   -9   13    7     -0.17      0.00
   -8   13    7      1.52      0.00
   -7   13    7     -1.12      0.00
   -6   13    7     -2.28      0.00
   -5   13    7     -2.45      0.00
   -4   13    7     -4.46      0.00
   -3   13    7      2.12      0.00
   -2   13    7      0.61      0.00
   -1   13    7     -0.79      0.00
    0   13    7      1.82      0.00
    1   13    7      1.35      0.00
    2   13    7      3.67      0.00
    3   13    7      1.01      0.00
    4   13    7     -1.30      0.00
   -8   14    7      1.50      0.00
   -7   14    7      0.90      0.00
   -6   14    7     -0.87      0.00
   -5   14    7      0.95      0.00
   -4   14    7     -4.61      0.00
   -3   14    7     -0.96      0.00
   -2   14    7     -2.55      0.00
   -1   14    7     -1.01      0.00
    0   14    7     -0.72      0.00
    1   14    7     -0.20      0.00
    2   14    7      2.56      0.00
    3   14    7      0.68      0.00
   -7   15    7      1.24      0.00
   -6   15    7      0.37      0.00
   -5   15    7      2.28      0.00
   -4   15    7     -1.49      0.00
   -3   15    7     -0.46      0.00
   -2   15    7     -0.28      0.00
   -1   15    7     -0.19      0.00
    0   15    7     -0.86      0.00
    1   15    7     -2.13      0.00
    2   15    7     -0.43      0.00
   -6   16    7      0.34      0.00
   -5   16    7      2.32      0.00
   -4   16    7      1.07      0.00
   -3   16    7      1.59      0.00
   -2   16    7      0.26      0.00
   -1   16    7      0.15      0.00
    0   16    7      0.37      0.00
    1   16    7     -0.97      0.00
   -5   17    7      0.11      0.00
   -4   17    7      0.56      0.00
   -3   17    7      0.83      0.00
   -2   17    7     -0.11      0.00
   -1   17    7      0.05      0.00
   -1  -17    8      0.74      0.00
    0  -17    8     -1.12      0.00
    1  -17    8      0.18      0.00
    2  -17    8     -0.19      0.00
    3  -17    8      0.02      0.00
    4  -17    8     -0.99      0.00
    5  -17    8      0.88      0.00
   -2  -16    8     -1.08      0.00
   -1  -16    8      0.81      0.00
    0  -16    8     -0.98      0.00
    1  -16    8      0.55      0.00
    2  -16    8     -0.65      0.00
    3  -16    8      1.32      0.00
    4  -16    8     -0.20      0.00
    5  -16    8      1.26      0.00
    6  -16    8      1.56      0.00
    7  -16    8      1.34      0.00
   -3  -15    8      1.50      0.00
   -2  -15    8     -0.09      0.00
   -1  -15    8      3.76      0.00
    0  -15    8      0.11      0.00
    1  -15    8      1.71      0.00
    2  -15    8      0.17      0.00
    3  -15    8      0.66      0.00
    4  -15    8      0.22      0.00
    5  -15    8     -0.49      0.00
    6  -15    8     -1.18      0.00
    7  -15    8     -0.81      0.00
   -4  -14    8      1.02      0.00
   -3  -14    8     -0.89      0.00
   -2  -14    8     -1.61      0.00
   -1  -14    8      3.23      0.00
    0  -14    8     -1.31      0.00
    1  -14    8      2.79      0.00
    2  -14    8      0.64      0.00
    3  -14    8      0.86      0.00
    4  -14    8      0.65      0.00
    5  -14    8      1.10      0.00
    6  -14    8     -0.38      0.00
    7  -14    8     -0.99      0.00
    8  -14    8      0.07      0.00
   -5  -13    8     -1.50      0.00
   -4  -13    8     -0.69      0.00
   -3  -13    8     -2.73      0.00
   -2  -13    8     -5.24      0.00
   -1  -13    8     -0.27      0.00
    0  -13    8     -3.39      0.00
    1  -13    8     -2.04      0.00
    2  -13    8     -2.89      0.00
    3  -13    8     -3.57      0.00
    4  -13    8      1.05      0.00
    5  -13    8      2.16      0.00
    6  -13    8      1.34      0.00
    7  -13    8     -0.95      0.00
    8  -13    8      1.34      0.00
    9  -13    8     -0.60      0.00
   -6  -12    8     -0.29      0.00
   -5  -12    8      0.31      0.00
   -4  -12    8      2.09      0.00
   -3  -12    8      1.84      0.00
   -2  -12    8     -2.60      0.00
   -1  -12    8      0.20      0.00
    0  -12    8     -2.22      0.00
    1  -12    8     -2.84      0.00
    2  -12    8     -3.47      0.00
    3  -12    8     -3.61      0.00
    4  -12    8     -0.97      0.00
    5  -12    8     -1.65      0.00
    6  -12    8      0.84      0.00
    7  -12    8     -1.25      0.00
    8  -12    8      1.97      0.00
    9  -12    8     -0.18      0.00
   -6  -11    8      0.87      0.00
   -5  -11    8     -0.88      0.00
   -4  -11    8      3.84      0.00
   -3  -11    8      3.91      0.00
   -2  -11    8     -0.15      0.00
   -1  -11    8      4.90      0.00
    0  -11    8      2.30      0.00
    2  -11    8      2.55      0.00
    3  -11    8     -0.61      0.00
    4  -11    8     -1.11      0.00
    5  -11    8      1.21      0.00
    6  -11    8      0.45      0.00
    7  -11    8      0.38      0.00
    8  -11    8      0.49      0.00
    9  -11    8      0.41      0.00
   -7  -10    8      0.48      0.00
   -6  -10    8      0.21      0.00
   -5  -10    8     -2.96      0.00
   -4  -10    8     -0.77      0.00
   -3  -10    8      0.46      0.00
   -2  -10    8     -1.36      0.00
   -1  -10    8      3.85      0.00
    0  -10    8      0.02      0.00
    1  -10    8      5.43      0.00
    2  -10    8      2.34      0.00
    3  -10    8      0.94      0.00
    4  -10    8     -1.16      0.00
    5  -10    8     -0.09      0.00
    6  -10    8     -0.04      0.00
    7  -10    8      1.24      0.00
    8  -10    8      0.30      0.00
    9  -10    8     -0.06      0.00
   10  -10    8      2.00      0.00
   -8   -9    8     -0.49      0.00
   -7   -9    8      1.08      0.00
   -6   -9    8      0.57      0.00
   -5   -9    8     -1.17      0.00
   -4   -9    8     -2.55      0.00
   -3   -9    8      2.24      0.00
   -2   -9    8     -4.00      0.00
   -1   -9    8     -0.88      0.00
    0   -9    8     -7.02      0.00
    1   -9    8     -1.05      0.00
    2   -9    8     -2.30      0.00
    3   -9    8      2.35      0.00
    4   -9    8     -1.80      0.00
    5   -9    8     -1.90      0.00
    6   -9    8     -2.81      0.00
    7   -9    8     -1.91      0.00
    8   -9    8     -1.18      0.00
    9   -9    8     -3.67      0.00
   10   -9    8      0.26      0.00
   -8   -8    8      0.07      0.00
   -7   -8    8      0.70      0.00
   -6   -8    8      2.61      0.00
   -5   -8    8     -1.02      0.00
   -4   -8    8     -1.28      0.00
   -3   -8    8      1.53      0.00
   -2   -8    8     -4.41      0.00
   -1   -8    8      4.36      0.00
    0   -8    8     -1.46      0.00
    1   -8    8     -0.53      0.00
    2   -8    8     -1.86      0.00
    3   -8    8      8.90      0.00
    4   -8    8      4.36      0.00
    5   -8    8      3.08      0.00
    6   -8    8      1.91      0.00
    7   -8    8     -1.12      0.00
    8   -8    8     -0.43      0.00
    9   -8    8     -2.48      0.00
   10   -8    8      0.31      0.00
   -8   -7    8     -0.62      0.00
   -7   -7    8     -1.41      0.00
   -6   -7    8      3.01      0.00
   -5   -7    8      0.93      0.00
   -4   -7    8     -1.56      0.00
   -3   -7    8      1.55      0.00
   -2   -7    8     -5.69      0.00
   -1   -7    8      6.29      0.00
    0   -7    8     -0.46      0.00
    1   -7    8     -0.09      0.00
    2   -7    8     -4.29      0.00
    3   -7    8      3.57      0.00
    4   -7    8      4.06      0.00
    5   -7    8      6.40      0.00
    6   -7    8      5.39      0.00
    7   -7    8      1.76      0.00
    8   -7    8      0.08      0.00
    9   -7    8     -0.74      0.00
   10   -7    8      0.36      0.00
   -9   -6    8     -0.69      0.00
   -8   -6    8      0.00      0.00
   -7   -6    8     -2.11      0.00
   -6   -6    8      2.12      0.00
   -5   -6    8      1.56      0.00
   -4   -6    8     -1.63      0.00
   -3   -6    8      3.55      0.00
   -2   -6    8     -9.55      0.00
   -1   -6    8     -0.22      0.00
    0   -6    8     -4.46      0.00
    1   -6    8     -4.87      0.00
    2   -6    8    -21.31      0.00
    3   -6    8    -13.12      0.00
    4   -6    8     -9.35      0.00
    5   -6    8     -3.05      0.00
    6   -6    8      1.28      0.00
    7   -6    8     -0.40      0.00
    8   -6    8      0.33      0.00
    9   -6    8     -1.43      0.00
   10   -6    8     -0.36      0.00
   -9   -5    8     -0.48      0.00
   -8   -5    8      1.34      0.00
   -7   -5    8     -3.63      0.00
   -6   -5    8      0.89      0.00
   -5   -5    8     -0.03      0.00
   -4   -5    8      3.73      0.00
   -3   -5    8     11.74      0.00
   -2   -5    8     -4.17      0.00
   -1   -5    8      6.97      0.00
    0   -5    8      6.75      0.00
    1   -5    8      4.39      0.00
    2   -5    8     -2.67      0.00
    3   -5    8     -6.23      0.00
    4   -5    8     -8.95      0.00
    5   -5    8     -4.59      0.00
    6   -5    8      2.34      0.00
    7   -5    8     -0.11      0.00
    8   -5    8     -0.11      0.00
    9   -5    8      0.22      0.00
   10   -5    8     -0.51      0.00
   -9   -4    8     -1.95      0.00
   -8   -4    8      0.50      0.00
   -7   -4    8     -3.40      0.00
   -6   -4    8      0.13      0.00
   -5   -4    8     -2.61      0.00
   -4   -4    8      0.70      0.00
   -3   -4    8      9.44      0.00
   -2   -4    8     -3.40      0.00
   -1   -4    8      8.38      0.00
    0   -4    8     11.67      0.00
    1   -4    8     17.92      0.00
    2   -4    8     20.86      0.00
    3   -4    8      3.74      0.00
    4   -4    8      1.70      0.00
    5   -4    8      1.02      0.00
    6   -4    8      2.58      0.00
    7   -4    8      2.05      0.00
    8   -4    8     -2.19      0.00
    9   -4    8     -0.14      0.00
   10   -4    8      0.02      0.00
  -10   -3    8      0.81      0.00
   -9   -3    8      0.26      0.00
   -8   -3    8      2.39      0.00
   -7   -3    8     -1.62      0.00
   -6   -3    8      1.98      0.00
   -5   -3    8     -5.12      0.00
   -4   -3    8     -9.85      0.00
   -3   -3    8      2.58      0.00
   -2   -3    8     -8.11      0.00
   -1   -3    8     -6.27      0.00
    0   -3    8      2.52      0.00
    1   -3    8      1.81      0.00
    2   -3    8     12.90      0.00
    3   -3    8      2.17      0.00
    4   -3    8     -0.52      0.00
    5   -3    8     -1.32      0.00
    6   -3    8      0.14      0.00
    7   -3    8      4.15      0.00
    8   -3    8     -2.19      0.00
    9   -3    8     -0.02      0.00
   10   -3    8      0.14      0.00
  -10   -2    8      0.67      0.00
   -9   -2    8      0.87      0.00
   -8   -2    8      2.36      0.00
   -7   -2    8     -0.92      0.00
   -6   -2    8      2.01      0.00
   -5   -2    8     -2.02      0.00
   -4   -2    8    -10.02      0.00
   -3   -2    8      5.56      0.00
   -2   -2    8    -11.88      0.00
   -1   -2    8     -8.84      0.00
    0   -2    8     -9.30      0.00
    1   -2    8    -11.85      0.00
    2   -2    8      5.63      0.00
    3   -2    8      5.85      0.00
    4   -2    8     -0.53      0.00
    5   -2    8     -0.13      0.00
    6   -2    8     -0.90      0.00
    7   -2    8      1.34      0.00
    8   -2    8     -0.89      0.00
    9   -2    8     -0.41      0.00
   10   -2    8     -0.85      0.00
  -10   -1    8     -0.81      0.00
   -9   -1    8     -1.40      0.00
   -8   -1    8      0.66      0.00
   -7   -1    8     -0.95      0.00
   -6   -1    8      2.92      0.00
   -5   -1    8      5.38      0.00
   -4   -1    8     -2.53      0.00
   -3   -1    8      6.55      0.00
   -2   -1    8     -8.78      0.00
   -1   -1    8     -1.24      0.00
    0   -1    8    -11.15      0.00
    1   -1    8    -12.56      0.00
    2   -1    8     -3.01      0.00
    3   -1    8      5.21      0.00
    4   -1    8     -1.51      0.00
    5   -1    8     -1.76      0.00
    6   -1    8      0.09      0.00
    7   -1    8      1.83      0.00
    8   -1    8      0.70      0.00
    9   -1    8      1.53      0.00
   10   -1    8      0.17      0.00
  -10    0    8     -0.21      0.00
   -9    0    8      0.23      0.00
   -8    0    8      0.53      0.00
   -7    0    8     -1.31      0.00
   -6    0    8      3.64      0.00
   -5    0    8      7.21      0.00
   -4    0    8     -0.18      0.00
   -3    0    8     12.65      0.00
   -2    0    8     -3.28      0.00
   -1    0    8     -0.88      0.00
    0    0    8      3.62      0.00
    1    0    8     -9.46      0.00
    2    0    8    -14.54      0.00
    3    0    8     -0.20      0.00
    4    0    8     -5.38      0.00
    5    0    8     -1.44      0.00
    6    0    8      2.28      0.00
    7    0    8      1.37      0.00
    8    0    8      0.19      0.00
    9    0    8      2.18      0.00
   10    0    8      0.38      0.00
  -10    1    8      0.25      0.00
   -9    1    8      0.60      0.00
   -8    1    8      0.13      0.00
   -7    1    8     -2.38      0.00
   -6    1    8      0.58      0.00
   -5    1    8      2.66      0.00
   -4    1    8     -1.05      0.00
   -3    1    8     16.75      0.00
   -2    1    8      2.91      0.00
   -1    1    8     -2.83      0.00
    0    1    8     22.14      0.00
    1    1    8      4.42      0.00
    2    1    8     -3.12      0.00
    3    1    8      2.76      0.00
    4    1    8     -2.24      0.00
    5    1    8     -4.16      0.00
    6    1    8      1.19      0.00
    7    1    8     -2.95      0.00
    8    1    8     -1.10      0.00
    9    1    8      0.76      0.00
   10    1    8      0.05      0.00
  -11    2    8     -1.12      0.00
  -10    2    8     -0.80      0.00
   -9    2    8     -1.11      0.00
   -8    2    8      0.89      0.00
   -7    2    8     -2.99      0.00
   -6    2    8     -5.25      0.00
   -5    2    8     -2.13      0.00
   -4    2    8     -9.01      0.00
   -3    2    8      6.85      0.00
   -2    2    8     13.35      0.00
   -1    2    8    -12.25      0.00
    0    2    8     16.16      0.00
    1    2    8      8.39      0.00
    2    2    8      6.56      0.00
    3    2    8      3.07      0.00
    4    2    8     -1.40      0.00
    5    2    8     -5.52      0.00
    6    2    8     -0.41      0.00
    7    2    8     -2.55      0.00
    8    2    8     -2.47      0.00
    9    2    8     -0.64      0.00
  -11    3    8      0.00      0.00
  -10    3    8     -1.20      0.00
   -9    3    8     -0.04      0.00
   -8    3    8      0.74      0.00
   -7    3    8     -0.65      0.00
   -6    3    8     -2.12      0.00
   -5    3    8     -2.66      0.00
   -4    3    8     -9.06      0.00
   -3    3    8     -7.77      0.00
   -2    3    8     15.91      0.00
   -1    3    8    -23.54      0.00
    0    3    8     -0.21      0.00
    1    3    8     -2.42      0.00
    2    3    8      8.13      0.00
    3    3    8      5.13      0.00
    4    3    8     -0.11      0.00
    5    3    8     -0.52      0.00
    6    3    8      0.15      0.00
    7    3    8      1.36      0.00
    8    3    8     -0.41      0.00
    9    3    8     -1.45      0.00
  -11    4    8     -0.53      0.00
  -10    4    8      0.09      0.00
   -9    4    8      0.04      0.00
   -8    4    8      2.04      0.00
   -7    4    8      2.64      0.00
   -6    4    8      2.86      0.00
   -5    4    8      1.98      0.00
   -4    4    8     -0.58      0.00
   -3    4    8    -14.08      0.00
   -2    4    8      6.32      0.00
   -1    4    8     -8.70      0.00
    0    4    8     -4.16      0.00
    1    4    8     -5.48      0.00
    2    4    8      7.89      0.00
    3    4    8      9.23      0.00
    4    4    8      3.33      0.00
    5    4    8      4.79      0.00
    6    4    8      2.65      0.00
    7    4    8      2.56      0.00
    8    4    8      1.65      0.00
    9    4    8      0.10      0.00
  -11    5    8      1.37      0.00
  -10    5    8      0.19      0.00
   -9    5    8     -0.60      0.00
   -8    5    8      0.47      0.00
   -7    5    8      2.11      0.00
   -6    5    8      3.75      0.00
   -5    5    8      1.18      0.00
   -4    5    8      3.77      0.00
   -3    5    8     -7.94      0.00
   -2    5    8      2.77      0.00
   -1    5    8      0.66      0.00
    0    5    8     -3.82      0.00
    1    5    8    -13.60      0.00
    2    5    8     -4.53      0.00
    3    5    8      1.16      0.00
    4    5    8     -1.08      0.00
    5    5    8      0.51      0.00
    6    5    8     -0.01      0.00
    7    5    8      0.39      0.00
    8    5    8      0.67      0.00
  -11    6    8      0.65      0.00
  -10    6    8     -0.58      0.00
   -9    6    8     -0.93      0.00
   -8    6    8     -1.56      0.00
   -7    6    8     -1.35      0.00
   -6    6    8      0.59      0.00
   -5    6    8      0.30      0.00
   -4    6    8      5.92      0.00
   -3    6    8      3.19      0.00
   -2    6    8      0.53      0.00
   -1    6    8      3.69      0.00
    0    6    8     -1.38      0.00
    1    6    8     -9.04      0.00
    2    6    8     -8.96      0.00
    3    6    8     -3.80      0.00
    4    6    8     -6.16      0.00
    5    6    8     -2.98      0.00
    6    6    8     -2.43      0.00
    7    6    8      0.80      0.00
    8    6    8     -1.31      0.00
  -10    7    8      0.53      0.00
   -9    7    8     -2.45      0.00
   -8    7    8      1.14      0.00
   -7    7    8     -4.39      0.00
   -6    7    8      0.83      0.00
   -5    7    8      1.08      0.00
   -4    7    8      1.41      0.00
   -3    7    8      3.20      0.00
   -2    7    8      3.04      0.00
   -1    7    8      6.19      0.00
    0    7    8      8.42      0.00
    1    7    8      5.18      0.00
    2    7    8      0.54      0.00
    3    7    8     -0.43      0.00
    4    7    8      0.07      0.00
    5    7    8     -2.33      0.00
    6    7    8     -0.24      0.00
    7    7    8     -0.98      0.00
    8    7    8     -0.36      0.00
  -10    8    8      2.21      0.00
   -9    8    8     -1.38      0.00
   -8    8    8      1.71      0.00
   -7    8    8     -1.11      0.00
   -6    8    8     -1.66      0.00
   -5    8    8     -1.64      0.00
   -4    8    8     -2.05      0.00
   -3    8    8     -0.49      0.00
   -2    8    8     -0.06      0.00
   -1    8    8      2.26      0.00
    0    8    8      5.48      0.00
    1    8    8      5.82      0.00
    2    8    8      3.81      0.00
    3    8    8      2.99      0.00
    4    8    8      2.57      0.00
    5    8    8      0.00      0.00
    6    8    8      1.23      0.00
    7    8    8      0.67      0.00
  -10    9    8      0.72      0.00
   -9    9    8      1.88      0.00
   -8    9    8      1.26      0.00
   -7    9    8      0.75      0.00
   -6    9    8     -2.01      0.00
   -5    9    8     -1.88      0.00
   -4    9    8     -2.14      0.00
   -3    9    8     -2.09      0.00
   -2    9    8     -3.78      0.00
   -1    9    8     -3.22      0.00
    0    9    8     -2.41      0.00
    1    9    8      1.77      0.00
    2    9    8      2.16      0.00
    3    9    8      1.52      0.00
    4    9    8      1.00      0.00
    5    9    8     -0.53      0.00
    6    9    8     -0.38      0.00
    7    9    8     -0.37      0.00
  -10   10    8     -1.60      0.00
   -9   10    8      1.62      0.00
   -8   10    8      0.99      0.00
   -7   10    8      1.51      0.00
   -6   10    8      1.19      0.00
   -5   10    8     -0.50      0.00
   -4   10    8     -2.60      0.00
   -3   10    8     -0.25      0.00
   -2   10    8     -3.00      0.00
   -1   10    8     -3.19      0.00
    0   10    8     -3.62      0.00
    1   10    8     -1.88      0.00
    2   10    8     -0.78      0.00
    3   10    8      0.54      0.00
    4   10    8      0.39      0.00
    5   10    8     -0.03      0.00
    6   10    8     -0.07      0.00
  -10   11    8     -0.73      0.00
   -9   11    8      0.24      0.00
   -8   11    8      1.25      0.00
   -7   11    8     -0.91      0.00
   -6   11    8      2.12      0.00
   -5   11    8      0.95      0.00
   -4   11    8     -0.32      0.00
   -3   11    8      2.04      0.00
   -2   11    8     -0.19      0.00
   -1   11    8     -1.06      0.00
    0   11    8     -1.19      0.00
    1   11    8     -3.34      0.00
    2   11    8     -1.81      0.00
    3   11    8     -0.58      0.00
    4   11    8      1.20      0.00
    5   11    8      0.71      0.00
   -9   12    8     -1.53      0.00
   -8   12    8     -0.72      0.00
   -7   12    8     -0.20      0.00
   -6   12    8      1.40      0.00
   -5   12    8      2.34      0.00
   -4   12    8      1.95      0.00
   -3   12    8      3.19      0.00
   -2   12    8      1.36      0.00
   -1   12    8      0.17      0.00
    0   12    8      1.63      0.00
    1   12    8     -0.38      0.00
    2   12    8     -0.90      0.00
    3   12    8     -2.23      0.00
    4   12    8      0.07      0.00
    5   12    8      0.81      0.00
   -9   13    8      0.65      0.00
   -8   13    8     -0.65      0.00
   -7   13    8      0.20      0.00
   -6   13    8     -1.46      0.00
   -5   13    8     -0.46      0.00
   -4   13    8      0.75      0.00
   -3   13    8      1.35      0.00
   -2   13    8      2.26      0.00
   -1   13    8      2.65      0.00
    0   13    8      0.92      0.00
    1   13    8      2.24      0.00
    2   13    8      0.60      0.00
    3   13    8     -2.50      0.00
    4   13    8     -0.65      0.00
   -8   14    8      0.78      0.00
   -7   14    8     -1.26      0.00
   -6   14    8     -2.09      0.00
   -5   14    8     -2.43      0.00
   -4   14    8     -3.18      0.00
   -3   14    8     -0.38      0.00
   -2   14    8     -0.34      0.00
   -1   14    8     -0.89      0.00
    0   14    8     -0.30      0.00
    1   14    8      1.32      0.00
    2   14    8      2.60      0.00
    3   14    8     -0.19      0.00
   -7   15    8      1.18      0.00
   -6   15    8     -0.11      0.00
   -5   15    8      0.68      0.00
   -4   15    8     -1.82      0.00
   -3   15    8     -1.43      0.00
   -2   15    8     -1.72      0.00
   -1   15    8     -0.23      0.00
    0   15    8     -1.50      0.00
    1   15    8     -0.16      0.00
    2   15    8      1.93      0.00
   -6   16    8      0.03      0.00
   -5   16    8      0.85      0.00
   -4   16    8      0.67      0.00
   -3   16    8     -0.01      0.00
   -2   16    8      0.40      0.00
   -1   16    8      1.05      0.00
    0   16    8     -0.85      0.00
    1   16    8     -0.72      0.00
   -4   17    8      0.47      0.00
   -3   17    8      0.82      0.00
   -2   17    8     -0.50      0.00
    0  -17    9     -0.28      0.00
    1  -17    9     -1.05      0.00
    2  -17    9     -0.47      0.00
    3  -17    9     -0.09      0.00
    4  -17    9     -0.83      0.00
    5  -17    9      0.90      0.00
   -2  -16    9     -0.23      0.00
   -1  -16    9      0.58      0.00
    0  -16    9     -2.08      0.00
    1  -16    9      0.36      0.00
    2  -16    9      0.45      0.00
    3  -16    9      0.00      0.00
    4  -16    9     -0.67      0.00
    5  -16    9      1.59      0.00
    6  -16    9      0.74      0.00
    7  -16    9     -0.19      0.00
   -3  -15    9     -0.86      0.00
   -2  -15    9     -0.59      0.00
   -1  -15    9      1.87      0.00
    0  -15    9     -1.12      0.00
    1  -15    9      0.69      0.00
    2  -15    9     -0.60      0.00
    3  -15    9      1.14      0.00
    4  -15    9     -1.16      0.00
    5  -15    9      0.13      0.00
    6  -15    9      0.57      0.00
    7  -15    9      0.61      0.00
   -4  -14    9      1.77      0.00
   -3  -14    9      0.52      0.00
   -2  -14    9      0.56      0.00
   -1  -14    9      4.95      0.00
    0  -14    9      0.99      0.00
    1  -14    9      2.59      0.00
    2  -14    9      0.80      0.00
    3  -14    9      1.12      0.00
    4  -14    9      0.52      0.00
    5  -14    9     -0.33      0.00
    6  -14    9     -1.72      0.00
    7  -14    9     -0.29      0.00
    8  -14    9     -1.54      0.00
   -5  -13    9     -2.22      0.00
   -4  -13    9     -0.33      0.00
   -3  -13    9     -3.10      0.00
   -2  -13    9     -3.14      0.00
   -1  -13    9      2.26      0.00
    0  -13    9     -3.07      0.00
    1  -13    9      0.88      0.00
    2  -13    9     -1.44      0.00
    3  -13    9      0.73      0.00
    4  -13    9      1.30      0.00
    5  -13    9      1.77      0.00
    6  -13    9     -1.53      0.00
    7  -13    9      0.30      0.00
    8  -13    9      0.08      0.00
    9  -13    9     -0.30      0.00
   -6  -12    9     -0.29      0.00
   -5  -12    9     -1.12      0.00
   -4  -12    9      0.99      0.00
   -3  -12    9     -2.13      0.00
   -2  -12    9     -4.50      0.00
   -1  -12    9      0.01      0.00
    0  -12    9     -5.68      0.00
    1  -12    9     -2.91      0.00
    2  -12    9     -2.94      0.00
    3  -12    9     -1.88      0.00
    4  -12    9      1.57      0.00
    5  -12    9      2.12      0.00
    6  -12    9     -0.67      0.00
    7  -12    9     -0.03      0.00
    8  -12    9      0.34      0.00
    9  -12    9     -0.86      0.00
   -6  -11    9      0.13      0.00
   -5  -11    9      1.61      0.00
   -4  -11    9      2.38      0.00
   -3  -11    9      2.33      0.00
   -2  -11    9     -0.75      0.00
   -1  -11    9      2.13      0.00
    0  -11    9      1.48      0.00
    1  -11    9      0.67      0.00
    2  -11    9     -3.66      0.00
    3  -11    9     -3.20      0.00
    4  -11    9      0.72      0.00
    5  -11    9     -0.11      0.00
    6  -11    9      1.37      0.00
    7  -11    9     -0.55      0.00
    8  -11    9     -0.51      0.00
    9  -11    9     -0.48      0.00
   -7  -10    9      1.14      0.00
   -6  -10    9      0.59      0.00
   -5  -10    9     -1.33      0.00
   -4  -10    9      2.07      0.00
   -3  -10    9      1.89      0.00
   -2  -10    9      0.60      0.00
   -1  -10    9      4.78      0.00
    0  -10    9      4.74      0.00
    1  -10    9      6.96      0.00
    2  -10    9      0.70      0.00
    3  -10    9     -1.13      0.00
    4  -10    9     -0.72      0.00
    5  -10    9      1.63      0.00
    6  -10    9      2.06      0.00
    7  -10    9      0.87      0.00
    8  -10    9      0.49      0.00
    9  -10    9      0.49      0.00
   10  -10    9      1.66      0.00
   -7   -9    9      0.96      0.00
   -6   -9    9      0.09      0.00
   -5   -9    9     -2.86      0.00
   -4   -9    9      0.81      0.00
   -3   -9    9     -1.24      0.00
   -2   -9    9     -0.82      0.00
   -1   -9    9     -1.11      0.00
    0   -9    9     -2.39      0.00
    1   -9    9      1.57      0.00
    2   -9    9      0.51      0.00
    3   -9    9     -0.63      0.00
    4   -9    9     -3.81      0.00
    5   -9    9     -1.91      0.00
    6   -9    9     -0.98      0.00
    7   -9    9     -0.19      0.00
    8   -9    9     -0.73      0.00
    9   -9    9     -1.00      0.00
   10   -9    9      0.50      0.00
   -8   -8    9     -1.29      0.00
   -7   -8    9      1.91      0.00
   -6   -8    9     -0.11      0.00
   -5   -8    9     -1.93      0.00
   -4   -8    9      0.33      0.00
   -3   -8    9      0.04      0.00
   -2   -8    9     -0.91      0.00
   -1   -8    9     -2.96      0.00
    0   -8    9     -4.67      0.00
    1   -8    9      1.95      0.00
    2   -8    9      1.65      0.00
    3   -8    9      4.20      0.00
    4   -8    9     -1.84      0.00
    5   -8    9     -0.06      0.00
    6   -8    9     -1.41      0.00
    7   -8    9     -0.52      0.00
    8   -8    9     -1.35      0.00
    9   -8    9     -2.55      0.00
   10   -8    9     -0.11      0.00
   -8   -7    9     -2.29      0.00
   -7   -7    9      0.58      0.00
   -6   -7    9      3.23      0.00
   -5   -7    9     -4.04      0.00
   -4   -7    9      0.14      0.00
   -3   -7    9     -1.76      0.00
   -2   -7    9     -0.87      0.00
   -1   -7    9      3.84      0.00
    0   -7    9      0.02      0.00
    1   -7    9      1.43      0.00
    2   -7    9      3.00      0.00
    3   -7    9     11.84      0.00
    4   -7    9      4.32      0.00
    5   -7    9      7.24      0.00
    6   -7    9      2.56      0.00
    7   -7    9      0.00      0.00
    8   -7    9     -0.68      0.00
    9   -7    9     -2.24      0.00
   10   -7    9      0.47      0.00
   -9   -6    9     -0.68      0.00
   -8   -6    9     -0.24      0.00
   -7   -6    9     -0.75      0.00
   -6   -6    9      3.76      0.00
   -5   -6    9     -1.72      0.00
   -4   -6    9      0.59      0.00
   -3   -6    9     -2.09      0.00
   -2   -6    9     -6.04      0.00
   -1   -6    9      4.35      0.00
    0   -6    9     -8.78      0.00
    1   -6    9     -8.24      0.00
    2   -6    9     -9.29      0.00
    3   -6    9      0.95      0.00
    4   -6    9     -1.84      0.00
    5   -6    9      3.82      0.00
    6   -6    9      0.07      0.00
    7   -6    9      1.30      0.00
    8   -6    9     -0.08      0.00
    9   -6    9     -0.93      0.00
   10   -6    9      0.29      0.00
   -9   -5    9      0.48      0.00
   -8   -5    9      1.52      0.00
   -7   -5    9     -1.60      0.00
   -6   -5    9      3.47      0.00
   -5   -5    9      1.46      0.00
   -4   -5    9      2.51      0.00
   -3   -5    9      3.32      0.00
   -2   -5    9     -4.52      0.00
   -1   -5    9      6.15      0.00
    0   -5    9     -9.15      0.00
    1   -5    9     -4.31      0.00
    2   -5    9    -22.72      0.00
    3   -5    9     -9.36      0.00
    4   -5    9     -9.67      0.00
    5   -5    9     -2.29      0.00
    6   -5    9     -0.50      0.00
    7   -5    9      1.20      0.00
    8   -5    9      0.93      0.00
    9   -5    9     -0.60      0.00
   10   -5    9     -1.19      0.00
   -9   -4    9     -1.97      0.00
   -8   -4    9      0.57      0.00
   -7   -4    9     -3.15      0.00
   -6   -4    9      1.72      0.00
   -5   -4    9     -0.46      0.00
   -4   -4    9      6.70      0.00
   -3   -4    9      8.95      0.00
   -2   -4    9     -3.01      0.00
   -1   -4    9     15.19      0.00
    0   -4    9      9.58      0.00
    1   -4    9     17.05      0.00
    2   -4    9     -2.52      0.00
    3   -4    9      2.01      0.00
    4   -4    9     -4.51      0.00
    5   -4    9      1.56      0.00
    6   -4    9      1.88      0.00
    7   -4    9      0.42      0.00
    8   -4    9      0.11      0.00
    9   -4    9      1.36      0.00
   10   -4    9     -1.04      0.00
  -10   -3    9      0.22      0.00
   -9   -3    9     -2.54      0.00
   -8   -3    9     -0.30      0.00
   -7   -3    9     -2.65      0.00
   -6   -3    9     -0.55      0.00
   -5   -3    9     -4.49      0.00
   -4   -3    9      0.74      0.00
   -3   -3    9      0.98      0.00
   -2   -3    9     -9.69      0.00
   -1   -3    9      8.16      0.00
    0   -3    9      7.16      0.00
    1   -3    9     18.41      0.00
    2   -3    9      8.63      0.00
    3   -3    9      2.38      0.00
    4   -3    9     -2.43      0.00
    5   -3    9      0.36      0.00
    6   -3    9      0.94      0.00
    7   -3    9     -0.80      0.00
    8   -3    9     -2.32      0.00
    9   -3    9      0.55      0.00
   10   -3    9     -1.22      0.00
  -10   -2    9      1.13      0.00
   -9   -2    9      1.57      0.00
   -8   -2    9      0.96      0.00
   -7   -2    9     -0.54      0.00
   -6   -2    9      1.16      0.00
   -5   -2    9     -5.77      0.00
   -4   -2    9     -6.27      0.00
   -3   -2    9      0.71      0.00
   -2   -2    9     -6.58      0.00
   -1   -2    9     -8.20      0.00
    0   -2    9      0.68      0.00
    1   -2    9      3.25      0.00
    2   -2    9      9.18      0.00
    3   -2    9      2.15      0.00
    4   -2    9     -2.73      0.00
    5   -2    9     -1.42      0.00
    6   -2    9      0.70      0.00
    7   -2    9      0.73      0.00
    8   -2    9     -1.20      0.00
    9   -2    9      1.31      0.00
   10   -2    9     -1.58      0.00
  -10   -1    9     -0.33      0.00
   -9   -1    9      1.50      0.00
   -8   -1    9      1.03      0.00
   -7   -1    9     -1.29      0.00
   -6   -1    9      1.55      0.00
   -5   -1    9     -1.51      0.00
   -4   -1    9     -4.55      0.00
   -3   -1    9      5.44      0.00
   -2   -1    9     -6.41      0.00
   -1   -1    9    -11.91      0.00
    0   -1    9     -5.33      0.00
    1   -1    9     -6.20      0.00
    2   -1    9     12.13      0.00
    3   -1    9      6.91      0.00
    4   -1    9     -1.49      0.00
    5   -1    9      1.17      0.00
    6   -1    9      1.12      0.00
    7   -1    9      0.54      0.00
    8   -1    9     -0.34      0.00
    9   -1    9     -0.03      0.00
   10   -1    9     -0.78      0.00
  -10    0    9     -0.66      0.00
   -9    0    9     -0.21      0.00
   -8    0    9      0.73      0.00
   -7    0    9     -0.75      0.00
   -6    0    9      3.39      0.00
   -5    0    9      3.92      0.00
   -4    0    9     -1.76      0.00
   -3    0    9      1.65      0.00
   -2    0    9    -11.19      0.00
   -1    0    9     -3.80      0.00
    0    0    9    -12.64      0.00
    1    0    9    -19.17      0.00
    2    0    9     -1.25      0.00
    3    0    9      0.53      0.00
    4    0    9     -4.62      0.00
    5    0    9      0.22      0.00
    6    0    9      1.97      0.00
    7    0    9      1.41      0.00
    8    0    9      1.92      0.00
    9    0    9      0.69      0.00
   10    0    9      0.76      0.00
  -10    1    9     -0.67      0.00
   -9    1    9      1.41      0.00
   -8    1    9      0.50      0.00
   -7    1    9     -0.58      0.00
   -6    1    9      4.00      0.00
   -5    1    9      4.50      0.00
   -4    1    9      1.21      0.00
   -3    1    9     11.67      0.00
   -2    1    9     -5.89      0.00
   -1    1    9      9.44      0.00
    0    1    9      0.31      0.00
    1    1    9    -13.08      0.00
    2    1    9     -5.83      0.00
    3    1    9      0.55      0.00
    4    1    9     -4.94      0.00
    5    1    9     -0.83      0.00
    6    1    9      1.22      0.00
    7    1    9     -0.71      0.00
    8    1    9      1.93      0.00
    9    1    9      0.39      0.00
  -10    2    9     -1.03      0.00
   -9    2    9      1.47      0.00
   -8    2    9     -0.03      0.00
   -7    2    9     -2.30      0.00
   -6    2    9      1.51      0.00
   -5    2    9      0.72      0.00
   -4    2    9      0.12      0.00
   -3    2    9     20.89      0.00
   -2    2    9     -3.88      0.00
   -1    2    9     16.11      0.00
    0    2    9     16.49      0.00
    1    2    9      6.15      0.00
    2    2    9      2.19      0.00
    3    2    9      2.17      0.00
    4    2    9     -3.10      0.00
    5    2    9     -3.50      0.00
    6    2    9     -0.12      0.00
    7    2    9     -4.29      0.00
    8    2    9      0.02      0.00
    9    2    9     -0.28      0.00
  -11    3    9     -1.15      0.00
  -10    3    9     -0.63      0.00
   -9    3    9     -0.31      0.00
   -8    3    9      0.67      0.00
   -7    3    9     -3.36      0.00
   -6    3    9     -3.58      0.00
   -5    3    9     -2.74      0.00
   -4    3    9    -10.22      0.00
   -3    3    9     11.34      0.00
   -2    3    9     -6.48      0.00
   -1    3    9     -0.07      0.00
    0    3    9      7.45      0.00
    1    3    9      4.86      0.00
    2    3    9      2.49      0.00
    3    3    9     -0.43      0.00
    4    3    9     -2.40      0.00
    5    3    9     -3.74      0.00
    6    3    9      1.71      0.00
    7    3    9     -2.64      0.00
    8    3    9     -0.30      0.00
    9    3    9     -0.99      0.00
  -11    4    9     -0.38      0.00
  -10    4    9     -1.30      0.00
   -9    4    9      0.40      0.00
   -8    4    9      0.40      0.00
   -7    4    9     -0.78      0.00
   -6    4    9     -1.78      0.00
   -5    4    9     -0.46      0.00
   -4    4    9    -10.39      0.00
   -3    4    9     -2.60      0.00
   -2    4    9      0.23      0.00
   -1    4    9    -15.60      0.00
    0    4    9     -1.32      0.00
    1    4    9      0.02      0.00
    2    4    9      8.13      0.00
    3    4    9      4.36      0.00
    4    4    9      1.81      0.00
    5    4    9      0.80      0.00
    6    4    9      2.08      0.00
    7    4    9     -0.06      0.00
    8    4    9      0.52      0.00
    9    4    9     -1.72      0.00
  -11    5    9     -0.04      0.00
  -10    5    9      0.09      0.00
   -9    5    9      0.37      0.00
   -8    5    9      2.29      0.00
   -7    5    9      3.52      0.00
   -6    5    9      0.39      0.00
   -5    5    9      3.14      0.00
   -4    5    9     -3.90      0.00
   -3    5    9     -6.68      0.00
   -2    5    9      6.02      0.00
   -1    5    9     -7.30      0.00
    0    5    9     -3.02      0.00
    1    5    9     -0.67      0.00
    2    5    9      5.72      0.00
    3    5    9      5.92      0.00
    4    5    9      1.89      0.00
    5    5    9      2.61      0.00
    6    5    9      2.05      0.00
    7    5    9      1.29      0.00
    8    5    9      0.71      0.00
  -10    6    9     -0.26      0.00
   -9    6    9      0.31      0.00
   -8    6    9     -0.07      0.00
   -7    6    9      2.62      0.00
   -6    6    9      0.30      0.00
   -5    6    9      2.46      0.00
   -4    6    9      1.23      0.00
   -3    6    9     -3.68      0.00
   -2    6    9      6.62      0.00
   -1    6    9     -2.65      0.00
    0    6    9     -5.24      0.00
    1    6    9     -9.74      0.00
    2    6    9     -5.29      0.00
    3    6    9     -1.14      0.00
    4    6    9     -3.98      0.00
    5    6    9      0.50      0.00
    6    6    9      0.48      0.00
    7    6    9      0.41      0.00
    8    6    9      0.63      0.00
  -10    7    9     -1.37      0.00
   -9    7    9      0.05      0.00
   -8    7    9     -2.66      0.00
   -7    7    9     -1.06      0.00
   -6    7    9      0.70      0.00
   -5    7    9      1.88      0.00
   -4    7    9      4.75      0.00
   -3    7    9     -0.28      0.00
   -2    7    9      2.15      0.00
   -1    7    9      1.35      0.00
    0    7    9     -0.68      0.00
    1    7    9     -6.37      0.00
    2    7    9     -5.69      0.00
    3    7    9     -0.89      0.00
    4    7    9     -5.80      0.00
    5    7    9     -1.32      0.00
    6    7    9     -2.04      0.00
    7    7    9      0.46      0.00
    8    7    9     -0.37      0.00
  -10    8    9     -0.53      0.00
   -9    8    9     -1.54      0.00
   -8    8    9      1.26      0.00
   -7    8    9     -3.71      0.00
   -6    8    9      1.07      0.00
   -5    8    9      0.83      0.00
   -4    8    9      0.93      0.00
   -3    8    9      0.71      0.00
   -2    8    9      3.42      0.00
   -1    8    9      5.01      0.00
    0    8    9      8.24      0.00
    1    8    9      3.51      0.00
    2    8    9      0.81      0.00
    3    8    9      2.16      0.00
    4    8    9     -0.63      0.00
    5    8    9     -0.35      0.00
    6    8    9      0.30      0.00
    7    8    9     -0.88      0.00
  -10    9    9      1.65      0.00
   -9    9    9     -0.09      0.00
   -8    9    9      2.15      0.00
   -7    9    9     -1.22      0.00
   -6    9    9     -1.66      0.00
   -5    9    9     -1.39      0.00
   -4    9    9     -1.42      0.00
   -3    9    9      2.25      0.00
   -2    9    9      0.21      0.00
   -1    9    9      0.83      0.00
    0    9    9      5.17      0.00
    1    9    9      4.85      0.00
    2    9    9      1.66      0.00
    3    9    9      3.23      0.00
    4    9    9      0.76      0.00
    5    9    9      0.49      0.00
    6    9    9     -0.06      0.00
    7    9    9     -0.49      0.00
  -10   10    9      0.86      0.00
   -9   10    9      1.07      0.00
   -8   10    9      1.20      0.00
   -7   10    9     -0.54      0.00
   -6   10    9     -2.56      0.00
   -5   10    9     -2.32      0.00
   -4   10    9     -1.25      0.00
   -3   10    9     -0.73      0.00
   -2   10    9     -3.16      0.00
   -1   10    9     -3.72      0.00
    0   10    9     -1.04      0.00
    1   10    9      0.97      0.00
    2   10    9      0.77      0.00
    3   10    9      0.69      0.00
    4   10    9     -0.25      0.00
    5   10    9      0.13      0.00
    6   10    9     -0.14      0.00
   -9   11    9      0.72      0.00
   -8   11    9      0.55      0.00
   -7   11    9      1.44      0.00
   -6   11    9     -0.56      0.00
   -5   11    9     -0.87      0.00
   -4   11    9     -2.78      0.00
   -3   11    9     -2.05      0.00
   -2   11    9     -2.77      0.00
   -1   11    9     -3.40      0.00
    0   11    9     -4.34      0.00
    1   11    9     -1.92      0.00
    2   11    9     -0.50      0.00
    3   11    9     -0.14      0.00
    4   11    9      0.50      0.00
    5   11    9      0.90      0.00
   -9   12    9     -0.76      0.00
   -8   12    9      1.06      0.00
   -7   12    9      1.24      0.00
   -6   12    9      1.91      0.00
   -5   12    9      1.87      0.00
   -4   12    9      1.35      0.00
   -3   12    9      1.49      0.00
   -2   12    9      1.09      0.00
   -1   12    9     -0.18      0.00
    0   12    9     -0.57      0.00
    1   12    9     -2.04      0.00
    2   12    9     -1.08      0.00
    3   12    9     -0.03      0.00
    4   12    9      0.82      0.00
    5   12    9      0.11      0.00
   -9   13    9     -1.64      0.00
   -8   13    9     -0.20      0.00
   -7   13    9     -0.05      0.00
   -6   13    9      0.69      0.00
   -5   13    9      0.90      0.00
   -4   13    9      3.23      0.00
   -3   13    9      1.81      0.00
   -2   13    9      2.69      0.00
   -1   13    9      1.58      0.00
    0   13    9      1.68      0.00
    1   13    9      0.47      0.00
    2   13    9     -1.46      0.00
    3   13    9     -1.86      0.00
    4   13    9     -0.47      0.00
   -8   14    9     -0.76      0.00
   -7   14    9     -0.73      0.00
   -6   14    9     -1.95      0.00
   -5   14    9     -2.50      0.00
   -4   14    9      1.40      0.00
   -3   14    9     -0.67      0.00
   -2   14    9      0.78      0.00
   -1   14    9      0.82      0.00
    0   14    9     -0.31      0.00
    1   14    9      2.46      0.00
    2   14    9      0.11      0.00
    3   14    9     -1.56      0.00
   -7   15    9      0.43      0.00
   -6   15    9     -0.90      0.00
   -5   15    9     -0.95      0.00
   -4   15    9     -1.54      0.00
   -3   15    9     -1.87      0.00
   -2   15    9      0.20      0.00
   -1   15    9     -0.41      0.00
    0   15    9     -0.68      0.00
    1   15    9      1.86      0.00
    2   15    9      1.64      0.00
   -6   16    9     -0.17      0.00
   -5   16    9      0.09      0.00
   -4   16    9     -0.24      0.00
   -3   16    9     -1.03      0.00
   -2   16    9      0.07      0.00
   -1   16    9      0.31      0.00
    0   16    9     -1.06      0.00
   -3   17    9     -0.55      0.00
    0  -17   10     -0.08      0.00
    1  -17   10      0.95      0.00
    2  -17   10     -1.65      0.00
    3  -17   10     -1.01      0.00
    4  -17   10      0.60      0.00
    5  -17   10     -0.95      0.00
   -2  -16   10      0.23      0.00
   -1  -16   10      0.54      0.00
    0  -16   10     -1.01      0.00
    1  -16   10     -0.92      0.00
    2  -16   10     -0.95      0.00
    3  -16   10     -0.24      0.00
    4  -16   10      1.21      0.00
    5  -16   10      0.75      0.00
    6  -16   10      0.20      0.00
   -3  -15   10     -0.80      0.00
   -2  -15   10     -0.36      0.00
   -1  -15   10      0.25      0.00
    0  -15   10     -2.07      0.00
    1  -15   10      0.51      0.00
    2  -15   10      0.15      0.00
    3  -15   10     -0.73      0.00
    4  -15   10     -0.22      0.00
    5  -15   10      0.52      0.00
    6  -15   10      1.23      0.00
    7  -15   10     -0.90      0.00
   -4  -14   10      2.39      0.00
   -3  -14   10     -0.82      0.00
   -2  -14   10      0.88      0.00
   -1  -14   10      2.90      0.00
    0  -14   10      0.19      0.00
    1  -14   10      1.56      0.00
    2  -14   10     -0.37      0.00
    3  -14   10      0.81      0.00
    4  -14   10     -1.23      0.00
    5  -14   10     -1.31      0.00
    6  -14   10      0.10      0.00
    7  -14   10     -0.44      0.00
    8  -14   10     -0.79      0.00
   -5  -13   10     -0.67      0.00
   -4  -13   10      1.17      0.00
   -3  -13   10     -0.43      0.00
   -2  -13   10      1.18      0.00
   -1  -13   10      2.64      0.00
    0  -13   10      1.35      0.00
    1  -13   10      2.49      0.00
    2  -13   10      0.67      0.00
    3  -13   10      1.49      0.00
    4  -13   10      1.08      0.00
    5  -13   10     -0.66      0.00
    6  -13   10     -1.88      0.00
    7  -13   10     -0.90      0.00
    8  -13   10     -1.94      0.00
   -6  -12   10     -0.41      0.00
   -5  -12   10     -2.86      0.00
   -4  -12   10     -0.91      0.00
   -3  -12   10     -3.81      0.00
   -2  -12   10     -3.22      0.00
   -1  -12   10     -0.14      0.00
    0  -12   10     -3.73      0.00
    1  -12   10     -1.57      0.00
    2  -12   10     -2.24      0.00
    3  -12   10      2.53      0.00
    4  -12   10      1.86      0.00
    5  -12   10      1.94      0.00
    6  -12   10     -1.32      0.00
    7  -12   10      1.08      0.00
    8  -12   10     -0.67      0.00
    9  -12   10     -0.42      0.00
   -6  -11   10     -0.01      0.00
   -5  -11   10     -0.17      0.00
   -4  -11   10      1.57      0.00
   -3  -11   10     -1.10      0.00
   -2  -11   10     -2.23      0.00
   -1  -11   10      0.64      0.00
    0  -11   10     -4.15      0.00
    1  -11   10     -3.62      0.00
    2  -11   10     -3.18      0.00
    3  -11   10      0.60      0.00
    4  -11   10      0.22      0.00
    5  -11   10      2.37      0.00
    6  -11   10     -0.60      0.00
    7  -11   10     -0.80      0.00
    8  -11   10     -1.93      0.00
    9  -11   10     -0.78      0.00
   -7  -10   10      1.06      0.00
   -6  -10   10     -0.12      0.00
   -5  -10   10      2.00      0.00
   -4  -10   10      1.71      0.00
   -3  -10   10      2.49      0.00
   -2  -10   10     -0.15      0.00
   -1  -10   10      3.50      0.00
    0  -10   10      4.92      0.00
    1  -10   10      1.23      0.00
    2  -10   10     -3.58      0.00
    3  -10   10     -2.04      0.00
    4  -10   10      0.42      0.00
    5  -10   10      0.50      0.00
    6  -10   10      1.91      0.00
    7  -10   10     -0.17      0.00
    8  -10   10      0.02      0.00
    9  -10   10      0.19      0.00
   -7   -9   10      1.25      0.00
   -6   -9   10      0.15      0.00
   -5   -9   10     -0.69      0.00
   -4   -9   10     -0.56      0.00
   -3   -9   10      2.32      0.00
   -2   -9   10     -0.49      0.00
   -1   -9   10      3.19      0.00
    0   -9   10      5.00      0.00
    1   -9   10      2.35      0.00
    2   -9   10     -0.05      0.00
    3   -9   10     -0.87      0.00
    4   -9   10     -0.75      0.00
    5   -9   10     -0.18      0.00
    6   -9   10      3.16      0.00
    7   -9   10     -0.28      0.00
    8   -9   10      0.45      0.00
    9   -9   10     -0.29      0.00
   10   -9   10      1.70      0.00
   -8   -8   10      0.39      0.00
   -7   -8   10      0.70      0.00
   -6   -8   10     -0.98      0.00
   -5   -8   10     -1.19      0.00
   -4   -8   10      0.54      0.00
   -3   -8   10      0.41      0.00
   -2   -8   10     -2.93      0.00
   -1   -8   10     -3.49      0.00
    0   -8   10      0.25      0.00
    1   -8   10     -1.41      0.00
    2   -8   10      0.87      0.00
    3   -8   10     -2.36      0.00
    4   -8   10     -4.12      0.00
    5   -8   10     -3.44      0.00
    6   -8   10      0.14      0.00
    7   -8   10     -1.86      0.00
    8   -8   10     -1.64      0.00
    9   -8   10     -1.61      0.00
   10   -8   10     -0.14      0.00
   -8   -7   10     -1.78      0.00
   -7   -7   10      1.44      0.00
   -6   -7   10     -0.73      0.00
   -5   -7   10     -0.86      0.00
   -4   -7   10      0.12      0.00
   -3   -7   10     -0.32      0.00
   -2   -7   10      0.35      0.00
   -1   -7   10     -2.42      0.00
    0   -7   10      1.49      0.00
    1   -7   10      4.72      0.00
    2   -7   10      9.16      0.00
    3   -7   10      4.31      0.00
    4   -7   10      1.67      0.00
    5   -7   10      1.71      0.00
    6   -7   10      1.99      0.00
    7   -7   10      0.20      0.00
    8   -7   10     -1.52      0.00
    9   -7   10     -1.88      0.00
   10   -7   10     -0.82      0.00
   -9   -6   10      0.23      0.00
   -8   -6   10     -2.75      0.00
   -7   -6   10      0.65      0.00
   -6   -6   10      2.41      0.00
   -5   -6   10     -5.91      0.00
   -4   -6   10     -0.84      0.00
   -3   -6   10     -3.65      0.00
   -2   -6   10     -0.48      0.00
   -1   -6   10     -3.75      0.00
    0   -6   10     -0.85      0.00
    1   -6   10     -3.40      0.00
    2   -6   10      6.46      0.00
    3   -6   10      6.73      0.00
    4   -6   10      3.76      0.00
    5   -6   10      4.58      0.00
    6   -6   10      1.51      0.00
    7   -6   10     -0.22      0.00
    8   -6   10     -0.76      0.00
    9   -6   10     -0.86      0.00
   10   -6   10      0.27      0.00
   -9   -5   10      1.83      0.00
   -8   -5   10      0.39      0.00
   -7   -5   10      0.79      0.00
   -6   -5   10      4.05      0.00
   -5   -5   10     -2.10      0.00
   -4   -5   10      2.87      0.00
   -3   -5   10     -2.01      0.00
   -2   -5   10     -1.55      0.00
   -1   -5   10     -1.16      0.00
    0   -5   10     -8.95      0.00
    1   -5   10    -18.79      0.00
    2   -5   10     -8.27      0.00
    3   -5   10     -4.12      0.00
    4   -5   10     -6.27      0.00
    5   -5   10     -0.67      0.00
    6   -5   10     -0.73      0.00
    7   -5   10      1.99      0.00
    8   -5   10      0.55      0.00
    9   -5   10     -0.31      0.00
   10   -5   10     -0.03      0.00
   -9   -4   10      1.57      0.00
   -8   -4   10     -0.04      0.00
   -7   -4   10     -0.67      0.00
   -6   -4   10      4.05      0.00
   -5   -4   10      1.95      0.00
   -4   -4   10      5.65      0.00
   -3   -4   10      3.06      0.00
   -2   -4   10      4.75      0.00
   -1   -4   10      7.43      0.00
    0   -4   10     -1.34      0.00
    1   -4   10     -4.13      0.00
    2   -4   10    -10.56      0.00
    3   -4   10     -3.69      0.00
    4   -4   10     -5.04      0.00
    5   -4   10      1.06      0.00
    6   -4   10      1.22      0.00
    7   -4   10      1.94      0.00
    8   -4   10      1.29      0.00
    9   -4   10     -0.73      0.00
   10   -4   10     -1.63      0.00
  -10   -3   10     -1.18      0.00
   -9   -3   10     -2.16      0.00
   -8   -3   10     -1.28      0.00
   -7   -3   10     -2.13      0.00
   -6   -3   10      0.96      0.00
   -5   -3   10     -1.45      0.00
   -4   -3   10      3.62      0.00
   -3   -3   10      0.73      0.00
   -2   -3   10     -0.44      0.00
   -1   -3   10     11.52      0.00
    0   -3   10     12.67      0.00
    1   -3   10     12.86      0.00
    2   -3   10     -2.56      0.00
    3   -3   10      4.85      0.00
    4   -3   10     -3.44      0.00
    5   -3   10      1.62      0.00
    6   -3   10     -0.78      0.00
    7   -3   10      0.00      0.00
    8   -3   10      1.03      0.00
    9   -3   10      1.60      0.00
   10   -3   10     -0.95      0.00
  -10   -2   10      0.40      0.00
   -9   -2   10     -1.08      0.00
   -8   -2   10     -1.20      0.00
   -7   -2   10     -0.10      0.00
   -6   -2   10     -0.27      0.00
   -5   -2   10     -5.72      0.00
   -4   -2   10      0.58      0.00
   -3   -2   10     -4.34      0.00
   -2   -2   10     -8.47      0.00
   -1   -2   10      7.68      0.00
    0   -2   10      7.46      0.00
    1   -2   10     10.93      0.00
    2   -2   10     -2.09      0.00
    3   -2   10      0.77      0.00
    4   -2   10     -6.92      0.00
    5   -2   10     -0.56      0.00
    6   -2   10     -0.17      0.00
    7   -2   10     -3.41      0.00
    8   -2   10     -0.45      0.00
    9   -2   10      0.33      0.00
   10   -2   10     -1.54      0.00
  -10   -1   10      1.70      0.00
   -9   -1   10      1.77      0.00
   -8   -1   10     -0.56      0.00
   -7   -1   10     -0.19      0.00
   -6   -1   10      0.97      0.00
   -5   -1   10     -3.99      0.00
   -4   -1   10      0.35      0.00
   -3   -1   10      0.26      0.00
   -2   -1   10     -2.69      0.00
   -1   -1   10     -3.78      0.00
    0   -1   10      6.40      0.00
    1   -1   10      9.88      0.00
    2   -1   10      8.00      0.00
    3   -1   10      4.73      0.00
    4   -1   10     -0.20      0.00
    5   -1   10      0.71      0.00
    6   -1   10      1.89      0.00
    7   -1   10     -2.11      0.00
    8   -1   10     -0.20      0.00
    9   -1   10      0.28      0.00
   10   -1   10     -2.14      0.00
  -10    0   10      0.15      0.00
   -9    0   10      1.12      0.00
   -8    0   10     -0.29      0.00
   -7    0   10     -2.45      0.00
   -6    0   10      1.52      0.00
   -5    0   10     -3.15      0.00
   -4    0   10     -1.05      0.00
   -3    0   10     -2.63      0.00
   -2    0   10     -8.88      0.00
   -1    0   10    -19.96      0.00
    0    0   10     -6.09      0.00
    1    0   10     -4.09      0.00
    2    0   10      9.65      0.00
    3    0   10      2.50      0.00
    4    0   10     -2.12      0.00
    5    0   10      1.80      0.00
    6    0   10      3.14      0.00
    7    0   10      0.78      0.00
    8    0   10      1.00      0.00
    9    0   10      0.89      0.00
  -10    1   10      0.33      0.00
   -9    1   10     -0.16      0.00
   -8    1   10      0.97      0.00
   -7    1   10      0.00      0.00
   -6    1   10      3.34      0.00
   -5    1   10     -0.20      0.00
   -4    1   10      1.36      0.00
   -3    1   10     -4.30      0.00
   -2    1   10     -6.44      0.00
   -1    1   10    -10.01      0.00
    0    1   10    -11.72      0.00
    1    1   10    -19.33      0.00
    2    1   10     -0.73      0.00
    3    1   10     -3.62      0.00
    4    1   10     -4.89      0.00
    5    1   10      1.71      0.00
    6    1   10      1.28      0.00
    7    1   10      1.20      0.00
    8    1   10      2.19      0.00
    9    1   10     -0.22      0.00
  -10    2   10     -0.35      0.00
   -9    2   10      1.85      0.00
   -8    2   10      1.00      0.00
   -7    2   10      0.83      0.00
   -6    2   10      3.23      0.00
   -5    2   10      2.64      0.00
   -4    2   10      8.48      0.00
   -3    2   10     11.07      0.00
   -2    2   10      7.84      0.00
   -1    2   10     13.72      0.00
    0    2   10      5.06      0.00
    1    2   10     -8.13      0.00
    2    2   10      3.28      0.00
    3    2   10     -0.09      0.00
    4    2   10     -3.84      0.00
    5    2   10      0.67      0.00
    6    2   10     -1.35      0.00
    7    2   10     -0.32      0.00
    8    2   10      0.88      0.00
    9    2   10     -1.02      0.00
  -10    3   10     -0.82      0.00
   -9    3   10      1.08      0.00
   -8    3   10     -0.42      0.00
   -7    3   10     -1.79      0.00
   -6    3   10      0.37      0.00
   -5    3   10     -0.80      0.00
   -4    3   10      3.21      0.00
   -3    3   10     12.93      0.00
   -2    3   10     -2.60      0.00
   -1    3   10     16.57      0.00
    0    3   10      9.09      0.00
    1    3   10      2.01      0.00
    2    3   10      3.82      0.00
    3    3   10     -1.25      0.00
    4    3   10     -4.15      0.00
    5    3   10     -0.43      0.00
    6    3   10     -2.24      0.00
    7    3   10     -1.33      0.00
    8    3   10      0.06      0.00
    9    3   10      0.37      0.00
  -10    4   10     -0.02      0.00
   -9    4   10     -1.01      0.00
   -8    4   10      0.35      0.00
   -7    4   10     -3.36      0.00
   -6    4   10     -2.81      0.00
   -5    4   10     -5.18      0.00
   -4    4   10     -9.76      0.00
   -3    4   10      6.89      0.00
   -2    4   10    -16.17      0.00
   -1    4   10      3.11      0.00
    0    4   10      0.44      0.00
    1    4   10      0.79      0.00
    2    4   10      0.92      0.00
    3    4   10     -1.34      0.00
    4    4   10     -1.85      0.00
    5    4   10     -1.03      0.00
    6    4   10      0.20      0.00
    7    4   10     -1.66      0.00
    8    4   10      0.06      0.00
    9    4   10      0.08      0.00
  -10    5   10     -0.36      0.00
   -9    5   10     -0.15      0.00
   -8    5   10      1.58      0.00
   -7    5   10     -0.76      0.00
   -6    5   10     -1.10      0.00
   -5    5   10     -0.65      0.00
   -4    5   10     -9.72      0.00
   -3    5   10      4.56      0.00
   -2    5   10     -7.37      0.00
   -1    5   10     -3.95      0.00
    0    5   10      0.50      0.00
    1    5   10      3.66      0.00
    2    5   10      8.33      0.00
    3    5   10      2.90      0.00
    4    5   10      3.24      0.00
    5    5   10      0.87      0.00
    6    5   10      1.62      0.00
    7    5   10     -1.09      0.00
    8    5   10     -0.91      0.00
  -10    6   10      0.60      0.00
   -9    6   10      0.65      0.00
   -8    6   10      2.60      0.00
   -7    6   10      2.58      0.00
   -6    6   10      0.02      0.00
   -5    6   10      3.48      0.00
   -4    6   10     -5.89      0.00
   -3    6   10      3.21      0.00
   -2    6   10      0.69      0.00
   -1    6   10     -3.18      0.00
    0    6   10     -4.08      0.00
    1    6   10      0.35      0.00
    2    6   10      2.72      0.00
    3    6   10      0.86      0.00
    4    6   10      1.62      0.00
    5    6   10      1.85      0.00
    6    6   10      2.99      0.00
    7    6   10      1.63      0.00
    8    6   10      0.55      0.00
  -10    7   10     -0.91      0.00
   -9    7   10      1.05      0.00
   -8    7   10     -1.11      0.00
   -7    7   10      1.32      0.00
   -6    7   10     -0.43      0.00
   -5    7   10      3.94      0.00
   -4    7   10     -1.74      0.00
   -3    7   10      0.91      0.00
   -2    7   10      1.78      0.00
   -1    7   10     -3.86      0.00
    0    7   10     -7.97      0.00
    1    7   10     -6.64      0.00
    2    7   10     -3.84      0.00
    3    7   10     -1.87      0.00
    4    7   10     -3.42      0.00
    5    7   10     -0.26      0.00
    6    7   10      0.40      0.00
    7    7   10     -0.31      0.00
  -10    8   10     -2.78      0.00
   -9    8   10      0.10      0.00
   -8    8   10     -3.56      0.00
   -7    8   10     -0.21      0.00
   -6    8   10      1.22      0.00
   -5    8   10      2.86      0.00
   -4    8   10      1.08      0.00
   -3    8   10      0.41      0.00
   -2    8   10      1.42      0.00
   -1    8   10      2.76      0.00
    0    8   10     -0.23      0.00
    1    8   10     -3.68      0.00
    2    8   10     -2.95      0.00
    3    8   10      0.23      0.00
    4    8   10     -4.45      0.00
    5    8   10     -1.11      0.00
    6    8   10     -2.02      0.00
    7    8   10      0.33      0.00
  -10    9   10     -1.53      0.00
   -9    9   10      1.14      0.00
   -8    9   10      1.08      0.00
   -7    9   10     -1.69      0.00
   -6    9   10     -0.32      0.00
   -5    9   10      1.26      0.00
   -4    9   10      1.10      0.00
   -3    9   10      1.99      0.00
   -2    9   10      3.55      0.00
   -1    9   10      5.96      0.00
    0    9   10      7.36      0.00
    1    9   10      1.87      0.00
    2    9   10      1.14      0.00
    3    9   10      2.18      0.00
    4    9   10     -0.26      0.00
    5    9   10      1.69      0.00
    6    9   10     -0.56      0.00
  -10   10   10      0.94      0.00
   -9   10   10      1.27      0.00
   -8   10   10      0.30      0.00
   -7   10   10     -2.18      0.00
   -6   10   10     -2.20      0.00
   -5   10   10      0.07      0.00
   -4   10   10     -0.32      0.00
   -3   10   10      2.60      0.00
   -2   10   10     -0.98      0.00
   -1   10   10      0.09      0.00
    0   10   10      3.93      0.00
    1   10   10      3.60      0.00
    2   10   10      1.04      0.00
    3   10   10      2.70      0.00
    4   10   10      0.28      0.00
    5   10   10      0.76      0.00
    6   10   10     -1.96      0.00
   -9   11   10     -0.25      0.00
   -8   11   10      1.30      0.00
   -7   11   10     -1.72      0.00
   -6   11   10     -2.07      0.00
   -5   11   10     -1.77      0.00
   -4   11   10     -2.36      0.00
   -3   11   10     -1.68      0.00
   -2   11   10     -4.45      0.00
   -1   11   10     -4.24      0.00
    0   11   10     -0.98      0.00
    1   11   10     -0.33      0.00
    2   11   10     -0.10      0.00
    3   11   10     -0.45      0.00
    4   11   10     -0.26      0.00
    5   11   10      0.75      0.00
   -9   12   10      0.66      0.00
   -8   12   10      1.48      0.00
   -7   12   10      1.68      0.00
   -6   12   10     -0.79      0.00
   -5   12   10     -0.10      0.00
   -4   12   10     -2.75      0.00
   -3   12   10     -1.14      0.00
   -2   12   10     -1.70      0.00
   -1   12   10     -3.02      0.00
    0   12   10     -3.39      0.00
    1   12   10     -1.78      0.00
    2   12   10     -0.87      0.00
    3   12   10     -0.71      0.00
    4   12   10      0.45      0.00
   -8   13   10      0.80      0.00
   -7   13   10      0.80      0.00
   -6   13   10      0.96      0.00
   -5   13   10      3.04      0.00
   -4   13   10      3.05      0.00
   -3   13   10      2.05      0.00
   -2   13   10      1.84      0.00
   -1   13   10      0.49      0.00
    0   13   10      0.49      0.00
    1   13   10     -0.44      0.00
    2   13   10     -1.04      0.00
    3   13   10      0.17      0.00
    4   13   10      0.42      0.00
   -8   14   10      0.75      0.00
   -7   14   10     -2.25      0.00
   -6   14   10     -0.35      0.00
   -5   14   10      0.17      0.00
   -4   14   10      1.29      0.00
   -3   14   10      1.93      0.00
   -2   14   10      2.32      0.00
   -1   14   10      1.01      0.00
    0   14   10      1.67      0.00
    1   14   10      1.46      0.00
    2   14   10     -1.08      0.00
    3   14   10     -0.15      0.00
   -7   15   10      0.65      0.00
   -6   15   10     -0.38      0.00
   -5   15   10     -2.05      0.00
   -4   15   10     -0.35      0.00
   -3   15   10     -0.48      0.00
   -2   15   10     -0.46      0.00
   -1   15   10     -0.64      0.00
    0   15   10     -0.50      0.00
    1   15   10      1.55      0.00
   -6   16   10     -0.84      0.00
   -5   16   10      0.43      0.00
   -4   16   10     -1.23      0.00
   -3   16   10     -0.90      0.00
   -2   16   10      0.36      0.00
   -1   16   10     -0.14      0.00
    0   16   10     -0.49      0.00
    0  -17   11     -1.15      0.00
    1  -17   11      0.51      0.00
    2  -17   11     -0.18      0.00
    3  -17   11      1.06      0.00
    4  -17   11     -0.12      0.00
    5  -17   11     -0.58      0.00
   -2  -16   11      0.67      0.00
   -1  -16   11      1.24      0.00
    0  -16   11     -1.58      0.00
    1  -16   11      0.87      0.00
    2  -16   11     -1.71      0.00
    3  -16   11      0.25      0.00
    4  -16   11      0.65      0.00
    5  -16   11      0.31      0.00
    6  -16   11     -0.20      0.00
   -3  -15   11     -0.82      0.00
   -2  -15   11      0.23      0.00
   -1  -15   11     -0.44      0.00
    0  -15   11     -1.97      0.00
    1  -15   11     -0.39      0.00
    2  -15   11     -1.12      0.00
    3  -15   11     -0.39      0.00
    4  -15   11      1.18      0.00
    5  -15   11      0.35      0.00
    6  -15   11     -0.12      0.00
    7  -15   11      0.18      0.00
   -4  -14   11      0.69      0.00
   -3  -14   11     -0.88      0.00
   -2  -14   11     -0.11      0.00
   -1  -14   11      1.72      0.00
    0  -14   11     -0.96      0.00
    1  -14   11      1.21      0.00
    2  -14   11      0.36      0.00
    3  -14   11     -1.00      0.00
    4  -14   11     -1.40      0.00
    5  -14   11     -0.84      0.00
    6  -14   11      0.53      0.00
    7  -14   11     -0.67      0.00
    8  -14   11      2.56      0.00
   -5  -13   11      0.51      0.00
   -4  -13   11      1.56      0.00
   -3  -13   11     -0.20      0.00
   -2  -13   11      1.98      0.00
   -1  -13   11      3.27      0.00
    0  -13   11      0.08      0.00
    1  -13   11      1.63      0.00
    2  -13   11     -1.19      0.00
    3  -13   11      0.37      0.00
    4  -13   11      0.26      0.00
    5  -13   11     -1.24      0.00
    6  -13   11     -1.38      0.00
    7  -13   11     -2.00      0.00
    8  -13   11     -0.67      0.00
   -6  -12   11     -1.02      0.00
   -5  -12   11     -1.59      0.00
   -4  -12   11      0.43      0.00
   -3  -12   11     -1.37      0.00
   -2  -12   11      0.10      0.00
   -1  -12   11      0.13      0.00
    0  -12   11     -0.54      0.00
    1  -12   11      1.58      0.00
    2  -12   11      1.54      0.00
    3  -12   11      1.99      0.00
    4  -12   11      1.60      0.00
    5  -12   11     -0.42      0.00
    6  -12   11     -1.03      0.00
    7  -12   11     -0.70      0.00
    8  -12   11     -1.70      0.00
    9  -12   11      1.12      0.00
   -6  -11   11     -0.83      0.00
   -5  -11   11     -2.41      0.00
   -4  -11   11     -0.70      0.00
   -3  -11   11     -3.00      0.00
   -2  -11   11     -2.39      0.00
   -1  -11   11     -1.60      0.00
    0  -11   11     -4.15      0.00
    1  -11   11     -0.92      0.00
    2  -11   11     -1.97      0.00
    3  -11   11      2.25      0.00
    4  -11   11      0.73      0.00
    5  -11   11      1.98      0.00
    6  -11   11     -0.64      0.00
    7  -11   11      0.61      0.00
    8  -11   11     -2.25      0.00
    9  -11   11     -0.71      0.00
   -7  -10   11      0.65      0.00
   -6  -10   11      0.69      0.00
   -5  -10   11     -0.42      0.00
   -4  -10   11      2.55      0.00
   -3  -10   11      0.05      0.00
   -2  -10   11     -1.01      0.00
   -1  -10   11      3.10      0.00
    0  -10   11     -1.97      0.00
    1  -10   11     -2.60      0.00
    2  -10   11     -3.33      0.00
    3  -10   11      2.10      0.00
    4  -10   11     -1.79      0.00
    5  -10   11      3.33      0.00
    6  -10   11     -0.88      0.00
    7  -10   11     -0.78      0.00
    8  -10   11     -0.92      0.00
    9  -10   11      0.67      0.00
   -7   -9   11      1.58      0.00
   -6   -9   11      0.48      0.00
   -5   -9   11      0.77      0.00
   -4   -9   11      0.99      0.00
   -3   -9   11      2.26      0.00
   -2   -9   11      0.06      0.00
   -1   -9   11      5.87      0.00
    0   -9   11      2.81      0.00
    1   -9   11      1.83      0.00
    2   -9   11     -1.88      0.00
    3   -9   11     -0.65      0.00
    4   -9   11     -0.09      0.00
    5   -9   11      2.34      0.00
    6   -9   11      1.14      0.00
    7   -9   11      0.44      0.00
    8   -9   11      0.29      0.00
    9   -9   11     -0.32      0.00
   -8   -8   11      0.97      0.00
   -7   -8   11      0.35      0.00
   -6   -8   11      0.53      0.00
   -5   -8   11     -0.55      0.00
   -4   -8   11     -1.20      0.00
   -3   -8   11      4.43      0.00
   -2   -8   11     -3.32      0.00
   -1   -8   11      2.81      0.00
    0   -8   11      0.55      0.00
    1   -8   11     -0.71      0.00
    2   -8   11     -1.50      0.00
    3   -8   11     -2.23      0.00
    4   -8   11     -1.80      0.00
    5   -8   11     -1.99      0.00
    6   -8   11      0.86      0.00
    7   -8   11     -1.16      0.00
    8   -8   11     -0.68      0.00
    9   -8   11     -1.22      0.00
   10   -8   11      0.78      0.00
   -8   -7   11      1.08      0.00
   -7   -7   11     -0.21      0.00
   -6   -7   11     -1.10      0.00
   -5   -7   11      0.21      0.00
   -4   -7   11      0.11      0.00
   -3   -7   11      1.67      0.00
   -2   -7   11     -6.60      0.00
   -1   -7   11      0.52      0.00
    0   -7   11      2.13      0.00
    1   -7   11      1.48      0.00
    2   -7   11      2.20      0.00
    3   -7   11     -3.87      0.00
    4   -7   11     -3.11      0.00
    5   -7   11     -1.66      0.00
    6   -7   11      1.39      0.00
    7   -7   11     -0.36      0.00
    8   -7   11     -2.08      0.00
    9   -7   11     -1.42      0.00
   10   -7   11     -0.18      0.00
   -9   -6   11     -1.61      0.00
   -8   -6   11     -1.80      0.00
   -7   -6   11      0.81      0.00
   -6   -6   11     -1.88      0.00
   -5   -6   11     -1.71      0.00
   -4   -6   11     -2.79      0.00
   -3   -6   11     -1.09      0.00
   -2   -6   11     -2.59      0.00
   -1   -6   11      1.74      0.00
    0   -6   11      2.71      0.00
    1   -6   11      7.61      0.00
    2   -6   11     11.19      0.00
    3   -6   11      3.07      0.00
    4   -6   11      6.63      0.00
    5   -6   11      2.36      0.00
    6   -6   11      2.52      0.00
    7   -6   11      0.41      0.00
    8   -6   11     -2.39      0.00
    9   -6   11     -0.26      0.00
   10   -6   11     -0.35      0.00
   -9   -5   11      0.91      0.00
   -8   -5   11     -1.88      0.00
   -7   -5   11      0.78      0.00
   -6   -5   11      0.70      0.00
   -5   -5   11     -5.12      0.00
   -4   -5   11     -1.38      0.00
   -3   -5   11     -1.49      0.00
   -2   -5   11     -2.22      0.00
   -1   -5   11     -7.88      0.00
    0   -5   11     -6.05      0.00
    1   -5   11     -8.16      0.00
    2   -5   11      5.17      0.00
    3   -5   11     -1.78      0.00
    4   -5   11      2.31      0.00
    5   -5   11     -1.45      0.00
    6   -5   11      1.57      0.00
    7   -5   11      0.57      0.00
    8   -5   11     -1.59      0.00
    9   -5   11     -0.26      0.00
   10   -5   11     -1.05      0.00
   -9   -4   11      3.31      0.00
   -8   -4   11      0.47      0.00
   -7   -4   11      2.72      0.00
   -6   -4   11      4.55      0.00
   -5   -4   11      0.52      0.00
   -4   -4   11      5.56      0.00
   -3   -4   11      3.06      0.00
   -2   -4   11      0.92      0.00
   -1   -4   11     -3.60      0.00
    0   -4   11     -4.21      0.00
    1   -4   11    -18.56      0.00
    2   -4   11     -0.08      0.00
    3   -4   11     -7.79      0.00
    4   -4   11     -4.44      0.00
    5   -4   11     -1.64      0.00
    6   -4   11      2.79      0.00
    7   -4   11      3.41      0.00
    8   -4   11      1.04      0.00
    9   -4   11      0.21      0.00
   10   -4   11     -1.04      0.00
  -10   -3   11     -1.51      0.00
   -9   -3   11      1.10      0.00
   -8   -3   11     -0.74      0.00
   -7   -3   11     -0.28      0.00
   -6   -3   11      2.62      0.00
   -5   -3   11      1.50      0.00
   -4   -3   11      2.70      0.00
   -3   -3   11      1.96      0.00
   -2   -3   11      7.30      0.00
   -1   -3   11      6.22      0.00
    0   -3   11      5.10      0.00
    1   -3   11     -8.02      0.00
    2   -3   11      2.77      0.00
    3   -3   11     -1.97      0.00
    4   -3   11      0.88      0.00
    5   -3   11      0.54      0.00
    6   -3   11      2.33      0.00
    7   -3   11      1.79      0.00
    8   -3   11      1.00      0.00
    9   -3   11     -0.72      0.00
   10   -3   11     -1.06      0.00
  -10   -2   11     -1.65      0.00
   -9   -2   11     -1.73      0.00
   -8   -2   11     -1.68      0.00
   -7   -2   11     -1.04      0.00
   -6   -2   11      0.29      0.00
   -5   -2   11     -2.57      0.00
   -4   -2   11     -2.62      0.00
   -3   -2   11     -1.18      0.00
   -2   -2   11      1.84      0.00
   -1   -2   11      8.19      0.00
    0   -2   11     11.06      0.00
    1   -2   11     -3.23      0.00
    2   -2   11     -1.76      0.00
    3   -2   11     -1.21      0.00
    4   -2   11     -4.14      0.00
    5   -2   11     -1.72      0.00
    6   -2   11     -2.35      0.00
    7   -2   11     -1.19      0.00
    8   -2   11      1.10      0.00
    9   -2   11      1.18      0.00
   10   -2   11     -0.27      0.00
  -10   -1   11      0.85      0.00
   -9   -1   11     -0.39      0.00
   -8   -1   11     -2.05      0.00
   -7   -1   11      0.64      0.00
   -6   -1   11      0.87      0.00
   -5   -1   11     -3.23      0.00
   -4   -1   11      1.56      0.00
   -3   -1   11     -0.88      0.00
   -2   -1   11     -4.51      0.00
   -1   -1   11     14.28      0.00
    0   -1   11     10.78      0.00
    1   -1   11      6.37      0.00
    2   -1   11     -0.89      0.00
    3   -1   11      0.28      0.00
    4   -1   11     -4.49      0.00
    5   -1   11     -0.90      0.00
    6   -1   11     -1.04      0.00
    7   -1   11     -3.92      0.00
    8   -1   11      0.84      0.00
    9   -1   11     -1.68      0.00
   10   -1   11     -1.14      0.00
  -10    0   11      1.58      0.00
   -9    0   11      1.45      0.00
   -8    0   11     -1.74      0.00
   -7    0   11     -1.57      0.00
   -6    0   11      0.52      0.00
   -5    0   11     -2.31      0.00
   -4    0   11      0.34      0.00
   -3    0   11     -2.04      0.00
   -2    0   11    -10.66      0.00
   -1    0   11      0.92      0.00
    0    0   11      5.87      0.00
    1    0   11     13.43      0.00
    2    0   11      6.58      0.00
    3    0   11      4.74      0.00
    4    0   11      3.08      0.00
    5    0   11      1.92      0.00
    6    0   11      3.68      0.00
    7    0   11     -2.42      0.00
    8    0   11      0.53      0.00
    9    0   11      0.03      0.00
  -10    1   11      0.13      0.00
   -9    1   11      0.76      0.00
   -8    1   11     -1.11      0.00
   -7    1   11     -1.70      0.00
   -6    1   11      1.09      0.00
   -5    1   11     -4.64      0.00
   -4    1   11     -2.87      0.00
   -3    1   11     -8.59      0.00
   -2    1   11    -15.94      0.00
   -1    1   11    -19.48      0.00
    0    1   11    -12.12      0.00
    1    1   11     -4.44      0.00
    2    1   11      1.30      0.00
    3    1   11     -3.44      0.00
    4    1   11     -0.09      0.00
    5    1   11      1.70      0.00
    6    1   11      4.39      0.00
    7    1   11      0.83      0.00
    8    1   11      1.35      0.00
    9    1   11      0.50      0.00
  -10    2   11      1.24      0.00
   -9    2   11      1.01      0.00
   -8    2   11      0.31      0.00
   -7    2   11      0.60      0.00
   -6    2   11      3.08      0.00
   -5    2   11      1.19      0.00
   -4    2   11      7.34      0.00
   -3    2   11      0.52      0.00
   -2    2   11      4.21      0.00
   -1    2   11     -7.98      0.00
    0    2   11     -7.93      0.00
    1    2   11     -8.31      0.00
    2    2   11     -0.25      0.00
    3    2   11     -4.02      0.00
    4    2   11     -2.07      0.00
    5    2   11      0.04      0.00
    6    2   11      1.19      0.00
    7    2   11      0.49      0.00
    8    2   11      0.32      0.00
    9    2   11     -0.91      0.00
  -10    3   11     -0.02      0.00
   -9    3   11      1.86      0.00
   -8    3   11      0.42      0.00
   -7    3   11      1.04      0.00
   -6    3   11      1.67      0.00
   -5    3   11      3.80      0.00
   -4    3   11     13.54      0.00
   -3    3   11      7.08      0.00
   -2    3   11     17.74      0.00
   -1    3   11      7.86      0.00
    0    3   11      5.65      0.00
    1    3   11     -0.23      0.00
    2    3   11      5.19      0.00
    3    3   11     -0.61      0.00
    4    3   11     -2.40      0.00
    5    3   11     -0.42      0.00
    6    3   11     -1.97      0.00
    7    3   11      1.39      0.00
    8    3   11      0.38      0.00
    9    3   11     -0.86      0.00
  -10    4   11     -1.27      0.00
   -9    4   11      0.49      0.00
   -8    4   11     -0.90      0.00
   -7    4   11     -1.39      0.00
   -6    4   11     -1.50      0.00
   -5    4   11     -3.64      0.00
   -4    4   11      3.80      0.00
   -3    4   11     -3.66      0.00
   -2    4   11      1.87      0.00
   -1    4   11      6.24      0.00
    0    4   11      2.81      0.00
    1    4   11     -2.29      0.00
    2    4   11      0.60      0.00
    3    4   11     -2.64      0.00
    4    4   11     -3.52      0.00
    5    4   11      1.17      0.00
    6    4   11     -2.93      0.00
    7    4   11      0.90      0.00
    8    4   11     -0.37      0.00
  -10    5   11      0.70      0.00
   -9    5   11     -0.84      0.00
   -8    5   11      0.96      0.00
   -7    5   11     -3.73      0.00
   -6    5   11     -2.18      0.00
   -5    5   11     -8.08      0.00
   -4    5   11     -3.56      0.00
   -3    5   11     -0.68      0.00
   -2    5   11     -9.36      0.00
   -1    5   11      1.97      0.00
    0    5   11      0.17      0.00
    1    5   11      0.21      0.00
    2    5   11     -0.47      0.00
    3    5   11      0.27      0.00
    4    5   11     -0.92      0.00
    5    5   11      0.40      0.00
    6    5   11     -1.92      0.00
    7    5   11     -2.06      0.00
    8    5   11     -0.64      0.00
  -10    6   11      0.03      0.00
   -9    6   11     -0.67      0.00
   -8    6   11      2.24      0.00
   -7    6   11     -1.71      0.00
   -6    6   11      1.22      0.00
   -5    6   11     -2.23      0.00
   -4    6   11     -2.66      0.00
   -3    6   11      5.59      0.00
   -2    6   11     -7.11      0.00
   -1    6   11     -0.05      0.00
    0    6   11      3.23      0.00
    1    6   11      5.65      0.00
    2    6   11      5.96      0.00
    3    6   11      3.12      0.00
    4    6   11      2.84      0.00
    5    6   11      1.57      0.00
    6    6   11      1.54      0.00
    7    6   11     -0.31      0.00
    8    6   11     -0.32      0.00
  -10    7   11     -0.05      0.00
   -9    7   11      0.44      0.00
   -8    7   11      2.83      0.00
   -7    7   11      0.84      0.00
   -6    7   11      1.72      0.00
   -5    7   11      1.06      0.00
   -4    7   11     -3.07      0.00
   -3    7   11      4.74      0.00
   -2    7   11     -3.86      0.00
   -1    7   11     -2.87      0.00
    0    7   11     -4.19      0.00
    1    7   11      0.48      0.00
    2    7   11      0.62      0.00
    3    7   11     -1.28      0.00
    4    7   11      0.98      0.00
    5    7   11      1.94      0.00
    6    7   11      2.24      0.00
    7    7   11      0.84      0.00
  -10    8   11     -1.19      0.00
   -9    8   11      0.21      0.00
   -8    8   11     -1.17      0.00
   -7    8   11      0.66      0.00
   -6    8   11      0.59      0.00
   -5    8   11      1.97      0.00
   -4    8   11     -2.04      0.00
   -3    8   11      1.72      0.00
   -2    8   11     -0.86      0.00
   -1    8   11     -3.18      0.00
    0    8   11     -8.00      0.00
    1    8   11     -4.02      0.00
    2    8   11     -3.57      0.00
    3    8   11     -3.43      0.00
    4    8   11     -2.49      0.00
    5    8   11     -1.41      0.00
    6    8   11      0.05      0.00
    7    8   11     -1.17      0.00
  -10    9   11     -1.98      0.00
   -9    9   11      0.57      0.00
   -8    9   11     -2.75      0.00
   -7    9   11      1.09      0.00
   -6    9   11      1.38      0.00
   -5    9   11      2.24      0.00
   -4    9   11      0.50      0.00
   -3    9   11      1.96      0.00
   -2    9   11      0.98      0.00
   -1    9   11      4.14      0.00
    0    9   11     -1.23      0.00
    1    9   11     -0.95      0.00
    2    9   11     -0.20      0.00
    3    9   11      0.33      0.00
    4    9   11     -0.89      0.00
    5    9   11     -0.02      0.00
    6    9   11     -1.00      0.00
  -10   10   11     -1.04      0.00
   -9   10   11      2.03      0.00
   -8   10   11     -0.60      0.00
   -7   10   11      0.41      0.00
   -6   10   11     -0.74      0.00
   -5   10   11      0.97      0.00
   -4   10   11      2.35      0.00
   -3   10   11      2.97      0.00
   -2   10   11      3.21      0.00
   -1   10   11      6.29      0.00
    0   10   11      4.91      0.00
    1   10   11      2.85      0.00
    2   10   11      3.29      0.00
    3   10   11      1.26      0.00
    4   10   11      0.55      0.00
    5   10   11      0.93      0.00
    6   10   11     -1.77      0.00
   -9   11   11      0.93      0.00
   -8   11   11     -2.10      0.00
   -7   11   11     -2.27      0.00
   -6   11   11     -1.46      0.00
   -5   11   11     -0.09      0.00
   -4   11   11     -0.61      0.00
   -3   11   11     -0.56      0.00
   -2   11   11     -2.55      0.00
   -1   11   11      0.67      0.00
    0   11   11      0.86      0.00
    1   11   11      1.36      0.00
    2   11   11     -0.58      0.00
    3   11   11     -0.88      0.00
    4   11   11     -0.10      0.00
    5   11   11      0.43      0.00
   -9   12   11      0.20      0.00
   -8   12   11      1.37      0.00
   -7   12   11     -1.73      0.00
   -6   12   11     -0.56      0.00
   -5   12   11     -1.47      0.00
   -4   12   11     -3.91      0.00
   -3   12   11     -2.18      0.00
   -2   12   11     -4.26      0.00
   -1   12   11     -3.61      0.00
    0   12   11     -2.27      0.00
    1   12   11     -1.34      0.00
    2   12   11     -0.47      0.00
    3   12   11     -0.80      0.00
    4   12   11      0.76      0.00
   -8   13   11      0.68      0.00
   -7   13   11      1.00      0.00
   -6   13   11     -0.63      0.00
   -5   13   11      1.86      0.00
   -4   13   11     -0.43      0.00
   -3   13   11      0.79      0.00
   -2   13   11     -0.67      0.00
   -1   13   11     -1.21      0.00
    0   13   11     -1.63      0.00
    1   13   11     -0.01      0.00
    2   13   11      1.03      0.00
    3   13   11      0.49      0.00
   -8   14   11      0.02      0.00
   -7   14   11     -0.29      0.00
   -6   14   11      0.14      0.00
   -5   14   11      3.10      0.00
   -4   14   11      2.32      0.00
   -3   14   11      1.67      0.00
   -2   14   11      1.57      0.00
   -1   14   11      1.25      0.00
    0   14   11      1.32      0.00
    1   14   11      0.38      0.00
    2   14   11     -0.93      0.00
   -7   15   11     -1.46      0.00
   -6   15   11     -0.62      0.00
   -5   15   11      0.19      0.00
   -4   15   11     -1.06      0.00
   -3   15   11      1.72      0.00
   -2   15   11      0.43      0.00
   -1   15   11     -0.10      0.00
    0   15   11      0.55      0.00
    1   15   11     -0.20      0.00
   -5   16   11     -0.91      0.00
   -4   16   11     -0.75      0.00
   -3   16   11      0.31      0.00
   -2   16   11     -0.61      0.00
   -1   16   11     -1.06      0.00
    0  -17   12     -0.45      0.00
    1  -17   12      0.48      0.00
    2  -17   12      0.01      0.00
    3  -17   12      1.19      0.00
    4  -17   12     -1.41      0.00
    5  -17   12      0.63      0.00
   -2  -16   12      0.07      0.00
   -1  -16   12      1.62      0.00
    0  -16   12     -0.25      0.00
    1  -16   12     -0.19      0.00
    2  -16   12     -0.51      0.00
    3  -16   12      2.19      0.00
    4  -16   12     -0.65      0.00
    5  -16   12      0.46      0.00
    6  -16   12      1.59      0.00
   -3  -15   12      0.45      0.00
   -2  -15   12      1.35      0.00
   -1  -15   12      0.73      0.00
    0  -15   12     -2.09      0.00
    1  -15   12      0.61      0.00
    2  -15   12     -1.10      0.00
    3  -15   12      1.79      0.00
    4  -15   12     -0.13      0.00
    5  -15   12      1.14      0.00
    6  -15   12     -0.05      0.00
   -4  -14   12     -0.31      0.00
   -3  -14   12     -1.51      0.00
   -2  -14   12     -0.37      0.00
   -1  -14   12     -1.23      0.00
    0  -14   12     -1.41      0.00
    1  -14   12     -0.42      0.00
    2  -14   12     -0.83      0.00
    3  -14   12     -0.58      0.00
    4  -14   12     -1.33      0.00
    5  -14   12     -0.58      0.00
    6  -14   12     -0.81      0.00
    7  -14   12      1.92      0.00
    8  -14   12      0.96      0.00
   -5  -13   12      2.55      0.00
   -4  -13   12     -0.44      0.00
   -3  -13   12     -0.40      0.00
   -2  -13   12      1.00      0.00
   -1  -13   12      2.52      0.00
    0  -13   12     -0.28      0.00
    1  -13   12     -0.25      0.00
    2  -13   12     -0.99      0.00
    3  -13   12     -0.87      0.00
    4  -13   12     -0.75      0.00
    5  -13   12     -0.24      0.00
    6  -13   12     -1.69      0.00
    7  -13   12     -1.39      0.00
    8  -13   12      2.11      0.00
   -6  -12   12     -1.66      0.00
   -5  -12   12      0.51      0.00
   -4  -12   12      1.13      0.00
   -3  -12   12      0.70      0.00
   -2  -12   12      1.47      0.00
   -1  -12   12      2.06      0.00
    0  -12   12     -0.26      0.00
    1  -12   12      1.18      0.00
    2  -12   12      0.19      0.00
    3  -12   12      0.48      0.00
    4  -12   12      1.14      0.00
    5  -12   12     -0.97      0.00
    6  -12   12     -2.09      0.00
    7  -12   12     -1.44      0.00
    8  -12   12      0.85      0.00
    9  -12   12      2.31      0.00
   -6  -11   12     -1.70      0.00
   -5  -11   12     -1.42      0.00
   -4  -11   12      0.10      0.00
   -3  -11   12     -2.52      0.00
   -2  -11   12     -0.76      0.00
   -1  -11   12     -0.99      0.00
    0  -11   12     -1.20      0.00
    1  -11   12      1.73      0.00
    2  -11   12      3.79      0.00
    3  -11   12      0.31      0.00
    4  -11   12      1.37      0.00
    5  -11   12      0.61      0.00
    6  -11   12      0.46      0.00
    7  -11   12     -0.94      0.00
    8  -11   12     -2.58      0.00
    9  -11   12      0.26      0.00
   -7  -10   12     -1.22      0.00
   -6  -10   12      0.10      0.00
   -5  -10   12     -2.00      0.00
   -4  -10   12      0.11      0.00
   -3  -10   12     -2.40      0.00
   -2  -10   12     -0.57      0.00
   -1  -10   12     -0.88      0.00
    0  -10   12     -2.91      0.00
    1  -10   12     -0.65      0.00
    2  -10   12     -2.22      0.00
    3  -10   12     -0.66      0.00
    4  -10   12      0.73      0.00
    5  -10   12      2.76      0.00
    6  -10   12     -0.22      0.00
    7  -10   12     -0.79      0.00
    8  -10   12     -2.71      0.00
    9  -10   12     -0.31      0.00
   -7   -9   12      1.17      0.00
   -6   -9   12      1.93      0.00
   -5   -9   12     -1.73      0.00
   -4   -9   12      4.65      0.00
   -3   -9   12     -0.78      0.00
   -2   -9   12      0.81      0.00
   -1   -9   12      4.27      0.00
    0   -9   12     -1.60      0.00
    1   -9   12     -0.37      0.00
    2   -9   12     -0.79      0.00
    3   -9   12      2.24      0.00
    4   -9   12     -1.75      0.00
    5   -9   12      3.56      0.00
    6   -9   12     -0.25      0.00
    7   -9   12      0.78      0.00
    8   -9   12     -0.03      0.00
    9   -9   12      1.24      0.00
   -8   -8   12      0.87      0.00
   -7   -8   12      0.91      0.00
   -6   -8   12      1.18      0.00
   -5   -8   12     -1.77      0.00
   -4   -8   12      3.35      0.00
   -3   -8   12      0.24      0.00
   -2   -8   12      0.53      0.00
   -1   -8   12      3.90      0.00
    0   -8   12     -3.00      0.00
    1   -8   12      1.06      0.00
    2   -8   12     -0.97      0.00
    3   -8   12     -1.83      0.00
    4   -8   12     -2.42      0.00
    5   -8   12      1.40      0.00
    6   -8   12     -1.01      0.00
    7   -8   12      0.72      0.00
    8   -8   12      0.02      0.00
    9   -8   12     -0.04      0.00
   -8   -7   12      0.48      0.00
   -7   -7   12     -0.20      0.00
   -6   -7   12      1.65      0.00
   -5   -7   12     -1.83      0.00
   -4   -7   12      1.85      0.00
   -3   -7   12      1.90      0.00
   -2   -7   12     -2.41      0.00
   -1   -7   12      3.72      0.00
    0   -7   12     -3.01      0.00
    1   -7   12     -0.20      0.00
    2   -7   12     -2.38      0.00
    3   -7   12     -3.98      0.00
    4   -7   12     -2.67      0.00
    5   -7   12     -0.67      0.00
    6   -7   12     -0.15      0.00
    7   -7   12     -0.91      0.00
    8   -7   12     -1.46      0.00
    9   -7   12     -1.18      0.00
   10   -7   12      0.19      0.00
   -9   -6   12     -1.74      0.00
   -8   -6   12     -0.37      0.00
   -7   -6   12     -0.55      0.00
   -6   -6   12     -0.89      0.00
   -5   -6   12     -2.85      0.00
   -4   -6   12      0.40      0.00
   -3   -6   12     -1.29      0.00
   -2   -6   12     -4.35      0.00
   -1   -6   12      6.46      0.00
    0   -6   12      3.82      0.00
    1   -6   12      6.28      0.00
    2   -6   12      2.71      0.00
    3   -6   12     -0.29      0.00
    4   -6   12      0.06      0.00
    5   -6   12      2.80      0.00
    6   -6   12      1.38      0.00
    7   -6   12     -0.32      0.00
    8   -6   12     -2.44      0.00
    9   -6   12     -0.99      0.00
   10   -6   12     -0.34      0.00
   -9   -5   12     -1.52      0.00
   -8   -5   12     -1.99      0.00
   -7   -5   12      0.95      0.00
   -6   -5   12     -2.91      0.00
   -5   -5   12     -3.64      0.00
   -4   -5   12     -2.10      0.00
   -3   -5   12     -3.16      0.00
   -2   -5   12     -4.69      0.00
   -1   -5   12      3.38      0.00
    0   -5   12     -2.75      0.00
    1   -5   12      7.00      0.00
    2   -5   12      5.86      0.00
    3   -5   12      3.25      0.00
    4   -5   12      4.81      0.00
    5   -5   12      0.51      0.00
    6   -5   12      0.91      0.00
    7   -5   12     -0.16      0.00
    8   -5   12     -2.10      0.00
    9   -5   12     -0.03      0.00
   10   -5   12     -0.57      0.00
   -9   -4   12      1.97      0.00
   -8   -4   12     -0.56      0.00
   -7   -4   12      3.00      0.00
   -6   -4   12      1.29      0.00
   -5   -4   12     -1.20      0.00
   -4   -4   12      1.23      0.00
   -3   -4   12      0.73      0.00
   -2   -4   12     -4.00      0.00
   -1   -4   12     -6.77      0.00
    0   -4   12    -11.44      0.00
    1   -4   12     -4.21      0.00
    2   -4   12      0.28      0.00
    3   -4   12     -6.63      0.00
    4   -4   12      0.07      0.00
    5   -4   12     -1.87      0.00
    6   -4   12      3.63      0.00
    7   -4   12      0.94      0.00
    8   -4   12     -0.77      0.00
    9   -4   12     -0.77      0.00
   10   -4   12     -1.53      0.00
  -10   -3   12     -0.11      0.00
   -9   -3   12      2.01      0.00
   -8   -3   12      0.02      0.00
   -7   -3   12      3.17      0.00
   -6   -3   12      3.44      0.00
   -5   -3   12      1.85      0.00
   -4   -3   12      5.33      0.00
   -3   -3   12      4.79      0.00
   -2   -3   12      0.83      0.00
   -1   -3   12      1.01      0.00
    0   -3   12     -2.70      0.00
    1   -3   12     -7.75      0.00
    2   -3   12      4.56      0.00
    3   -3   12     -6.06      0.00
    4   -3   12      0.80      0.00
    5   -3   12      1.19      0.00
    6   -3   12      5.43      0.00
    7   -3   12      2.86      0.00
    8   -3   12      0.99      0.00
    9   -3   12     -0.08      0.00
   10   -3   12     -0.92      0.00
  -10   -2   12     -0.99      0.00
   -9   -2   12     -0.90      0.00
   -8   -2   12     -1.25      0.00
   -7   -2   12     -1.12      0.00
   -6   -2   12      0.02      0.00
   -5   -2   12     -0.62      0.00
   -4   -2   12     -0.99      0.00
   -3   -2   12      1.19      0.00
   -2   -2   12      4.59      0.00
   -1   -2   12      4.79      0.00
    0   -2   12     -3.26      0.00
    1   -2   12    -11.99      0.00
    2   -2   12      6.25      0.00
    3   -2   12     -3.49      0.00
    4   -2   12      0.51      0.00
    5   -2   12     -2.62      0.00
    6   -2   12      0.97      0.00
    7   -2   12      0.46      0.00
    8   -2   12      0.90      0.00
    9   -2   12     -0.15      0.00
   10   -2   12     -0.05      0.00
  -10   -1   12     -0.93      0.00
   -9   -1   12     -1.16      0.00
   -8   -1   12     -1.25      0.00
   -7   -1   12      0.34      0.00
   -6   -1   12      0.26      0.00
   -5   -1   12     -0.33      0.00
   -4   -1   12     -3.50      0.00
   -3   -1   12      1.50      0.00
   -2   -1   12      5.13      0.00
   -1   -1   12     11.75      0.00
    0   -1   12      6.47      0.00
    1   -1   12     -9.07      0.00
    2   -1   12      1.94      0.00
    3   -1   12     -5.83      0.00
    4   -1   12     -4.36      0.00
    5   -1   12     -3.22      0.00
    6   -1   12     -3.62      0.00
    7   -1   12     -1.02      0.00
    8   -1   12      0.98      0.00
    9   -1   12     -0.64      0.00
  -10    0   12      0.20      0.00
   -9    0   12      0.90      0.00
   -8    0   12     -1.91      0.00
   -7    0   12     -0.02      0.00
   -6    0   12      0.50      0.00
   -5    0   12      0.75      0.00
   -4    0   12      0.20      0.00
   -3    0   12      0.52      0.00
   -2    0   12     -1.93      0.00
   -1    0   12     20.96      0.00
    0    0   12     12.55      0.00
    1    0   12      5.66      0.00
    2    0   12      3.53      0.00
    3    0   12      2.11      0.00
    4    0   12     -0.35      0.00
    5    0   12      1.61      0.00
    6    0   12     -0.80      0.00
    7    0   12     -2.70      0.00
    8    0   12      0.35      0.00
    9    0   12     -2.57      0.00
  -10    1   12      0.23      0.00
   -9    1   12      0.83      0.00
   -8    1   12     -2.47      0.00
   -7    1   12     -1.55      0.00
   -6    1   12     -2.18      0.00
   -5    1   12     -0.69      0.00
   -4    1   12     -4.98      0.00
   -3    1   12     -7.74      0.00
   -2    1   12    -22.16      0.00
   -1    1   12      1.44      0.00
    0    1   12     -1.88      0.00
    1    1   12      7.63      0.00
    2    1   12      0.91      0.00
    3    1   12      3.81      0.00
    4    1   12      2.95      0.00
    5    1   12      4.08      0.00
    6    1   12      2.49      0.00
    7    1   12     -1.77      0.00
    8    1   12      1.17      0.00
    9    1   12      0.44      0.00
  -10    2   12     -0.48      0.00
   -9    2   12      1.20      0.00
   -8    2   12     -1.54      0.00
   -7    2   12      0.43      0.00
   -6    2   12     -0.54      0.00
   -5    2   12     -0.46      0.00
   -4    2   12     -2.88      0.00
   -3    2   12     -3.56      0.00
   -2    2   12    -18.67      0.00
   -1    2   12    -10.14      0.00
    0    2   12    -12.65      0.00
    1    2   12     -2.16      0.00
    2    2   12     -3.39      0.00
    3    2   12     -3.63      0.00
    4    2   12     -0.15      0.00
    5    2   12      0.32      0.00
    6    2   12      3.19      0.00
    7    2   12      0.14      0.00
    8    2   12      1.17      0.00
    9    2   12      0.23      0.00
  -10    3   12      0.28      0.00
   -9    3   12      2.15      0.00
   -8    3   12     -0.08      0.00
   -7    3   12      1.72      0.00
   -6    3   12      1.51      0.00
   -5    3   12      6.42      0.00
   -4    3   12      9.34      0.00
   -3    3   12     10.95      0.00
   -2    3   12      6.25      0.00
   -1    3   12     -1.22      0.00
    0    3   12     -2.16      0.00
    1    3   12      4.26      0.00
    2    3   12      0.78      0.00
    3    3   12     -1.49      0.00
    4    3   12     -0.45      0.00
    5    3   12     -1.21      0.00
    6    3   12      3.34      0.00
    7    3   12     -0.53      0.00
    8    3   12     -0.69      0.00
    9    3   12     -1.46      0.00
  -10    4   12     -0.45      0.00
   -9    4   12      1.82      0.00
   -8    4   12     -0.87      0.00
   -7    4   12      1.08      0.00
   -6    4   12      0.20      0.00
   -5    4   12      4.35      0.00
   -4    4   12      7.29      0.00
   -3    4   12      3.04      0.00
   -2    4   12     12.13      0.00
   -1    4   12      0.85      0.00
    0    4   12      1.31      0.00
    1    4   12      1.70      0.00
    2    4   12     -0.70      0.00
    3    4   12     -0.98      0.00
    4    4   12     -1.04      0.00
    5    4   12     -1.32      0.00
    6    4   12      0.04      0.00
    7    4   12      0.93      0.00
    8    4   12      0.80      0.00
  -10    5   12     -1.25      0.00
   -9    5   12      0.63      0.00
   -8    5   12     -1.91      0.00
   -7    5   12     -0.94      0.00
   -6    5   12     -3.33      0.00
   -5    5   12     -4.43      0.00
   -4    5   12      0.94      0.00
   -3    5   12     -9.68      0.00
   -2    5   12      4.32      0.00
   -1    5   12     -1.12      0.00
    0    5   12     -1.74      0.00
    1    5   12     -4.10      0.00
    2    5   12     -2.09      0.00
    3    5   12     -0.65      0.00
    4    5   12     -2.94      0.00
    5    5   12     -0.23      0.00
    6    5   12     -2.84      0.00
    7    5   12      0.07      0.00
    8    5   12      0.21      0.00
  -10    6   12     -0.32      0.00
   -9    6   12     -0.11      0.00
   -8    6   12      0.42      0.00
   -7    6   12     -3.00      0.00
   -6    6   12     -1.71      0.00
   -5    6   12     -5.50      0.00
   -4    6   12      2.07      0.00
   -3    6   12     -3.12      0.00
   -2    6   12      0.21      0.00
   -1    6   12      0.87      0.00
    0    6   12      4.29      0.00
    1    6   12      3.18      0.00
    2    6   12      0.07      0.00
    3    6   12      2.81      0.00
    4    6   12     -1.32      0.00
    5    6   12      0.51      0.00
    6    6   12     -2.18      0.00
    7    6   12     -1.88      0.00
  -10    7   12      0.07      0.00
   -9    7   12      0.46      0.00
   -8    7   12      1.88      0.00
   -7    7   12     -1.26      0.00
   -6    7   12      2.04      0.00
   -5    7   12     -1.82      0.00
   -4    7   12      1.11      0.00
   -3    7   12      0.97      0.00
   -2    7   12     -3.60      0.00
   -1    7   12     -0.16      0.00
    0    7   12      5.93      0.00
    1    7   12      4.73      0.00
    2    7   12      1.52      0.00
    3    7   12      3.59      0.00
    4    7   12      1.20      0.00
    5    7   12      3.53      0.00
    6    7   12      1.62      0.00
    7    7   12      0.42      0.00
  -10    8   12      0.94      0.00
   -9    8   12      0.06      0.00
   -8    8   12      2.57      0.00
   -7    8   12     -0.83      0.00
   -6    8   12      1.98      0.00
   -5    8   12     -0.29      0.00
   -4    8   12     -1.06      0.00
   -3    8   12      0.57      0.00
   -2    8   12     -4.36      0.00
   -1    8   12     -5.76      0.00
    0    8   12     -4.01      0.00
    1    8   12     -1.06      0.00
    2    8   12     -1.80      0.00
    3    8   12     -1.12      0.00
    4    8   12     -0.70      0.00
    5    8   12      1.50      0.00
    6    8   12     -0.08      0.00
    7    8   12     -0.53      0.00
  -10    9   12     -1.33      0.00
   -9    9   12     -0.92      0.00
   -8    9   12      0.51      0.00
   -7    9   12      0.14      0.00
   -6    9   12      0.54      0.00
   -5    9   12      1.05      0.00
   -4    9   12     -0.26      0.00
   -3    9   12      0.05      0.00
   -2    9   12     -0.66      0.00
   -1    9   12     -3.76      0.00
    0    9   12     -5.24      0.00
    1    9   12     -1.77      0.00
    2    9   12     -2.10      0.00
    3    9   12     -1.92      0.00
    4    9   12     -0.77      0.00
    5    9   12     -1.10      0.00
    6    9   12      0.73      0.00
   -9   10   12      0.77      0.00
   -8   10   12     -0.19      0.00
   -7   10   12      2.02      0.00
   -6   10   12      0.97      0.00
   -5   10   12      1.60      0.00
   -4   10   12      1.52      0.00
   -3   10   12      2.75      0.00
   -2   10   12      3.28      0.00
   -1   10   12      4.63      0.00
    0   10   12      0.39      0.00
    1   10   12      1.94      0.00
    2   10   12      0.72      0.00
    3   10   12      0.33      0.00
    4   10   12      0.52      0.00
    5   10   12     -0.48      0.00
   -9   11   12      0.48      0.00
   -8   11   12     -1.88      0.00
   -7   11   12      0.37      0.00
   -6   11   12     -0.80      0.00
   -5   11   12      0.54      0.00
   -4   11   12      2.84      0.00
   -3   11   12      1.84      0.00
   -2   11   12      2.91      0.00
   -1   11   12      3.93      0.00
    0   11   12      2.45      0.00
    1   11   12      2.04      0.00
    2   11   12      0.86      0.00
    3   11   12     -0.32      0.00
    4   11   12      0.09      0.00
    5   11   12     -0.43      0.00
   -9   12   12      0.39      0.00
   -8   12   12     -2.94      0.00
   -7   12   12     -1.51      0.00
   -6   12   12     -1.04      0.00
   -5   12   12     -1.64      0.00
   -4   12   12     -1.51      0.00
   -3   12   12     -3.85      0.00
   -2   12   12     -2.89      0.00
   -1   12   12     -0.47      0.00
    0   12   12     -1.11      0.00
    1   12   12      0.79      0.00
    2   12   12     -0.88      0.00
    3   12   12     -0.61      0.00
    4   12   12      1.00      0.00
   -8   13   12      1.70      0.00
   -7   13   12      0.78      0.00
   -6   13   12      0.33      0.00
   -5   13   12     -1.18      0.00
   -4   13   12     -2.71      0.00
   -3   13   12     -1.36      0.00
   -2   13   12     -2.24      0.00
   -1   13   12     -2.46      0.00
    0   13   12     -1.78      0.00
    1   13   12     -0.35      0.00
    2   13   12     -0.10      0.00
    3   13   12     -0.01      0.00
   -7   14   12      0.15      0.00
   -6   14   12     -0.41      0.00
   -5   14   12      2.50      0.00
   -4   14   12      1.42      0.00
   -3   14   12      0.98      0.00
   -2   14   12     -0.08      0.00
   -1   14   12      0.38      0.00
    0   14   12     -0.21      0.00
    1   14   12      0.47      0.00
    2   14   12      0.34      0.00
   -6   15   12     -0.10      0.00
   -5   15   12      1.16      0.00
   -4   15   12      1.10      0.00
   -3   15   12      0.78      0.00
   -2   15   12      0.56      0.00
   -1   15   12      0.70      0.00
    0   15   12      0.76      0.00
    1   15   12     -0.18      0.00
   -5   16   12      0.59      0.00
   -4   16   12     -0.94      0.00
   -3   16   12      1.16      0.00
   -2   16   12     -0.21      0.00
   -1   16   12     -0.42      0.00
    0  -17   13     -0.34      0.00
    1  -17   13     -0.36      0.00
    2  -17   13      0.67      0.00
    3  -17   13     -0.99      0.00
    4  -17   13      1.34      0.00
   -2  -16   13      0.23      0.00
   -1  -16   13     -0.54      0.00
    0  -16   13      0.54      0.00
    1  -16   13      0.75      0.00
    2  -16   13      1.38      0.00
    3  -16   13      0.34      0.00
    4  -16   13     -0.37      0.00
    5  -16   13     -0.46      0.00
    6  -16   13      0.01      0.00
   -3  -15   13      0.65      0.00
   -2  -15   13      0.60      0.00
   -1  -15   13      0.43      0.00
    0  -15   13      0.12      0.00
    1  -15   13     -0.98      0.00
    2  -15   13     -0.13      0.00
    3  -15   13      1.21      0.00
    4  -15   13      1.57      0.00
    5  -15   13      1.09      0.00
    6  -15   13      2.07      0.00
    7  -15   13     -1.92      0.00
   -4  -14   13     -0.32      0.00
   -3  -14   13      0.31      0.00
   -2  -14   13      0.57      0.00
   -1  -14   13     -0.48      0.00
    0  -14   13     -1.66      0.00
    1  -14   13      0.71      0.00
    2  -14   13     -0.48      0.00
    3  -14   13      0.97      0.00
    4  -14   13     -0.83      0.00
    5  -14   13     -0.22      0.00
    6  -14   13      0.91      0.00
    7  -14   13      1.08      0.00
   -5  -13   13      0.88      0.00
   -4  -13   13     -0.57      0.00
   -3  -13   13     -1.58      0.00
   -2  -13   13      0.13      0.00
   -1  -13   13     -1.08      0.00
    0  -13   13     -0.75      0.00
    1  -13   13     -1.03      0.00
    2  -13   13     -1.13      0.00
    3  -13   13     -0.76      0.00
    4  -13   13     -1.76      0.00
    5  -13   13     -0.73      0.00
    6  -13   13     -1.17      0.00
    7  -13   13      1.10      0.00
    8  -13   13      1.49      0.00
   -5  -12   13      2.34      0.00
   -4  -12   13      0.32      0.00
   -3  -12   13      0.74      0.00
   -2  -12   13      1.79      0.00
   -1  -12   13      1.33      0.00
    0  -12   13      0.20      0.00
    1  -12   13     -1.28      0.00
    2  -12   13     -1.72      0.00
    3  -12   13      0.97      0.00
    4  -12   13     -0.17      0.00
    5  -12   13     -1.22      0.00
    6  -12   13     -2.49      0.00
    7  -12   13     -1.68      0.00
    8  -12   13      3.83      0.00
   -6  -11   13     -1.98      0.00
   -5  -11   13      0.02      0.00
   -4  -11   13      1.15      0.00
   -3  -11   13      0.18      0.00
   -2  -11   13      0.43      0.00
   -1  -11   13      0.36      0.00
    0  -11   13      0.94      0.00
    1  -11   13      1.75      0.00
    2  -11   13      1.36      0.00
    3  -11   13      0.78      0.00
    4  -11   13      1.44      0.00
    5  -11   13      0.26      0.00
    6  -11   13      0.10      0.00
    7  -11   13     -2.22      0.00
    8  -11   13      0.23      0.00
    9  -11   13      0.85      0.00
   -7  -10   13     -1.31      0.00
   -6  -10   13     -2.06      0.00
   -5  -10   13     -1.21      0.00
   -4  -10   13     -1.07      0.00
   -3  -10   13     -3.02      0.00
   -2  -10   13     -0.63      0.00
   -1  -10   13     -0.52      0.00
    0  -10   13      0.80      0.00
    1  -10   13     -0.22      0.00
    2  -10   13      1.13      0.00
    3  -10   13     -1.08      0.00
    4  -10   13      1.84      0.00
    5  -10   13      1.57      0.00
    6  -10   13      0.98      0.00
    7  -10   13     -3.62      0.00
    8  -10   13     -3.76      0.00
    9  -10   13     -0.44      0.00
   -7   -9   13     -0.10      0.00
   -6   -9   13      0.23      0.00
   -5   -9   13     -0.08      0.00
   -4   -9   13      0.91      0.00
   -3   -9   13     -2.10      0.00
   -2   -9   13      0.94      0.00
   -1   -9   13     -1.34      0.00
    0   -9   13     -1.72      0.00
    1   -9   13      0.36      0.00
    2   -9   13     -1.39      0.00
    3   -9   13     -2.04      0.00
    4   -9   13      1.00      0.00
    5   -9   13      1.22      0.00
    6   -9   13      1.59      0.00
    7   -9   13      0.11      0.00
    8   -9   13     -1.39      0.00
    9   -9   13      0.41      0.00
   -8   -8   13      1.32      0.00
   -7   -8   13      1.02      0.00
   -6   -8   13      1.29      0.00
   -5   -8   13     -1.23      0.00
   -4   -8   13      5.66      0.00
   -3   -8   13     -1.23      0.00
   -2   -8   13      1.65      0.00
   -1   -8   13      0.73      0.00
    0   -8   13     -0.55      0.00
    1   -8   13      1.93      0.00
    2   -8   13      0.12      0.00
    3   -8   13      1.43      0.00
    4   -8   13     -0.28      0.00
    5   -8   13      0.82      0.00
    6   -8   13      2.04      0.00
    7   -8   13      1.82      0.00
    8   -8   13     -0.28      0.00
    9   -8   13      1.85      0.00
   -8   -7   13      0.14      0.00
   -7   -7   13      1.10      0.00
   -6   -7   13     -0.13      0.00
   -5   -7   13     -2.25      0.00
   -4   -7   13      4.80      0.00
   -3   -7   13     -1.91      0.00
   -2   -7   13      2.73      0.00
   -1   -7   13      0.26      0.00
    0   -7   13     -4.93      0.00
    1   -7   13     -0.91      0.00
    2   -7   13     -1.54      0.00
    3   -7   13     -3.17      0.00
    4   -7   13     -2.96      0.00
    5   -7   13      0.27      0.00
    6   -7   13     -0.57      0.00
    7   -7   13      0.00      0.00
    8   -7   13     -1.21      0.00
    9   -7   13     -0.85      0.00
   -9   -6   13      0.59      0.00
   -8   -6   13     -0.56      0.00
   -7   -6   13      0.36      0.00
   -6   -6   13      1.29      0.00
   -5   -6   13     -1.77      0.00
   -4   -6   13      3.34      0.00
   -3   -6   13     -1.36      0.00
   -2   -6   13      2.92      0.00
   -1   -6   13      2.24      0.00
    0   -6   13     -1.71      0.00
    1   -6   13      1.58      0.00
    2   -6   13     -0.55      0.00
    3   -6   13     -2.66      0.00
    4   -6   13     -1.73      0.00
    5   -6   13     -0.35      0.00
    6   -6   13      0.06      0.00
    7   -6   13     -1.93      0.00
    8   -6   13     -0.71      0.00
    9   -6   13     -1.27      0.00
   10   -6   13      0.37      0.00
   -9   -5   13     -1.63      0.00
   -8   -5   13     -0.98      0.00
   -7   -5   13     -0.96      0.00
   -6   -5   13     -1.64      0.00
   -5   -5   13     -5.63      0.00
   -4   -5   13     -0.12      0.00
   -3   -5   13     -4.26      0.00
   -2   -5   13      0.57      0.00
   -1   -5   13      4.73      0.00
    0   -5   13      3.89      0.00
    1   -5   13      3.31      0.00
    2   -5   13      3.42      0.00
    3   -5   13      4.84      0.00
    4   -5   13      0.03      0.00
    5   -5   13      2.22      0.00
    6   -5   13      0.69      0.00
    7   -5   13     -2.13      0.00
    8   -5   13     -0.49      0.00
    9   -5   13     -1.85      0.00
   10   -5   13     -0.41      0.00
   -9   -4   13     -1.01      0.00
   -8   -4   13     -0.49      0.00
   -7   -4   13      1.59      0.00
   -6   -4   13     -1.84      0.00
   -5   -4   13     -3.07      0.00
   -4   -4   13      0.01      0.00
   -3   -4   13     -4.26      0.00
   -2   -4   13     -2.90      0.00
   -1   -4   13      1.53      0.00
    0   -4   13     -4.21      0.00
    1   -4   13      2.82      0.00
    2   -4   13     -0.69      0.00
    3   -4   13      2.71      0.00
    4   -4   13      0.58      0.00
    5   -4   13      1.48      0.00
    6   -4   13      1.41      0.00
    7   -4   13     -2.03      0.00
    8   -4   13     -0.03      0.00
    9   -4   13     -1.47      0.00
   10   -4   13      0.71      0.00
   -9   -3   13      0.41      0.00
   -8   -3   13      0.34      0.00
   -7   -3   13      3.42      0.00
   -6   -3   13      2.58      0.00
   -5   -3   13      2.63      0.00
   -4   -3   13      2.49      0.00
   -3   -3   13     -0.18      0.00
   -2   -3   13     -3.43      0.00
   -1   -3   13     -2.42      0.00
    0   -3   13     -8.99      0.00
    1   -3   13      3.39      0.00
    2   -3   13     -3.13      0.00
    3   -3   13     -3.37      0.00
    4   -3   13      1.20      0.00
    5   -3   13      1.61      0.00
    6   -3   13      4.85      0.00
    7   -3   13     -0.65      0.00
    8   -3   13      1.53      0.00
    9   -3   13     -2.26      0.00
  -10   -2   13      0.85      0.00
   -9   -2   13     -0.50      0.00
   -8   -2   13     -0.27      0.00
   -7   -2   13      1.22      0.00
   -6   -2   13      1.11      0.00
   -5   -2   13     -0.18      0.00
   -4   -2   13      2.77      0.00
   -3   -2   13      2.46      0.00
   -2   -2   13     -0.37      0.00
   -1   -2   13      1.13      0.00
    0   -2   13     -8.97      0.00
    1   -2   13      1.16      0.00
    2   -2   13      3.53      0.00
    3   -2   13     -2.46      0.00
    4   -2   13      1.79      0.00
    5   -2   13      1.50      0.00
    6   -2   13      4.80      0.00
    7   -2   13      0.72      0.00
    8   -2   13      1.52      0.00
    9   -2   13      0.01      0.00
  -10   -1   13      0.29      0.00
   -9   -1   13     -2.17      0.00
   -8   -1   13     -0.41      0.00
   -7   -1   13     -0.07      0.00
   -6   -1   13     -0.39      0.00
   -5   -1   13     -1.74      0.00
   -4   -1   13      0.51      0.00
   -3   -1   13      0.53      0.00
   -2   -1   13      4.40      0.00
   -1   -1   13      3.71      0.00
    0   -1   13    -12.40      0.00
    1   -1   13     -8.36      0.00
    2   -1   13      1.93      0.00
    3   -1   13     -6.13      0.00
    4   -1   13     -2.24      0.00
    5   -1   13     -3.90      0.00
    6   -1   13     -0.69      0.00
    7   -1   13      0.15      0.00
    8   -1   13      0.69      0.00
    9   -1   13     -0.42      0.00
  -10    0   13      0.12      0.00
   -9    0   13     -0.28      0.00
   -8    0   13     -1.03      0.00
   -7    0   13      1.22      0.00
   -6    0   13      1.90      0.00
   -5    0   13      2.91      0.00
   -4    0   13     -0.18      0.00
   -3    0   13      1.75      0.00
   -2    0   13     12.35      0.00
   -1    0   13     16.67      0.00
    0    0   13      5.53      0.00
    1    0   13     -3.99      0.00
    2    0   13      3.52      0.00
    3    0   13     -5.72      0.00
    4    0   13     -2.13      0.00
    5    0   13     -1.90      0.00
    6    0   13     -3.66      0.00
    7    0   13     -0.24      0.00
    8    0   13     -1.10      0.00
    9    0   13     -1.40      0.00
  -10    1   13     -0.69      0.00
   -9    1   13      0.60      0.00
   -8    1   13     -1.97      0.00
   -7    1   13     -1.56      0.00
   -6    1   13     -0.84      0.00
   -5    1   13      0.48      0.00
   -4    1   13     -2.46      0.00
   -3    1   13     -6.78      0.00
   -2    1   13     -1.25      0.00
   -1    1   13     14.28      0.00
    0    1   13      7.50      0.00
    1    1   13      2.41      0.00
    2    1   13      5.96      0.00
    3    1   13      2.91      0.00
    4    1   13      2.15      0.00
    5    1   13      3.05      0.00
    6    1   13     -2.43      0.00
    7    1   13     -0.72      0.00
    8    1   13      0.28      0.00
    9    1   13     -0.84      0.00
  -10    2   13     -0.50      0.00
   -9    2   13     -0.34      0.00
   -8    2   13     -1.43      0.00
   -7    2   13     -1.62      0.00
   -6    2   13     -3.41      0.00
   -5    2   13     -0.92      0.00
   -4    2   13     -6.60      0.00
   -3    2   13    -12.81      0.00
   -2    2   13    -21.76      0.00
   -1    2   13     -0.53      0.00
    0    2   13     -3.93      0.00
    1    2   13      1.02      0.00
    2    2   13     -1.39      0.00
    3    2   13      2.26      0.00
    4    2   13      0.82      0.00
    5    2   13      4.81      0.00
    6    2   13     -1.05      0.00
    7    2   13      0.11      0.00
    8    2   13      0.73      0.00
    9    2   13      0.99      0.00
  -10    3   13     -0.13      0.00
   -9    3   13      1.57      0.00
   -8    3   13      0.54      0.00
   -7    3   13      1.09      0.00
   -6    3   13      0.35      0.00
   -5    3   13      3.24      0.00
   -4    3   13      1.60      0.00
   -3    3   13      4.28      0.00
   -2    3   13    -14.41      0.00
   -1    3   13      0.97      0.00
    0    3   13     -3.64      0.00
    1    3   13     -0.43      0.00
    2    3   13     -2.03      0.00
    3    3   13     -2.55      0.00
    4    3   13     -1.18      0.00
    5    3   13      2.54      0.00
    6    3   13      2.20      0.00
    7    3   13     -0.73      0.00
    8    3   13      0.07      0.00
  -10    4   13     -0.26      0.00
   -9    4   13      1.51      0.00
   -8    4   13      0.18      0.00
   -7    4   13      1.22      0.00
   -6    4   13      2.29      0.00
   -5    4   13      8.15      0.00
   -4    4   13      6.34      0.00
   -3    4   13     14.91      0.00
   -2    4   13     -2.70      0.00
   -1    4   13      1.27      0.00
    0    4   13      0.45      0.00
    1    4   13      5.04      0.00
    2    4   13      1.64      0.00
    3    4   13      0.14      0.00
    4    4   13      0.31      0.00
    5    4   13     -0.34      0.00
    6    4   13      4.29      0.00
    7    4   13     -0.78      0.00
    8    4   13     -0.29      0.00
  -10    5   13     -0.47      0.00
   -9    5   13      0.92      0.00
   -8    5   13     -1.55      0.00
   -7    5   13      0.25      0.00
   -6    5   13     -0.07      0.00
   -5    5   13      2.01      0.00
   -4    5   13     -2.41      0.00
   -3    5   13      4.37      0.00
   -2    5   13      0.53      0.00
   -1    5   13     -1.73      0.00
    0    5   13     -2.91      0.00
    1    5   13     -1.09      0.00
    2    5   13     -3.31      0.00
    3    5   13     -1.50      0.00
    4    5   13     -1.21      0.00
    5    5   13     -2.87      0.00
    6    5   13      0.95      0.00
    7    5   13     -0.44      0.00
    8    5   13      1.29      0.00
  -10    6   13     -1.16      0.00
   -9    6   13      1.42      0.00
   -8    6   13     -1.86      0.00
   -7    6   13     -0.26      0.00
   -6    6   13     -3.97      0.00
   -5    6   13     -2.69      0.00
   -4    6   13     -2.63      0.00
   -3    6   13     -1.76      0.00
   -2    6   13      3.68      0.00
   -1    6   13      1.07      0.00
    0    6   13     -1.27      0.00
    1    6   13     -2.95      0.00
    2    6   13     -1.19      0.00
    3    6   13     -0.95      0.00
    4    6   13     -2.42      0.00
    5    6   13     -2.77      0.00
    6    6   13     -2.40      0.00
    7    6   13     -0.85      0.00
  -10    7   13     -0.28      0.00
   -9    7   13      1.52      0.00
   -8    7   13     -1.53      0.00
   -7    7   13     -1.19      0.00
   -6    7   13     -1.86      0.00
   -5    7   13      0.29      0.00
   -4    7   13      1.39      0.00
   -3    7   13     -1.76      0.00
   -2    7   13      1.69      0.00
   -1    7   13      2.82      0.00
    0    7   13      6.44      0.00
    1    7   13      3.37      0.00
    2    7   13      1.83      0.00
    3    7   13      2.44      0.00
    4    7   13      1.03      0.00
    5    7   13      1.37      0.00
    6    7   13     -0.21      0.00
    7    7   13      0.15      0.00
  -10    8   13      0.42      0.00
   -9    8   13      1.65      0.00
   -8    8   13     -0.52      0.00
   -7    8   13     -0.06      0.00
   -6    8   13      0.92      0.00
   -5    8   13     -0.47      0.00
   -4    8   13     -1.45      0.00
   -3    8   13     -2.59      0.00
   -2    8   13     -2.82      0.00
   -1    8   13     -1.15      0.00
    0    8   13      4.26      0.00
    1    8   13      1.63      0.00
    2    8   13      0.46      0.00
    3    8   13      2.77      0.00
    4    8   13      1.41      0.00
    5    8   13      2.49      0.00
    6    8   13     -0.12      0.00
  -10    9   13      0.31      0.00
   -9    9   13     -0.03      0.00
   -8    9   13      2.92      0.00
   -7    9   13     -1.65      0.00
   -6    9   13      1.09      0.00
   -5    9   13      0.18      0.00
   -4    9   13     -0.93      0.00
   -3    9   13     -1.54      0.00
   -2    9   13     -3.95      0.00
   -1    9   13     -6.39      0.00
    0    9   13     -2.95      0.00
    1    9   13     -3.04      0.00
    2    9   13     -2.85      0.00
    3    9   13     -1.42      0.00
    4    9   13     -1.40      0.00
    5    9   13      0.34      0.00
    6    9   13     -1.30      0.00
   -9   10   13     -0.09      0.00
   -8   10   13      2.35      0.00
   -7   10   13     -0.25      0.00
   -6   10   13      0.67      0.00
   -5   10   13      1.89      0.00
   -4   10   13      1.72      0.00
   -3   10   13      0.31      0.00
   -2   10   13      0.95      0.00
   -1   10   13     -2.24      0.00
    0   10   13     -0.04      0.00
    1   10   13     -0.17      0.00
    2   10   13     -0.89      0.00
    3   10   13     -0.53      0.00
    4   10   13      0.39      0.00
    5   10   13      0.05      0.00
   -9   11   13     -0.32      0.00
   -8   11   13      0.85      0.00
   -7   11   13      0.54      0.00
   -6   11   13     -0.02      0.00
   -5   11   13      1.61      0.00
   -4   11   13      2.18      0.00
   -3   11   13      2.97      0.00
   -2   11   13      4.22      0.00
   -1   11   13      2.45      0.00
    0   11   13      2.25      0.00
    1   11   13      2.62      0.00
    2   11   13     -0.09      0.00
    3   11   13      1.11      0.00
    4   11   13      0.59      0.00
    5   11   13     -0.80      0.00
   -9   12   13     -1.12      0.00
   -8   12   13     -1.53      0.00
   -7   12   13     -0.51      0.00
   -6   12   13     -0.95      0.00
   -5   12   13     -0.34      0.00
   -4   12   13      0.66      0.00
   -3   12   13     -0.14      0.00
   -2   12   13      1.47      0.00
   -1   12   13      0.16      0.00
    0   12   13      1.41      0.00
    1   12   13      0.87      0.00
    2   12   13     -1.26      0.00
    3   12   13     -0.02      0.00
    4   12   13     -0.03      0.00
   -8   13   13     -0.76      0.00
   -7   13   13      1.41      0.00
   -6   13   13     -1.25      0.00
   -5   13   13     -3.03      0.00
   -4   13   13     -1.51      0.00
   -3   13   13     -3.35      0.00
   -2   13   13     -1.58      0.00
   -1   13   13     -1.77      0.00
    0   13   13     -1.10      0.00
    1   13   13      0.26      0.00
    2   13   13     -1.51      0.00
    3   13   13     -0.56      0.00
   -7   14   13      0.91      0.00
   -6   14   13      0.11      0.00
   -5   14   13     -0.05      0.00
   -4   14   13     -0.22      0.00
   -3   14   13     -0.42      0.00
   -2   14   13     -0.97      0.00
   -1   14   13     -1.67      0.00
    0   14   13     -0.50      0.00
    1   14   13      0.72      0.00
    2   14   13     -0.14      0.00
   -6   15   13      0.53      0.00
   -5   15   13      0.85      0.00
   -4   15   13      1.16      0.00
   -3   15   13      0.84      0.00
   -2   15   13      0.28      0.00
   -1   15   13      1.06      0.00
    0   15   13      0.53      0.00
   -4   16   13      0.53      0.00
   -3   16   13      0.47      0.00
   -2   16   13      0.50      0.00
    1  -17   14     -0.39      0.00
    2  -17   14      0.57      0.00
    3  -17   14     -0.98      0.00
    4  -17   14      0.15      0.00
   -1  -16   14     -0.15      0.00
    0  -16   14     -1.15      0.00
    1  -16   14     -0.81      0.00
    2  -16   14      1.30      0.00
    3  -16   14     -2.12      0.00
    4  -16   14      0.69      0.00
    5  -16   14     -0.79      0.00
   -3  -15   14      0.57      0.00
   -2  -15   14      0.52      0.00
   -1  -15   14     -0.24      0.00
    0  -15   14      0.43      0.00
    1  -15   14      0.35      0.00
    2  -15   14      2.53      0.00
    3  -15   14      0.04      0.00
    4  -15   14      1.36      0.00
    5  -15   14      0.58      0.00
    6  -15   14     -1.17      0.00
   -4  -14   14     -0.55      0.00
   -3  -14   14      0.28      0.00
   -2  -14   14      0.67      0.00
   -1  -14   14      0.05      0.00
    0  -14   14      0.54      0.00
    1  -14   14      0.08      0.00
    2  -14   14      1.69      0.00
    3  -14   14     -0.49      0.00
    4  -14   14      2.83      0.00
    5  -14   14      1.15      0.00
    6  -14   14      2.17      0.00
    7  -14   14     -0.38      0.00
   -5  -13   14      0.05      0.00
   -4  -13   14      0.43      0.00
   -3  -13   14     -0.33      0.00
   -2  -13   14     -0.47      0.00
   -1  -13   14     -0.43      0.00
    0  -13   14     -1.56      0.00
    1  -13   14      0.78      0.00
    2  -13   14     -0.20      0.00
    3  -13   14     -1.05      0.00
    4  -13   14     -1.27      0.00
    5  -13   14     -1.16      0.00
    6  -13   14      1.01      0.00
    7  -13   14      0.75      0.00
    8  -13   14     -0.46      0.00
   -5  -12   14     -0.22      0.00
   -4  -12   14      0.47      0.00
   -3  -12   14     -1.02      0.00
   -2  -12   14      0.56      0.00
   -1  -12   14     -0.05      0.00
    0  -12   14     -2.15      0.00
    1  -12   14     -2.79      0.00
    2  -12   14     -1.71      0.00
    3  -12   14     -0.05      0.00
    4  -12   14     -0.77      0.00
    5  -12   14     -1.22      0.00
    6  -12   14     -2.21      0.00
    7  -12   14      0.52      0.00
    8  -12   14      2.74      0.00
   -6  -11   14      0.36      0.00
   -5  -11   14      0.98      0.00
   -4  -11   14      1.44      0.00
   -3  -11   14      0.63      0.00
   -2  -11   14      0.79      0.00
   -1  -11   14      0.26      0.00
    0  -11   14      0.10      0.00
    1  -11   14     -0.01      0.00
    2  -11   14     -0.85      0.00
    3  -11   14      2.56      0.00
    4  -11   14      0.34      0.00
    5  -11   14     -1.18      0.00
    6  -11   14     -1.31      0.00
    7  -11   14     -1.40      0.00
    8  -11   14      2.75      0.00
    9  -11   14      2.32      0.00
   -7  -10   14     -1.20      0.00
   -6  -10   14     -1.72      0.00
   -5  -10   14     -1.29      0.00
   -4  -10   14      0.66      0.00
   -3  -10   14     -0.29      0.00
   -2  -10   14     -0.65      0.00
   -1  -10   14      0.24      0.00
    0  -10   14      2.03      0.00
    1  -10   14      1.87      0.00
    2  -10   14     -0.92      0.00
    3  -10   14      0.24      0.00
    4  -10   14      1.43      0.00
    5  -10   14      0.83      0.00
    6  -10   14     -0.18      0.00
    7  -10   14     -3.99      0.00
    8  -10   14     -1.61      0.00
    9  -10   14      0.57      0.00
   -7   -9   14     -0.08      0.00
   -6   -9   14     -1.83      0.00
   -5   -9   14     -0.38      0.00
   -4   -9   14     -1.63      0.00
   -3   -9   14     -1.86      0.00
   -2   -9   14     -0.49      0.00
   -1   -9   14      1.24      0.00
    0   -9   14      1.49      0.00
    1   -9   14     -0.92      0.00
    2   -9   14     -2.10      0.00
    3   -9   14     -0.33      0.00
    4   -9   14      2.19      0.00
    5   -9   14      2.52      0.00
    6   -9   14      0.62      0.00
    7   -9   14     -3.09      0.00
    8   -9   14     -3.46      0.00
    9   -9   14      0.47      0.00
   -8   -8   14      1.10      0.00
   -7   -8   14      1.18      0.00
   -6   -8   14     -1.08      0.00
   -5   -8   14      2.23      0.00
   -4   -8   14      0.24      0.00
   -3   -8   14     -0.53      0.00
   -2   -8   14      0.70      0.00
   -1   -8   14     -1.03      0.00
    0   -8   14     -0.79      0.00
    1   -8   14      3.85      0.00
    2   -8   14     -0.63      0.00
    3   -8   14     -0.73      0.00
    4   -8   14      2.11      0.00
    5   -8   14      0.74      0.00
    6   -8   14      3.52      0.00
    7   -8   14      1.45      0.00
    8   -8   14     -1.42      0.00
    9   -8   14      1.51      0.00
   -8   -7   14      0.62      0.00
   -7   -7   14      1.29      0.00
   -6   -7   14     -0.28      0.00
   -5   -7   14      1.13      0.00
   -4   -7   14      3.32      0.00
   -3   -7   14      0.42      0.00
   -2   -7   14     -0.79      0.00
   -1   -7   14     -2.52      0.00
    0   -7   14     -1.38      0.00
    1   -7   14      3.07      0.00
    2   -7   14     -2.03      0.00
    3   -7   14     -0.55      0.00
    4   -7   14      0.62      0.00
    5   -7   14     -1.59      0.00
    6   -7   14      2.83      0.00
    7   -7   14      1.28      0.00
    8   -7   14     -2.29      0.00
    9   -7   14      0.75      0.00
   -8   -6   14      0.23      0.00
   -7   -6   14      2.56      0.00
   -6   -6   14     -2.14      0.00
   -5   -6   14      0.83      0.00
   -4   -6   14      3.00      0.00
   -3   -6   14     -0.16      0.00
   -2   -6   14      1.99      0.00
   -1   -6   14     -2.14      0.00
    0   -6   14     -5.35      0.00
    1   -6   14      0.55      0.00
    2   -6   14     -1.91      0.00
    3   -6   14     -4.62      0.00
    4   -6   14     -3.13      0.00
    5   -6   14     -1.38      0.00
    6   -6   14      0.09      0.00
    7   -6   14      0.39      0.00
    8   -6   14     -1.42      0.00
    9   -6   14     -0.83      0.00
   -9   -5   14     -0.26      0.00
   -8   -5   14     -0.75      0.00
   -7   -5   14      0.16      0.00
   -6   -5   14     -1.22      0.00
   -5   -5   14     -0.61      0.00
   -4   -5   14     -0.12      0.00
   -3   -5   14     -0.06      0.00
   -2   -5   14      5.09      0.00
   -1   -5   14      1.74      0.00
    0   -5   14     -1.67      0.00
    1   -5   14      2.63      0.00
    2   -5   14      2.93      0.00
    3   -5   14     -0.23      0.00
    4   -5   14     -0.18      0.00
    5   -5   14     -2.53      0.00
    6   -5   14      0.34      0.00
    7   -5   14     -1.76      0.00
    8   -5   14      0.29      0.00
    9   -5   14     -1.78      0.00
   -9   -4   14     -2.01      0.00
   -8   -4   14     -0.40      0.00
   -7   -4   14     -1.93      0.00
   -6   -4   14     -2.30      0.00
   -5   -4   14     -5.15      0.00
   -4   -4   14     -2.42      0.00
   -3   -4   14     -1.55      0.00
   -2   -4   14      2.75      0.00
   -1   -4   14      1.93      0.00
    0   -4   14      0.97      0.00
    1   -4   14     -2.41      0.00
    2   -4   14      5.09      0.00
    3   -4   14      4.92      0.00
    4   -4   14      0.27      0.00
    5   -4   14     -0.04      0.00
    6   -4   14      0.06      0.00
    7   -4   14     -3.82      0.00
    8   -4   14      0.47      0.00
    9   -4   14     -2.94      0.00
   -9   -3   14     -1.34      0.00
   -8   -3   14      1.89      0.00
   -7   -3   14      1.95      0.00
   -6   -3   14      1.21      0.00
   -5   -3   14     -0.41      0.00
   -4   -3   14      0.07      0.00
   -3   -3   14     -2.55      0.00
   -2   -3   14     -1.44      0.00
   -1   -3   14      1.05      0.00
    0   -3   14      0.68      0.00
    1   -3   14      0.26      0.00
    2   -3   14     -1.20      0.00
    3   -3   14      2.48      0.00
    4   -3   14      0.96      0.00
    5   -3   14      1.59      0.00
    6   -3   14      2.16      0.00
    7   -3   14     -1.71      0.00
    8   -3   14      2.32      0.00
    9   -3   14     -2.24      0.00
  -10   -2   14      0.37      0.00
   -9   -2   14     -0.46      0.00
   -8   -2   14      0.91      0.00
   -7   -2   14      1.79      0.00
   -6   -2   14      2.60      0.00
   -5   -2   14      2.27      0.00
   -4   -2   14     -0.92      0.00
   -3   -2   14     -1.76      0.00
   -2   -2   14     -3.04      0.00
   -1   -2   14     -0.96      0.00
    0   -2   14     -3.82      0.00
    1   -2   14      4.86      0.00
    2   -2   14     -3.75      0.00
    3   -2   14      1.17      0.00
    4   -2   14      3.50      0.00
    5   -2   14      2.67      0.00
    6   -2   14      4.41      0.00
    7   -2   14     -2.18      0.00
    8   -2   14      2.67      0.00
    9   -2   14     -2.13      0.00
  -10   -1   14      0.54      0.00
   -9   -1   14     -1.34      0.00
   -8   -1   14     -0.14      0.00
   -7   -1   14      0.41      0.00
   -6   -1   14      0.15      0.00
   -5   -1   14     -2.11      0.00
   -4   -1   14      0.36      0.00
   -3   -1   14      1.46      0.00
   -2   -1   14     -0.65      0.00
   -1   -1   14     -4.63      0.00
    0   -1   14    -13.77      0.00
    1   -1   14      2.87      0.00
    2   -1   14     -1.83      0.00
    3   -1   14     -2.63      0.00
    4   -1   14      1.31      0.00
    5   -1   14     -0.17      0.00
    6   -1   14      3.02      0.00
    7   -1   14     -0.89      0.00
    8   -1   14      0.96      0.00
    9   -1   14      0.09      0.00
  -10    0   14      1.11      0.00
   -9    0   14     -1.72      0.00
   -8    0   14     -0.68      0.00
   -7    0   14      1.53      0.00
   -6    0   14      2.61      0.00
   -5    0   14      0.80      0.00
   -4    0   14      4.18      0.00
   -3    0   14      1.80      0.00
   -2    0   14      8.64      0.00
   -1    0   14      4.17      0.00
    0    0   14     -9.81      0.00
    1    0   14      0.16      0.00
    2    0   14     -3.79      0.00
    3    0   14     -6.77      0.00
    4    0   14     -2.52      0.00
    5    0   14     -5.00      0.00
    6    0   14     -0.43      0.00
    7    0   14      0.32      0.00
    8    0   14      0.11      0.00
    9    0   14     -0.24      0.00
  -10    1   14      0.27      0.00
   -9    1   14      0.00      0.00
   -8    1   14     -1.84      0.00
   -7    1   14      0.48      0.00
   -6    1   14      2.88      0.00
   -5    1   14      0.85      0.00
   -4    1   14      0.06      0.00
   -3    1   14     -1.51      0.00
   -2    1   14     15.42      0.00
   -1    1   14     13.27      0.00
    0    1   14      3.68      0.00
    1    1   14      3.68      0.00
    2    1   14      3.42      0.00
    3    1   14     -2.65      0.00
    4    1   14      1.45      0.00
    5    1   14     -1.96      0.00
    6    1   14     -1.89      0.00
    7    1   14      0.20      0.00
    8    1   14     -2.02      0.00
    9    1   14     -0.65      0.00
  -10    2   14     -0.48      0.00
   -9    2   14      0.11      0.00
   -8    2   14     -1.74      0.00
   -7    2   14     -3.68      0.00
   -6    2   14     -1.03      0.00
   -5    2   14     -4.28      0.00
   -4    2   14     -4.79      0.00
   -3    2   14    -14.89      0.00
   -2    2   14      0.92      0.00
   -1    2   14      4.04      0.00
    0    2   14      0.35      0.00
    1    2   14     -0.62      0.00
    2    2   14      3.62      0.00
    3    2   14      0.51      0.00
    4    2   14      4.16      0.00
    5    2   14      0.82      0.00
    6    2   14     -3.26      0.00
    7    2   14      0.12      0.00
    8    2   14     -0.36      0.00
  -10    3   14      0.49      0.00
   -9    3   14     -0.02      0.00
   -8    3   14      0.36      0.00
   -7    3   14     -2.88      0.00
   -6    3   14      0.06      0.00
   -5    3   14     -0.78      0.00
   -4    3   14     -0.97      0.00
   -3    3   14    -14.07      0.00
   -2    3   14     -9.77      0.00
   -1    3   14     -0.40      0.00
    0    3   14     -1.08      0.00
    1    3   14     -0.88      0.00
    2    3   14     -0.93      0.00
    3    3   14      0.48      0.00
    4    3   14      0.36      0.00
    5    3   14      4.46      0.00
    6    3   14     -1.95      0.00
    7    3   14      1.40      0.00
    8    3   14      0.29      0.00
  -10    4   14      0.29      0.00
   -9    4   14      1.27      0.00
   -8    4   14      2.69      0.00
   -7    4   14     -0.13      0.00
   -6    4   14      4.13      0.00
   -5    4   14      3.59      0.00
   -4    4   14      8.19      0.00
   -3    4   14      3.18      0.00
   -2    4   14     -7.62      0.00
   -1    4   14      4.77      0.00
    0    4   14      3.84      0.00
    1    4   14      0.56      0.00
    2    4   14      1.24      0.00
    3    4   14      0.04      0.00
    4    4   14     -1.37      0.00
    5    4   14      4.81      0.00
    6    4   14      0.81      0.00
    7    4   14     -0.40      0.00
    8    4   14      0.49      0.00
  -10    5   14     -0.05      0.00
   -9    5   14     -0.02      0.00
   -8    5   14      1.29      0.00
   -7    5   14     -0.45      0.00
   -6    5   14      2.56      0.00
   -5    5   14      3.43      0.00
   -4    5   14      4.03      0.00
   -3    5   14      7.86      0.00
   -2    5   14     -7.91      0.00
   -1    5   14      0.14      0.00
    0    5   14      0.07      0.00
    1    5   14      0.34      0.00
    2    5   14     -0.44      0.00
    3    5   14      0.56      0.00
    4    5   14     -1.09      0.00
    5    5   14      0.99      0.00
    6    5   14      2.51      0.00
    7    5   14     -0.40      0.00
    8    5   14     -0.09      0.00
  -10    6   14      0.29      0.00
   -9    6   14      0.16      0.00
   -8    6   14     -0.28      0.00
   -7    6   14     -1.45      0.00
   -6    6   14     -0.68      0.00
   -5    6   14     -2.17      0.00
   -4    6   14     -3.79      0.00
   -3    6   14      5.75      0.00
   -2    6   14     -3.21      0.00
   -1    6   14     -1.50      0.00
    0    6   14     -4.49      0.00
    1    6   14     -2.53      0.00
    2    6   14     -4.71      0.00
    3    6   14     -2.22      0.00
    4    6   14     -2.39      0.00
    5    6   14     -3.34      0.00
    6    6   14     -0.29      0.00
    7    6   14     -1.63      0.00
  -10    7   14      0.10      0.00
   -9    7   14      0.83      0.00
   -8    7   14     -1.92      0.00
   -7    7   14     -0.27      0.00
   -6    7   14     -2.64      0.00
   -5    7   14     -0.91      0.00
   -4    7   14     -1.46      0.00
   -3    7   14      3.93      0.00
   -2    7   14      1.14      0.00
   -1    7   14      4.48      0.00
    0    7   14     -0.11      0.00
    1    7   14      0.81      0.00
    2    7   14      0.73      0.00
    3    7   14     -0.20      0.00
    4    7   14      0.35      0.00
    5    7   14     -2.46      0.00
    6    7   14     -0.77      0.00
    7    7   14      0.85      0.00
  -10    8   14     -0.14      0.00
   -9    8   14      1.28      0.00
   -8    8   14     -2.70      0.00
   -7    8   14      1.49      0.00
   -6    8   14     -1.07      0.00
   -5    8   14      1.22      0.00
   -4    8   14     -1.08      0.00
   -3    8   14     -0.32      0.00
   -2    8   14      0.60      0.00
   -1    8   14      5.48      0.00
    0    8   14      4.08      0.00
    1    8   14      3.50      0.00
    2    8   14      2.84      0.00
    3    8   14      0.58      0.00
    4    8   14      2.82      0.00
    5    8   14      0.84      0.00
    6    8   14      0.66      0.00
   -9    9   14      2.42      0.00
   -8    9   14     -2.20      0.00
   -7    9   14      1.31      0.00
   -6    9   14      0.15      0.00
   -5    9   14     -0.98      0.00
   -4    9   14     -3.06      0.00
   -3    9   14     -2.90      0.00
   -2    9   14     -3.16      0.00
   -1    9   14     -0.71      0.00
    0    9   14     -0.57      0.00
    1    9   14     -1.26      0.00
    2    9   14     -1.41      0.00
    3    9   14     -0.61      0.00
    4    9   14      1.50      0.00
    5    9   14     -0.24      0.00
    6    9   14     -1.41      0.00
   -9   10   14      0.97      0.00
   -8   10   14      1.39      0.00
   -7   10   14     -2.20      0.00
   -6   10   14      0.98      0.00
   -5   10   14      0.70      0.00
   -4   10   14     -0.61      0.00
   -3   10   14     -1.34      0.00
   -2   10   14     -4.49      0.00
   -1   10   14     -3.63      0.00
    0   10   14     -1.60      0.00
    1   10   14     -1.97      0.00
    2   10   14     -0.93      0.00
    3   10   14     -0.25      0.00
    4   10   14     -0.24      0.00
    5   10   14      0.59      0.00
   -9   11   14      0.12      0.00
   -8   11   14      1.84      0.00
   -7   11   14      0.48      0.00
   -6   11   14      1.37      0.00
   -5   11   14      2.22      0.00
   -4   11   14      2.13      0.00
   -3   11   14      1.95      0.00
   -2   11   14      1.58      0.00
   -1   11   14      0.27      0.00
    0   11   14      2.57      0.00
    1   11   14      1.09      0.00
    2   11   14      0.76      0.00
    3   11   14      0.40      0.00
    4   11   14     -0.02      0.00
   -8   12   14      0.30      0.00
   -7   12   14     -0.97      0.00
   -6   12   14     -0.64      0.00
   -5   12   14      1.44      0.00
   -4   12   14      1.06      0.00
   -3   12   14      2.48      0.00
   -2   12   14      2.39      0.00
   -1   12   14      0.68      0.00
    0   12   14      1.95      0.00
    1   12   14     -0.10      0.00
    2   12   14     -1.45      0.00
    3   12   14      0.49      0.00
    4   12   14     -0.01      0.00
   -8   13   14     -0.21      0.00
   -7   13   14     -0.53      0.00
   -6   13   14     -1.63      0.00
   -5   13   14     -0.60      0.00
   -4   13   14     -1.42      0.00
   -3   13   14     -0.67      0.00
   -2   13   14     -0.10      0.00
   -1   13   14     -1.75      0.00
    0   13   14      0.71      0.00
    1   13   14     -1.10      0.00
    2   13   14     -1.07      0.00
    3   13   14     -0.15      0.00
   -7   14   14      1.42      0.00
   -6   14   14     -1.51      0.00
   -5   14   14     -1.55      0.00
   -4   14   14      0.13      0.00
   -3   14   14     -1.40      0.00
   -2   14   14     -0.54      0.00
   -1   14   14     -1.66      0.00
    0   14   14      0.82      0.00
    1   14   14      0.51      0.00
   -6   15   14      0.12      0.00
   -5   15   14     -0.05      0.00
   -4   15   14      0.36      0.00
   -3   15   14     -0.31      0.00
   -2   15   14      0.28      0.00
   -1   15   14     -0.36      0.00
    0   15   14      0.50      0.00
    1  -17   15      0.88      0.00
    2  -17   15     -1.06      0.00
    3  -17   15      0.86      0.00
   -1  -16   15     -0.24      0.00
    0  -16   15     -0.80      0.00
    1  -16   15     -0.15      0.00
    2  -16   15     -0.02      0.00
    3  -16   15     -0.51      0.00
    4  -16   15     -1.59      0.00
    5  -16   15     -0.48      0.00
   -2  -15   15     -0.35      0.00
   -1  -15   15      0.09      0.00
    0  -15   15     -0.99      0.00
    1  -15   15     -0.39      0.00
    2  -15   15      1.33      0.00
    3  -15   15      0.00      0.00
    4  -15   15      0.07      0.00
    5  -15   15     -0.09      0.00
    6  -15   15     -3.47      0.00
   -4  -14   15     -0.28      0.00
   -3  -14   15      0.56      0.00
   -2  -14   15      0.79      0.00
   -1  -14   15      1.01      0.00
    0  -14   15      1.36      0.00
    1  -14   15      1.28      0.00
    2  -14   15      2.58      0.00
    3  -14   15      0.86      0.00
    4  -14   15      0.55      0.00
    5  -14   15      1.64      0.00
    6  -14   15     -2.01      0.00
    7  -14   15      1.59      0.00
   -4  -13   15     -0.24      0.00
   -3  -13   15     -0.02      0.00
   -2  -13   15      0.27      0.00
   -1  -13   15     -0.33      0.00
    0  -13   15      0.31      0.00
    1  -13   15      0.35      0.00
    2  -13   15      1.69      0.00
    3  -13   15     -1.37      0.00
    4  -13   15      1.90      0.00
    5  -13   15      1.83      0.00
    6  -13   15      0.98      0.00
    7  -13   15      0.41      0.00
    8  -13   15     -1.47      0.00
   -5  -12   15     -0.28      0.00
   -4  -12   15     -0.35      0.00
   -3  -12   15     -0.95      0.00
   -2  -12   15     -1.44      0.00
   -1  -12   15     -0.17      0.00
    0  -12   15     -3.06      0.00
    1  -12   15     -1.10      0.00
    2  -12   15     -0.57      0.00
    3  -12   15     -1.38      0.00
    4  -12   15     -0.67      0.00
    5  -12   15     -1.11      0.00
    6  -12   15     -1.47      0.00
    7  -12   15      0.56      0.00
    8  -12   15     -0.81      0.00
   -6  -11   15      0.86      0.00
   -5  -11   15      0.27      0.00
   -4  -11   15      1.04      0.00
   -3  -11   15     -0.14      0.00
   -2  -11   15      0.02      0.00
   -1  -11   15      0.71      0.00
    0  -11   15     -3.22      0.00
    1  -11   15     -2.40      0.00
    2  -11   15      0.25      0.00
    3  -11   15     -0.02      0.00
    4  -11   15     -0.79      0.00
    5  -11   15     -1.08      0.00
    6  -11   15     -1.72      0.00
    7  -11   15      2.54      0.00
    8  -11   15      2.23      0.00
   -7  -10   15     -1.51      0.00
   -6  -10   15     -0.23      0.00
   -5  -10   15      0.61      0.00
   -4  -10   15      1.78      0.00
   -3  -10   15      0.54      0.00
   -2  -10   15     -0.05      0.00
   -1  -10   15      1.07      0.00
    0  -10   15      0.31      0.00
    1  -10   15      1.37      0.00
    2  -10   15      0.38      0.00
    3  -10   15      1.26      0.00
    4  -10   15      0.87      0.00
    5  -10   15     -0.05      0.00
    6  -10   15     -1.91      0.00
    7  -10   15     -1.05      0.00
    8  -10   15      0.02      0.00
    9  -10   15      2.63      0.00
   -7   -9   15     -1.21      0.00
   -6   -9   15     -0.73      0.00
   -5   -9   15     -2.48      0.00
   -4   -9   15     -0.64      0.00
   -3   -9   15     -0.91      0.00
   -2   -9   15      0.27      0.00
   -1   -9   15      2.14      0.00
    0   -9   15      0.93      0.00
    1   -9   15      0.59      0.00
    2   -9   15     -1.98      0.00
    3   -9   15     -0.10      0.00
    4   -9   15      1.89      0.00
    5   -9   15      1.73      0.00
    6   -9   15     -2.17      0.00
    7   -9   15     -3.84      0.00
    8   -9   15     -2.82      0.00
    9   -9   15      1.48      0.00
   -8   -8   15      0.71      0.00
   -7   -8   15      0.71      0.00
   -6   -8   15     -1.00      0.00
   -5   -8   15     -0.19      0.00
   -4   -8   15     -0.44      0.00
   -3   -8   15     -0.49      0.00
   -2   -8   15     -0.43      0.00
   -1   -8   15      2.03      0.00
    0   -8   15      0.74      0.00
    1   -8   15      0.50      0.00
    2   -8   15     -1.38      0.00
    3   -8   15      1.40      0.00
    4   -8   15      0.97      0.00
    5   -8   15      3.31      0.00
    6   -8   15     -0.05      0.00
    7   -8   15     -1.50      0.00
    8   -8   15     -3.03      0.00
    9   -8   15      1.81      0.00
   -8   -7   15      0.40      0.00
   -7   -7   15      1.44      0.00
   -6   -7   15     -0.96      0.00
   -5   -7   15      2.92      0.00
   -4   -7   15     -0.10      0.00
   -3   -7   15     -0.64      0.00
   -2   -7   15     -1.74      0.00
   -1   -7   15     -0.32      0.00
    0   -7   15     -1.05      0.00
    1   -7   15      4.50      0.00
    2   -7   15     -0.78      0.00
    3   -7   15     -0.26      0.00
    4   -7   15      0.54      0.00
    5   -7   15      1.86      0.00
    6   -7   15      3.36      0.00
    7   -7   15      1.23      0.00
    8   -7   15     -1.77      0.00
    9   -7   15      1.48      0.00
   -8   -6   15      0.75      0.00
   -7   -6   15      1.81      0.00
   -6   -6   15     -0.26      0.00
   -5   -6   15      1.96      0.00
   -4   -6   15      0.52      0.00
   -3   -6   15      1.93      0.00
   -2   -6   15     -3.62      0.00
   -1   -6   15     -2.30      0.00
    0   -6   15     -2.83      0.00
    1   -6   15      4.55      0.00
    2   -6   15     -4.49      0.00
    3   -6   15     -2.58      0.00
    4   -6   15      0.10      0.00
    5   -6   15      0.07      0.00
    6   -6   15      2.66      0.00
    7   -6   15      0.52      0.00
    8   -6   15     -2.81      0.00
    9   -6   15      0.79      0.00
   -9   -5   15     -0.54      0.00
   -8   -5   15     -0.35      0.00
   -7   -5   15      2.45      0.00
   -6   -5   15     -3.01      0.00
   -5   -5   15      1.98      0.00
   -4   -5   15      1.19      0.00
   -3   -5   15      3.13      0.00
   -2   -5   15     -1.18      0.00
   -1   -5   15     -0.94      0.00
    0   -5   15     -6.88      0.00
    1   -5   15      4.79      0.00
    2   -5   15     -1.58      0.00
    3   -5   15     -3.67      0.00
    4   -5   15     -4.17      0.00
    5   -5   15     -1.97      0.00
    6   -5   15      0.01      0.00
    7   -5   15      1.54      0.00
    8   -5   15     -1.43      0.00
    9   -5   15     -0.67      0.00
   -9   -4   15     -0.60      0.00
   -8   -4   15     -1.43      0.00
   -7   -4   15     -0.50      0.00
   -6   -4   15     -3.20      0.00
   -5   -4   15     -1.12      0.00
   -4   -4   15     -2.40      0.00
   -3   -4   15      3.90      0.00
   -2   -4   15      2.66      0.00
   -1   -4   15      3.26      0.00
    0   -4   15     -7.11      0.00
    1   -4   15      5.75      0.00
    2   -4   15      5.04      0.00
    3   -4   15      0.13      0.00
    4   -4   15     -1.58      0.00
    5   -4   15     -4.08      0.00
    6   -4   15     -1.18      0.00
    7   -4   15     -0.55      0.00
    8   -4   15     -0.61      0.00
    9   -4   15     -1.99      0.00
   -9   -3   15     -1.02      0.00
   -8   -3   15      0.50      0.00
   -7   -3   15      0.00      0.00
   -6   -3   15     -0.75      0.00
   -5   -3   15     -2.57      0.00
   -4   -3   15     -3.59      0.00
   -3   -3   15      3.05      0.00
   -2   -3   15      1.76      0.00
   -1   -3   15      4.10      0.00
    0   -3   15     -3.56      0.00
    1   -3   15     -1.91      0.00
    2   -3   15      5.17      0.00
    3   -3   15      3.08      0.00
    4   -3   15      1.52      0.00
    5   -3   15     -0.37      0.00
    6   -3   15     -0.73      0.00
    7   -3   15     -1.29      0.00
    8   -3   15      0.53      0.00
    9   -3   15     -2.02      0.00
   -9   -2   15      0.14      0.00
   -8   -2   15      1.86      0.00
   -7   -2   15      2.09      0.00
   -6   -2   15      2.75      0.00
   -5   -2   15      0.28      0.00
   -4   -2   15     -2.73      0.00
   -3   -2   15     -0.68      0.00
   -2   -2   15     -1.08      0.00
   -1   -2   15      4.32      0.00
    0   -2   15      3.47      0.00
    1   -2   15     -1.32      0.00
    2   -2   15      0.77      0.00
    3   -2   15      3.76      0.00
    4   -2   15      3.01      0.00
    5   -2   15      1.60      0.00
    6   -2   15      1.26      0.00
    7   -2   15     -0.16      0.00
    8   -2   15      1.80      0.00
    9   -2   15     -1.20      0.00
  -10   -1   15     -1.07      0.00
   -9   -1   15     -0.40      0.00
   -8   -1   15     -0.53      0.00
   -7   -1   15      0.18      0.00
   -6   -1   15      0.15      0.00
   -5   -1   15      0.31      0.00
   -4   -1   15     -4.88      0.00
   -3   -1   15     -1.49      0.00
   -2   -1   15     -4.41      0.00
   -1   -1   15     -4.46      0.00
    0   -1   15     -2.51      0.00
    1   -1   15     -0.02      0.00
    2   -1   15     -3.88      0.00
    3   -1   15      2.84      0.00
    4   -1   15      3.07      0.00
    5   -1   15      1.82      0.00
    6   -1   15      0.92      0.00
    7   -1   15     -1.52      0.00
    8   -1   15      2.08      0.00
    9   -1   15     -1.01      0.00
  -10    0   15     -0.41      0.00
   -9    0   15     -0.21      0.00
   -8    0   15     -0.26      0.00
   -7    0   15      1.04      0.00
   -6    0   15      0.59      0.00
   -5    0   15      0.96      0.00
   -4    0   15     -0.62      0.00
   -3    0   15      3.53      0.00
   -2    0   15     -0.33      0.00
   -1    0   15     -6.08      0.00
    0    0   15     -7.94      0.00
    1    0   15      1.17      0.00
    2    0   15     -5.37      0.00
    3    0   15     -2.44      0.00
    4    0   15     -0.62      0.00
    5    0   15     -0.70      0.00
    6    0   15      1.52      0.00
    7    0   15     -0.27      0.00
    8    0   15      0.75      0.00
    9    0   15      0.22      0.00
  -10    1   15      0.97      0.00
   -9    1   15      0.16      0.00
   -8    1   15     -0.48      0.00
   -7    1   15      2.61      0.00
   -6    1   15      3.32      0.00
   -5    1   15      3.12      0.00
   -4    1   15      2.56      0.00
   -3    1   15      4.89      0.00
   -2    1   15      9.58      0.00
   -1    1   15      5.16      0.00
    0    1   15     -1.57      0.00
    1    1   15      4.31      0.00
    2    1   15     -6.89      0.00
    3    1   15     -3.72      0.00
    4    1   15     -1.32      0.00
    5    1   15     -3.10      0.00
    6    1   15      1.27      0.00
    7    1   15     -1.06      0.00
    8    1   15     -0.08      0.00
    9    1   15     -0.23      0.00
  -10    2   15      0.20      0.00
   -9    2   15     -0.36      0.00
   -8    2   15     -2.99      0.00
   -7    2   15     -1.01      0.00
   -6    2   15      0.95      0.00
   -5    2   15     -2.55      0.00
   -4    2   15     -3.83      0.00
   -3    2   15     -1.99      0.00
   -2    2   15      9.43      0.00
   -1    2   15      5.33      0.00
    0    2   15     -0.55      0.00
    1    2   15      5.32      0.00
    2    2   15      0.06      0.00
    3    2   15      1.07      0.00
    4    2   15      2.43      0.00
    5    2   15     -3.30      0.00
    6    2   15     -0.72      0.00
    7    2   15     -1.06      0.00
    8    2   15     -1.31      0.00
  -10    3   15     -0.07      0.00
   -9    3   15     -0.07      0.00
   -8    3   15     -1.94      0.00
   -7    3   15     -3.97      0.00
   -6    3   15     -0.42      0.00
   -5    3   15     -4.24      0.00
   -4    3   15     -4.85      0.00
   -3    3   15    -12.77      0.00
   -2    3   15      2.17      0.00
   -1    3   15      0.10      0.00
    0    3   15     -3.63      0.00
    1    3   15      0.20      0.00
    2    3   15      0.03      0.00
    3    3   15     -1.08      0.00
    4    3   15      3.31      0.00
    5    3   15     -2.37      0.00
    6    3   15     -1.44      0.00
    7    3   15      0.20      0.00
    8    3   15      0.38      0.00
  -10    4   15      0.48      0.00
   -9    4   15      1.82      0.00
   -8    4   15      1.45      0.00
   -7    4   15     -1.53      0.00
   -6    4   15      2.66      0.00
   -5    4   15      1.54      0.00
   -4    4   15      2.78      0.00
   -3    4   15    -10.63      0.00
   -2    4   15      1.75      0.00
   -1    4   15      3.04      0.00
    0    4   15      2.68      0.00
    1    4   15      2.27      0.00
    2    4   15      0.33      0.00
    3    4   15      0.78      0.00
    4    4   15      1.77      0.00
    5    4   15      3.47      0.00
    6    4   15     -0.65      0.00
    7    4   15      1.02      0.00
    8    4   15      0.42      0.00
  -10    5   15      0.96      0.00
   -9    5   15      0.95      0.00
   -8    5   15      1.89      0.00
   -7    5   15     -0.67      0.00
   -6    5   15      4.16      0.00
   -5    5   15      2.20      0.00
   -4    5   15      9.04      0.00
   -3    5   15     -4.12      0.00
   -2    5   15     -2.50      0.00
   -1    5   15      2.14      0.00
    0    5   15      3.81      0.00
    1    5   15     -0.56      0.00
    2    5   15      0.69      0.00
    3    5   15      1.90      0.00
    4    5   15     -0.45      0.00
    5    5   15      5.48      0.00
    6    5   15      0.07      0.00
    7    5   15     -0.20      0.00
  -10    6   15      0.17      0.00
   -9    6   15     -1.63      0.00
   -8    6   15      1.36      0.00
   -7    6   15     -2.36      0.00
   -6    6   15      0.42      0.00
   -5    6   15     -0.91      0.00
   -4    6   15      3.49      0.00
   -3    6   15     -1.63      0.00
   -2    6   15     -6.39      0.00
   -1    6   15     -4.15      0.00
    0    6   15     -2.15      0.00
    1    6   15     -2.66      0.00
    2    6   15     -3.04      0.00
    3    6   15      1.36      0.00
    4    6   15     -3.31      0.00
    5    6   15      1.09      0.00
    6    6   15     -0.56      0.00
    7    6   15     -0.37      0.00
  -10    7   15      0.84      0.00
   -9    7   15     -0.81      0.00
   -8    7   15      1.70      0.00
   -7    7   15     -2.27      0.00
   -6    7   15     -0.28      0.00
   -5    7   15     -2.78      0.00
   -4    7   15      1.63      0.00
   -3    7   15      4.24      0.00
   -2    7   15      0.68      0.00
   -1    7   15     -1.48      0.00
    0    7   15     -2.09      0.00
    1    7   15     -0.78      0.00
    2    7   15     -4.91      0.00
    3    7   15     -1.04      0.00
    4    7   15     -3.46      0.00
    5    7   15     -2.28      0.00
    6    7   15     -0.42      0.00
  -10    8   15      1.38      0.00
   -9    8   15     -1.01      0.00
   -8    8   15     -0.33      0.00
   -7    8   15     -0.41      0.00
   -6    8   15      0.16      0.00
   -5    8   15     -0.31      0.00
   -4    8   15      1.27      0.00
   -3    8   15      3.88      0.00
   -2    8   15      3.52      0.00
   -1    8   15      5.18      0.00
    0    8   15      2.14      0.00
    1    8   15      3.77      0.00
    2    8   15     -0.41      0.00
    3    8   15      1.67      0.00
    4    8   15      1.50      0.00
    5    8   15     -0.25      0.00
    6    8   15      0.97      0.00
   -9    9   15     -0.19      0.00
   -8    9   15     -1.84      0.00
   -7    9   15      1.37      0.00
   -6    9   15     -0.74      0.00
   -5    9   15     -0.97      0.00
   -4    9   15     -2.38      0.00
   -3    9   15     -1.50      0.00
   -2    9   15      0.37      0.00
   -1    9   15      2.80      0.00
    0    9   15     -0.57      0.00
    1    9   15      2.63      0.00
    2    9   15      0.56      0.00
    3    9   15      0.55      0.00
    4    9   15      1.52      0.00
    5    9   15     -0.94      0.00
   -9   10   15      2.05      0.00
   -8   10   15     -2.80      0.00
   -7   10   15      1.13      0.00
   -6   10   15     -0.97      0.00
   -5   10   15     -1.18      0.00
   -4   10   15     -2.54      0.00
   -3   10   15     -3.76      0.00
   -2   10   15     -3.28      0.00
   -1   10   15     -0.83      0.00
    0   10   15     -2.29      0.00
    1   10   15     -0.35      0.00
    2   10   15     -1.53      0.00
    3   10   15     -0.55      0.00
    4   10   15      1.39      0.00
    5   10   15     -1.02      0.00
   -9   11   15      1.16      0.00
   -8   11   15      0.74      0.00
   -7   11   15      0.30      0.00
   -6   11   15      0.69      0.00
   -5   11   15      1.33      0.00
   -4   11   15      0.12      0.00
   -3   11   15     -0.22      0.00
   -2   11   15     -2.49      0.00
   -1   11   15      0.09      0.00
    0   11   15     -0.16      0.00
    1   11   15     -0.33      0.00
    2   11   15     -0.13      0.00
    3   11   15      0.31      0.00
    4   11   15     -0.25      0.00
   -8   12   15     -0.12      0.00
   -7   12   15      1.00      0.00
   -6   12   15      1.24      0.00
   -5   12   15      2.73      0.00
   -4   12   15      1.91      0.00
   -3   12   15      2.61      0.00
   -2   12   15      0.74      0.00
   -1   12   15      0.77      0.00
    0   12   15      1.60      0.00
    1   12   15     -0.23      0.00
    2   12   15      0.24      0.00
    3   12   15      0.43      0.00
   -7   13   15     -1.05      0.00
   -6   13   15     -1.69      0.00
   -5   13   15      0.73      0.00
   -4   13   15      0.17      0.00
   -3   13   15      1.12      0.00
   -2   13   15      0.21      0.00
   -1   13   15     -0.37      0.00
    0   13   15      1.22      0.00
    1   13   15     -1.34      0.00
    2   13   15     -0.15      0.00
   -7   14   15     -0.59      0.00
   -6   14   15     -1.99      0.00
   -5   14   15      0.29      0.00
   -4   14   15     -1.39      0.00
   -3   14   15     -0.55      0.00
   -2   14   15      0.25      0.00
   -1   14   15     -1.28      0.00
    0   14   15      1.73      0.00
    1   14   15     -1.42      0.00
   -5   15   15     -0.47      0.00
   -4   15   15      0.80      0.00
   -3   15   15     -1.13      0.00
   -2   15   15      0.29      0.00
   -1   15   15     -1.67      0.00
   -1  -16   16     -0.61      0.00
    0  -16   16      0.13      0.00
    1  -16   16      0.73      0.00
    2  -16   16     -1.68      0.00
    3  -16   16     -0.54      0.00
    4  -16   16      0.30      0.00
    5  -16   16      0.58      0.00
   -2  -15   16      0.24      0.00
   -1  -15   16     -0.89      0.00
    0  -15   16     -1.07      0.00
    1  -15   16      0.63      0.00
    2  -15   16     -0.37      0.00
    3  -15   16     -0.61      0.00
    4  -15   16     -0.92      0.00
    5  -15   16     -3.09      0.00
    6  -15   16      0.27      0.00
   -3  -14   16     -0.19      0.00
   -2  -14   16     -0.92      0.00
   -1  -14   16      0.69      0.00
    0  -14   16      0.09      0.00
    1  -14   16      1.02      0.00
    2  -14   16      0.67      0.00
    3  -14   16      0.59      0.00
    4  -14   16      0.14      0.00
    5  -14   16     -1.18      0.00
    6  -14   16     -2.39      0.00
    7  -14   16      1.37      0.00
   -4  -13   16     -0.41      0.00
   -3  -13   16      0.38      0.00
   -2  -13   16      0.94      0.00
   -1  -13   16      1.18      0.00
    0  -13   16      1.75      0.00
    1  -13   16      2.26      0.00
    2  -13   16      0.61      0.00
    3  -13   16      1.39      0.00
    4  -13   16      0.76      0.00
    5  -13   16      1.69      0.00
    6  -13   16     -1.39      0.00
    7  -13   16      0.63      0.00
   -5  -12   16      0.72      0.00
   -4  -12   16     -0.62      0.00
   -3  -12   16      0.26      0.00
   -2  -12   16     -0.40      0.00
   -1  -12   16     -1.18      0.00
    0  -12   16     -0.93      0.00
    1  -12   16     -0.27      0.00
    2  -12   16      0.86      0.00
    3  -12   16     -0.35      0.00
    4  -12   16      0.97      0.00
    5  -12   16      1.31      0.00
    6  -12   16     -0.79      0.00
    7  -12   16     -1.01      0.00
    8  -12   16     -0.50      0.00
   -6  -11   16      1.05      0.00
   -5  -11   16      1.16      0.00
   -4  -11   16     -1.38      0.00
   -3  -11   16     -0.70      0.00
   -2  -11   16     -0.83      0.00
   -1  -11   16     -0.86      0.00
    0  -11   16     -3.25      0.00
    1  -11   16     -0.69      0.00
    2  -11   16     -0.73      0.00
    3  -11   16     -0.55      0.00
    4  -11   16     -0.81      0.00
    5  -11   16     -1.09      0.00
    6  -11   16     -0.44      0.00
    7  -11   16      1.43      0.00
    8  -11   16      0.38      0.00
   -6  -10   16      0.11      0.00
   -5  -10   16      1.41      0.00
   -4  -10   16      0.91      0.00
   -3  -10   16      0.37      0.00
   -2  -10   16      0.13      0.00
   -1  -10   16      0.52      0.00
    0  -10   16     -1.54      0.00
    1  -10   16     -1.18      0.00
    2  -10   16      0.49      0.00
    3  -10   16     -0.02      0.00
    4  -10   16      0.00      0.00
    5  -10   16      0.12      0.00
    6  -10   16      0.39      0.00
    7  -10   16      1.71      0.00
    8  -10   16      0.56      0.00
   -7   -9   16     -1.45      0.00
   -6   -9   16     -1.79      0.00
   -5   -9   16      0.82      0.00
   -4   -9   16      0.37      0.00
   -3   -9   16     -0.59      0.00
   -2   -9   16      1.30      0.00
   -1   -9   16      0.96      0.00
    0   -9   16      0.20      0.00
    1   -9   16      0.79      0.00
    2   -9   16      0.04      0.00
    3   -9   16     -0.49      0.00
    4   -9   16      0.35      0.00
    5   -9   16     -0.87      0.00
    6   -9   16     -3.24      0.00
    7   -9   16     -1.89      0.00
    8   -9   16     -1.84      0.00
    9   -9   16      1.33      0.00
   -7   -8   16     -0.51      0.00
   -6   -8   16     -0.40      0.00
   -5   -8   16     -1.87      0.00
   -4   -8   16     -0.83      0.00
   -3   -8   16     -1.14      0.00
   -2   -8   16      2.46      0.00
   -1   -8   16      0.99      0.00
    0   -8   16      0.51      0.00
    1   -8   16      0.69      0.00
    2   -8   16     -0.65      0.00
    3   -8   16      0.29      0.00
    4   -8   16      0.00      0.00
    5   -8   16      0.43      0.00
    6   -8   16     -1.62      0.00
    7   -8   16     -2.12      0.00
    8   -8   16     -1.31      0.00
    9   -8   16      2.26      0.00
   -8   -7   16      0.79      0.00
   -7   -7   16      0.55      0.00
   -6   -7   16     -0.14      0.00
   -5   -7   16      0.09      0.00
   -4   -7   16      1.35      0.00
   -3   -7   16     -0.91      0.00
   -2   -7   16      0.30      0.00
   -1   -7   16      0.41      0.00
    0   -7   16      1.61      0.00
    1   -7   16      0.47      0.00
    2   -7   16      0.47      0.00
    3   -7   16      3.03      0.00
    4   -7   16     -0.27      0.00
    5   -7   16      3.86      0.00
    6   -7   16      0.62      0.00
    7   -7   16     -1.13      0.00
    8   -7   16     -1.42      0.00
    9   -7   16      1.37      0.00
   -8   -6   16      0.47      0.00
   -7   -6   16      0.79      0.00
   -6   -6   16     -0.35      0.00
   -5   -6   16      1.11      0.00
   -4   -6   16     -0.55      0.00
   -3   -6   16     -2.86      0.00
   -2   -6   16     -1.35      0.00
   -1   -6   16     -0.02      0.00
    0   -6   16      1.43      0.00
    1   -6   16      1.55      0.00
    2   -6   16     -1.63      0.00
    3   -6   16      0.58      0.00
    4   -6   16      0.40      0.00
    5   -6   16      4.81      0.00
    6   -6   16      2.56      0.00
    7   -6   16     -0.97      0.00
    8   -6   16     -1.59      0.00
    9   -6   16      1.03      0.00
   -9   -5   16     -0.79      0.00
   -8   -5   16      1.47      0.00
   -7   -5   16      1.06      0.00
   -6   -5   16      0.76      0.00
   -5   -5   16      1.13      0.00
   -4   -5   16      0.58      0.00
   -3   -5   16      1.52      0.00
   -2   -5   16     -3.85      0.00
   -1   -5   16     -2.97      0.00
    0   -5   16     -1.99      0.00
    1   -5   16      4.61      0.00
    2   -5   16     -5.25      0.00
    3   -5   16     -2.58      0.00
    4   -5   16     -3.07      0.00
    5   -5   16      1.06      0.00
    6   -5   16      1.99      0.00
    7   -5   16      0.28      0.00
    8   -5   16     -0.86      0.00
    9   -5   16      0.66      0.00
   -9   -4   16     -0.49      0.00
   -8   -4   16     -0.24      0.00
   -7   -4   16      0.62      0.00
   -6   -4   16     -2.21      0.00
   -5   -4   16     -0.27      0.00
   -4   -4   16      2.31      0.00
   -3   -4   16      3.77      0.00
   -2   -4   16     -3.55      0.00
   -1   -4   16     -2.15      0.00
    0   -4   16     -7.45      0.00
    1   -4   16      7.36      0.00
    2   -4   16     -1.79      0.00
    3   -4   16     -2.42      0.00
    4   -4   16     -7.27      0.00
    5   -4   16     -1.66      0.00
    6   -4   16     -0.38      0.00
    7   -4   16      1.23      0.00
    8   -4   16     -1.67      0.00
    9   -4   16     -0.82      0.00
   -9   -3   16     -0.61      0.00
   -8   -3   16     -0.67      0.00
   -7   -3   16      0.11      0.00
   -6   -3   16     -2.34      0.00
   -5   -3   16     -1.98      0.00
   -4   -3   16     -0.59      0.00
   -3   -3   16      5.46      0.00
   -2   -3   16      2.30      0.00
   -1   -3   16      4.22      0.00
    0   -3   16     -9.70      0.00
    1   -3   16      8.18      0.00
    2   -3   16      2.28      0.00
    3   -3   16      0.71      0.00
    4   -3   16     -2.28      0.00
    5   -3   16     -1.51      0.00
    6   -3   16     -1.91      0.00
    7   -3   16      1.08      0.00
    8   -3   16     -1.76      0.00
    9   -3   16     -1.29      0.00
   -9   -2   16     -0.34      0.00
   -8   -2   16      0.29      0.00
   -7   -2   16      2.01      0.00
   -6   -2   16      0.92      0.00
   -5   -2   16     -0.88      0.00
   -4   -2   16     -3.07      0.00
   -3   -2   16      4.68      0.00
   -2   -2   16      2.38      0.00
   -1   -2   16      7.88      0.00
    0   -2   16     -5.81      0.00
    1   -2   16      2.17      0.00
    2   -2   16      4.07      0.00
    3   -2   16      4.92      0.00
    4   -2   16      0.84      0.00
    5   -2   16      0.39      0.00
    6   -2   16     -1.29      0.00
    7   -2   16      1.61      0.00
    8   -2   16      0.21      0.00
    9   -2   16     -0.09      0.00
  -10   -1   16     -0.44      0.00
   -9   -1   16      0.09      0.00
   -8   -1   16      0.21      0.00
   -7   -1   16      0.67      0.00
   -6   -1   16      0.22      0.00
   -5   -1   16     -1.82      0.00
   -4   -1   16     -4.87      0.00
   -3   -1   16     -0.97      0.00
   -2   -1   16     -2.06      0.00
   -1   -1   16      4.42      0.00
    0   -1   16     -0.17      0.00
    1   -1   16     -1.69      0.00
    2   -1   16      2.41      0.00
    3   -1   16      4.61      0.00
    4   -1   16      2.19      0.00
    5   -1   16      0.49      0.00
    6   -1   16     -1.30      0.00
    7   -1   16      1.53      0.00
    8   -1   16      0.61      0.00
    9   -1   16     -0.03      0.00
  -10    0   16     -0.61      0.00
   -9    0   16     -0.42      0.00
   -8    0   16     -0.58      0.00
   -7    0   16     -0.26      0.00
   -6    0   16     -1.49      0.00
   -5    0   16      0.22      0.00
   -4    0   16     -5.26      0.00
   -3    0   16     -0.56      0.00
   -2    0   16     -4.83      0.00
   -1    0   16     -5.19      0.00
    0    0   16     -1.56      0.00
    1    0   16     -5.90      0.00
    2    0   16     -4.09      0.00
    3    0   16      2.70      0.00
    4    0   16      1.21      0.00
    5    0   16      2.16      0.00
    6    0   16     -1.62      0.00
    7    0   16      0.33      0.00
    8    0   16      0.37      0.00
    9    0   16     -0.24      0.00
  -10    1   16      0.32      0.00
   -9    1   16      0.71      0.00
   -8    1   16      0.48      0.00
   -7    1   16      2.14      0.00
   -6    1   16      2.14      0.00
   -5    1   16      5.45      0.00
   -4    1   16     -0.57      0.00
   -3    1   16      4.99      0.00
   -2    1   16     -0.58      0.00
   -1    1   16     -1.20      0.00
    0    1   16      0.83      0.00
    1    1   16     -3.46      0.00
    2    1   16     -4.60      0.00
    3    1   16     -0.41      0.00
    4    1   16     -1.63      0.00
    5    1   16      2.17      0.00
    6    1   16     -0.01      0.00
    7    1   16      0.21      0.00
    8    1   16      0.87      0.00
  -10    2   16      0.20      0.00
   -9    2   16      0.50      0.00
   -8    2   16     -0.36      0.00
   -7    2   16      2.07      0.00
   -6    2   16      0.62      0.00
   -5    2   16      3.72      0.00
   -4    2   16     -1.49      0.00
   -3    2   16      7.42      0.00
   -2    2   16      3.70      0.00
   -1    2   16      3.14      0.00
    0    2   16      3.55      0.00
    1    2   16      1.51      0.00
    2    2   16     -4.99      0.00
    3    2   16      0.20      0.00
    4    2   16     -2.18      0.00
    5    2   16     -1.26      0.00
    6    2   16      0.73      0.00
    7    2   16     -2.13      0.00
    8    2   16      0.79      0.00
  -10    3   16     -0.04      0.00
   -9    3   16     -1.14      0.00
   -8    3   16     -3.34      0.00
   -7    3   16     -1.74      0.00
   -6    3   16     -2.21      0.00
   -5    3   16     -2.36      0.00
   -4    3   16     -6.59      0.00
   -3    3   16      2.28      0.00
   -2    3   16      1.64      0.00
   -1    3   16      0.39      0.00
    0    3   16     -1.20      0.00
    1    3   16      1.66      0.00
    2    3   16     -2.53      0.00
    3    3   16      2.02      0.00
    4    3   16     -0.69      0.00
    5    3   16     -2.86      0.00
    6    3   16     -0.73      0.00
    7    3   16     -1.66      0.00
    8    3   16     -0.32      0.00
  -10    4   16     -0.05      0.00
   -9    4   16      0.50      0.00
   -8    4   16     -1.69      0.00
   -7    4   16     -1.88      0.00
   -6    4   16     -0.75      0.00
   -5    4   16     -0.50      0.00
   -4    4   16     -5.49      0.00
   -3    4   16     -3.33      0.00
   -2    4   16      1.72      0.00
   -1    4   16      2.63      0.00
    0    4   16     -1.46      0.00
    1    4   16      1.62      0.00
    2    4   16     -0.88      0.00
    3    4   16     -0.54      0.00
    4    4   16      2.12      0.00
    5    4   16     -1.96      0.00
    6    4   16      0.51      0.00
    7    4   16     -0.81      0.00
    8    4   16     -0.01      0.00
  -10    5   16      0.67      0.00
   -9    5   16      2.57      0.00
   -8    5   16      0.13      0.00
   -7    5   16      1.43      0.00
   -6    5   16      2.16      0.00
   -5    5   16      4.35      0.00
   -4    5   16     -0.64      0.00
   -3    5   16     -5.63      0.00
   -2    5   16      2.81      0.00
   -1    5   16      4.37      0.00
    0    5   16      2.19      0.00
    1    5   16      3.25      0.00
    2    5   16      2.93      0.00
    3    5   16      1.45      0.00
    4    5   16      4.30      0.00
    5    5   16      2.31      0.00
    6    5   16      1.29      0.00
    7    5   16      1.15      0.00
  -10    6   16      0.08      0.00
   -9    6   16      0.54      0.00
   -8    6   16     -0.29      0.00
   -7    6   16     -0.21      0.00
   -6    6   16      1.79      0.00
   -5    6   16      1.86      0.00
   -4    6   16      3.98      0.00
   -3    6   16     -6.18      0.00
   -2    6   16     -2.45      0.00
   -1    6   16     -1.21      0.00
    0    6   16      0.41      0.00
    1    6   16     -2.46      0.00
    2    6   16      1.28      0.00
    3    6   16      0.67      0.00
    4    6   16      0.31      0.00
    5    6   16      2.44      0.00
    6    6   16     -0.25      0.00
    7    6   16     -0.16      0.00
  -10    7   16     -0.13      0.00
   -9    7   16     -1.20      0.00
   -8    7   16      1.20      0.00
   -7    7   16     -2.81      0.00
   -6    7   16     -0.69      0.00
   -5    7   16     -0.50      0.00
   -4    7   16      2.64      0.00
   -3    7   16     -2.52      0.00
   -2    7   16     -3.52      0.00
   -1    7   16     -3.91      0.00
    0    7   16     -2.31      0.00
    1    7   16     -5.06      0.00
    2    7   16     -3.71      0.00
    3    7   16     -0.39      0.00
    4    7   16     -4.45      0.00
    5    7   16     -0.22      0.00
    6    7   16     -1.99      0.00
   -9    8   16     -1.36      0.00
   -8    8   16      2.03      0.00
   -7    8   16     -2.07      0.00
   -6    8   16      0.63      0.00
   -5    8   16     -0.27      0.00
   -4    8   16      3.63      0.00
   -3    8   16      3.25      0.00
   -2    8   16      3.44      0.00
   -1    8   16     -0.67      0.00
    0    8   16      2.19      0.00
    1    8   16     -0.50      0.00
    2    8   16     -3.01      0.00
    3    8   16      1.15      0.00
    4    8   16     -1.78      0.00
    5    8   16     -0.02      0.00
    6    8   16      0.99      0.00
   -9    9   16     -2.13      0.00
   -8    9   16      1.27      0.00
   -7    9   16     -1.20      0.00
   -6    9   16      1.22      0.00
   -5    9   16     -0.22      0.00
   -4    9   16      0.82      0.00
   -3    9   16      2.08      0.00
   -2    9   16      4.44      0.00
   -1    9   16      1.66      0.00
    0    9   16      3.84      0.00
    1    9   16      3.41      0.00
    2    9   16     -0.59      0.00
    3    9   16      3.64      0.00
    4    9   16      0.65      0.00
    5    9   16      0.07      0.00
   -9   10   16     -1.25      0.00
   -8   10   16      0.09      0.00
   -7   10   16     -0.58      0.00
   -6   10   16     -1.28      0.00
   -5   10   16     -1.80      0.00
   -4   10   16     -3.25      0.00
   -3   10   16     -2.80      0.00
   -2   10   16      0.46      0.00
   -1   10   16     -0.83      0.00
    0   10   16     -1.28      0.00
    1   10   16      0.60      0.00
    2   10   16     -1.86      0.00
    3   10   16      0.97      0.00
    4   10   16     -0.06      0.00
    5   10   16     -1.19      0.00
   -8   11   16     -0.96      0.00
   -7   11   16      1.61      0.00
   -6   11   16     -1.90      0.00
   -5   11   16      0.03      0.00
   -4   11   16     -0.49      0.00
   -3   11   16     -3.52      0.00
   -2   11   16     -1.70      0.00
   -1   11   16     -1.11      0.00
    0   11   16     -0.49      0.00
    1   11   16     -0.10      0.00
    2   11   16     -1.48      0.00
    3   11   16     -0.98      0.00
    4   11   16      0.83      0.00
   -8   12   16     -0.19      0.00
   -7   12   16      1.50      0.00
   -6   12   16      0.49      0.00
   -5   12   16      2.39      0.00
   -4   12   16      1.32      0.00
   -3   12   16      0.01      0.00
   -2   12   16     -0.52      0.00
   -1   12   16      0.42      0.00
    0   12   16      1.31      0.00
    1   12   16      0.55      0.00
    2   12   16      0.50      0.00
    3   12   16      0.71      0.00
   -7   13   16      1.34      0.00
   -6   13   16      0.17      0.00
   -5   13   16      0.79      0.00
   -4   13   16      1.24      0.00
   -3   13   16      1.72      0.00
   -2   13   16      0.40      0.00
   -1   13   16     -0.16      0.00
    0   13   16      0.59      0.00
    1   13   16     -0.60      0.00
    2   13   16      0.45      0.00
   -6   14   16     -1.75      0.00
   -5   14   16     -0.05      0.00
   -4   14   16      0.13      0.00
   -3   14   16     -0.16      0.00
   -2   14   16     -0.03      0.00
   -1   14   16     -1.32      0.00
    0   14   16      0.74      0.00
    1   14   16     -1.33      0.00
   -5   15   16      1.06      0.00
   -4   15   16     -0.50      0.00
   -3   15   16     -0.78      0.00
   -2   15   16      0.79      0.00
   -1   15   16     -1.07      0.00
    0  -16   17      1.53      0.00
    1  -16   17     -0.14      0.00
    2  -16   17      0.79      0.00
    3  -16   17     -2.01      0.00
    4  -16   17      1.39      0.00
   -2  -15   17      0.73      0.00
   -1  -15   17     -0.76      0.00
    0  -15   17     -0.83      0.00
    1  -15   17     -0.64      0.00
    2  -15   17     -1.45      0.00
    3  -15   17     -2.11      0.00
    4  -15   17      1.49      0.00
    5  -15   17      0.30      0.00
    6  -15   17      1.53      0.00
   -3  -14   17     -0.25      0.00
   -2  -14   17     -0.59      0.00
   -1  -14   17     -0.87      0.00
    0  -14   17     -1.15      0.00
    1  -14   17      0.48      0.00
    2  -14   17      0.38      0.00
    3  -14   17     -1.19      0.00
    4  -14   17     -0.48      0.00
    5  -14   17     -5.19      0.00
    6  -14   17      0.70      0.00
   -4  -13   17      0.28      0.00
   -3  -13   17     -0.09      0.00
   -2  -13   17     -0.17      0.00
   -1  -13   17      2.39      0.00
    0  -13   17      2.05      0.00
    1  -13   17      2.83      0.00
    2  -13   17      0.66      0.00
    3  -13   17     -0.24      0.00
    4  -13   17      1.19      0.00
    5  -13   17     -1.76      0.00
    6  -13   17     -0.11      0.00
    7  -13   17      0.86      0.00
   -5  -12   17     -0.85      0.00
   -4  -12   17      0.50      0.00
   -3  -12   17      0.96      0.00
   -2  -12   17      0.28      0.00
   -1  -12   17      0.14      0.00
    0  -12   17      0.91      0.00
    1  -12   17      2.10      0.00
    2  -12   17     -0.05      0.00
    3  -12   17      1.86      0.00
    4  -12   17      1.43      0.00
    5  -12   17      0.22      0.00
    6  -12   17     -1.52      0.00
    7  -12   17     -1.17      0.00
    8  -12   17      1.32      0.00
   -6  -11   17     -0.13      0.00
   -5  -11   17      0.49      0.00
   -4  -11   17     -0.80      0.00
   -3  -11   17      0.05      0.00
   -2  -11   17     -0.89      0.00
   -1  -11   17     -1.97      0.00
    0  -11   17     -2.28      0.00
    1  -11   17     -1.01      0.00
    2  -11   17      0.01      0.00
    3  -11   17      0.70      0.00
    4  -11   17      0.50      0.00
    5  -11   17      0.81      0.00
    6  -11   17     -0.74      0.00
    7  -11   17     -1.30      0.00
    8  -11   17      1.27      0.00
   -6  -10   17      0.53      0.00
   -5  -10   17      1.27      0.00
   -4  -10   17     -1.61      0.00
   -3  -10   17     -0.11      0.00
   -2  -10   17     -0.13      0.00
   -1  -10   17     -1.71      0.00
    0  -10   17     -1.18      0.00
    1  -10   17      0.06      0.00
    2  -10   17     -2.54      0.00
    3  -10   17      0.54      0.00
    4  -10   17      0.17      0.00
    5  -10   17      0.54      0.00
    6  -10   17      1.56      0.00
    7  -10   17     -0.61      0.00
    8  -10   17      0.43      0.00
   -7   -9   17     -0.17      0.00
   -6   -9   17     -0.87      0.00
   -5   -9   17      0.88      0.00
   -4   -9   17      0.85      0.00
   -3   -9   17      0.56      0.00
   -2   -9   17      0.48      0.00
   -1   -9   17     -0.69      0.00
    0   -9   17      0.82      0.00
    1   -9   17     -0.12      0.00
    2   -9   17     -1.63      0.00
    3   -9   17     -0.81      0.00
    4   -9   17     -0.27      0.00
    5   -9   17     -0.93      0.00
    6   -9   17      0.76      0.00
    7   -9   17     -0.66      0.00
    8   -9   17     -0.61      0.00
   -7   -8   17     -0.06      0.00
   -6   -8   17     -2.32      0.00
   -5   -8   17      1.09      0.00
   -4   -8   17     -0.61      0.00
   -3   -8   17     -0.26      0.00
   -2   -8   17      2.13      0.00
   -1   -8   17     -0.86      0.00
    0   -8   17      0.96      0.00
    1   -8   17      1.71      0.00
    2   -8   17     -0.99      0.00
    3   -8   17     -2.10      0.00
    4   -8   17     -0.82      0.00
    5   -8   17     -1.31      0.00
    6   -8   17     -1.32      0.00
    7   -8   17     -1.00      0.00
    8   -8   17     -1.23      0.00
    9   -8   17      0.65      0.00
   -8   -7   17     -0.13      0.00
   -7   -7   17     -0.19      0.00
   -6   -7   17     -0.88      0.00
   -5   -7   17     -0.49      0.00
   -4   -7   17     -0.45      0.00
   -3   -7   17      0.48      0.00
   -2   -7   17      3.40      0.00
   -1   -7   17     -0.40      0.00
    0   -7   17      0.47      0.00
    1   -7   17      1.72      0.00
    2   -7   17      1.00      0.00
    3   -7   17      0.90      0.00
    4   -7   17     -0.19      0.00
    5   -7   17     -0.04      0.00
    6   -7   17      0.20      0.00
    7   -7   17     -0.88      0.00
    8   -7   17      0.07      0.00
    9   -7   17      1.65      0.00
   -8   -6   17      1.04      0.00
   -7   -6   17     -0.05      0.00
   -6   -6   17      0.05      0.00
   -5   -6   17     -0.51      0.00
   -4   -6   17      0.20      0.00
   -3   -6   17     -1.19      0.00
   -2   -6   17      0.65      0.00
   -1   -6   17     -0.15      0.00
    0   -6   17      2.71      0.00
    1   -6   17      0.50      0.00
    2   -6   17      1.99      0.00
    3   -6   17      3.19      0.00
    4   -6   17      0.83      0.00
    5   -6   17      2.88      0.00
    6   -6   17     -0.18      0.00
    7   -6   17     -1.98      0.00
    8   -6   17     -0.68      0.00
    9   -6   17      0.56      0.00
   -8   -5   17      1.64      0.00
   -7   -5   17      0.11      0.00
   -6   -5   17      0.31      0.00
   -5   -5   17      0.04      0.00
   -4   -5   17     -0.21      0.00
   -3   -5   17     -3.31      0.00
   -2   -5   17     -0.86      0.00
   -1   -5   17     -1.26      0.00
    0   -5   17      3.27      0.00
    1   -5   17     -1.98      0.00
    2   -5   17     -1.83      0.00
    3   -5   17      0.18      0.00
    4   -5   17      0.34      0.00
    5   -5   17      4.39      0.00
    6   -5   17      2.25      0.00
    7   -5   17     -0.33      0.00
    8   -5   17     -0.37      0.00
    9   -5   17      0.88      0.00
   -9   -4   17     -0.28      0.00
   -8   -4   17      2.80      0.00
   -7   -4   17     -0.68      0.00
   -6   -4   17      1.54      0.00
   -5   -4   17      0.00      0.00
   -4   -4   17      1.13      0.00
   -3   -4   17      0.06      0.00
   -2   -4   17     -3.20      0.00
   -1   -4   17     -5.29      0.00
    0   -4   17     -0.50      0.00
    1   -4   17      1.50      0.00
    2   -4   17     -4.64      0.00
    3   -4   17     -2.41      0.00
    4   -4   17     -4.47      0.00
    5   -4   17      0.76      0.00
    6   -4   17      1.29      0.00
    7   -4   17     -0.22      0.00
    8   -4   17     -0.27      0.00
    9   -4   17     -0.26      0.00
   -9   -3   17     -1.33      0.00
   -8   -3   17      0.68      0.00
   -7   -3   17     -2.13      0.00
   -6   -3   17     -0.88      0.00
   -5   -3   17     -2.19      0.00
   -4   -3   17      4.31      0.00
   -3   -3   17      2.57      0.00
   -2   -3   17     -2.51      0.00
   -1   -3   17     -4.79      0.00
    0   -3   17     -3.52      0.00
    1   -3   17      5.57      0.00
    2   -3   17     -2.43      0.00
    3   -3   17     -1.57      0.00
    4   -3   17     -6.13      0.00
    5   -3   17     -1.05      0.00
    6   -3   17     -0.49      0.00
    7   -3   17     -0.05      0.00
    8   -3   17     -1.96      0.00
    9   -3   17     -0.94      0.00
   -9   -2   17     -1.69      0.00
   -8   -2   17      1.51      0.00
   -7   -2   17      0.40      0.00
   -6   -2   17      0.46      0.00
   -5   -2   17     -1.97      0.00
   -4   -2   17      2.50      0.00
   -3   -2   17      4.87      0.00
   -2   -2   17      5.43      0.00
   -1   -2   17      2.71      0.00
    0   -2   17     -4.97      0.00
    1   -2   17      7.59      0.00
    2   -2   17      0.70      0.00
    3   -2   17      2.99      0.00
    4   -2   17     -1.57      0.00
    5   -2   17     -0.66      0.00
    6   -2   17     -0.02      0.00
    7   -2   17      2.34      0.00
    8   -2   17     -0.71      0.00
    9   -2   17     -0.32      0.00
   -9   -1   17     -0.71      0.00
   -8   -1   17      0.52      0.00
   -7   -1   17      1.53      0.00
   -6   -1   17      0.68      0.00
   -5   -1   17     -2.77      0.00
   -4   -1   17     -1.64      0.00
   -3   -1   17      3.33      0.00
   -2   -1   17      3.29      0.00
   -1   -1   17      6.38      0.00
    0   -1   17     -5.60      0.00
    1   -1   17      5.16      0.00
    2   -1   17      2.49      0.00
    3   -1   17      5.39      0.00
    4   -1   17     -0.29      0.00
    5   -1   17     -0.76      0.00
    6   -1   17     -0.82      0.00
    7   -1   17      1.42      0.00
    8   -1   17      0.45      0.00
    9   -1   17      0.49      0.00
  -10    0   17      0.36      0.00
   -9    0   17     -1.51      0.00
   -8    0   17     -0.27      0.00
   -7    0   17     -1.38      0.00
   -6    0   17     -0.62      0.00
   -5    0   17     -4.31      0.00
   -4    0   17     -4.54      0.00
   -3    0   17     -2.54      0.00
   -2    0   17     -2.59      0.00
   -1    0   17      2.09      0.00
    0    0   17     -6.04      0.00
    1    0   17     -1.79      0.00
    2    0   17      1.32      0.00
    3    0   17      3.53      0.00
    4    0   17      2.56      0.00
    5    0   17     -1.94      0.00
    6    0   17     -0.95      0.00
    7    0   17      1.03      0.00
    8    0   17     -0.86      0.00
  -10    1   17      1.21      0.00
   -9    1   17     -0.84      0.00
   -8    1   17     -0.26      0.00
   -7    1   17      0.32      0.00
   -6    1   17      2.00      0.00
   -5    1   17      1.40      0.00
   -4    1   17     -2.36      0.00
   -3    1   17     -1.14      0.00
   -2    1   17     -2.83      0.00
   -1    1   17     -1.89      0.00
    0    1   17     -2.38      0.00
    1    1   17     -7.11      0.00
    2    1   17     -2.18      0.00
    3    1   17      1.34      0.00
    4    1   17      1.52      0.00
    5    1   17      1.14      0.00
    6    1   17     -1.18      0.00
    7    1   17      1.18      0.00
    8    1   17      0.35      0.00
  -10    2   17      0.77      0.00
   -9    2   17      1.34      0.00
   -8    2   17      0.78      0.00
   -7    2   17      1.92      0.00
   -6    2   17      3.13      0.00
   -5    2   17      4.87      0.00
   -4    2   17      0.33      0.00
   -3    2   17      3.21      0.00
   -2    2   17     -0.09      0.00
   -1    2   17      4.04      0.00
    0    2   17      4.37      0.00
    1    2   17     -4.71      0.00
    2    2   17     -0.09      0.00
    3    2   17      0.99      0.00
    4    2   17     -0.56      0.00
    5    2   17      1.97      0.00
    6    2   17     -0.67      0.00
    7    2   17      0.80      0.00
    8    2   17      0.98      0.00
  -10    3   17     -0.54      0.00
   -9    3   17      0.28      0.00
   -8    3   17     -1.45      0.00
   -7    3   17     -0.23      0.00
   -6    3   17     -2.18      0.00
   -5    3   17      2.91      0.00
   -4    3   17     -2.96      0.00
   -3    3   17      5.81      0.00
   -2    3   17     -0.71      0.00
   -1    3   17      1.07      0.00
    0    3   17      2.79      0.00
    1    3   17     -4.05      0.00
    2    3   17     -3.09      0.00
    3    3   17     -0.37      0.00
    4    3   17     -2.49      0.00
    5    3   17     -0.50      0.00
    6    3   17     -0.97      0.00
    7    3   17     -2.03      0.00
    8    3   17      0.35      0.00
  -10    4   17     -0.36      0.00
   -9    4   17     -0.71      0.00
   -8    4   17     -2.82      0.00
   -7    4   17     -2.22      0.00
   -6    4   17     -2.99      0.00
   -5    4   17     -0.13      0.00
   -4    4   17     -5.38      0.00
   -3    4   17      3.80      0.00
   -2    4   17     -2.24      0.00
   -1    4   17     -1.76      0.00
    0    4   17      0.89      0.00
    1    4   17     -1.75      0.00
    2    4   17     -2.11      0.00
    3    4   17      1.68      0.00
    4    4   17     -1.94      0.00
    5    4   17     -0.63      0.00
    6    4   17     -1.88      0.00
    7    4   17     -1.14      0.00
  -10    5   17      0.03      0.00
   -9    5   17      0.65      0.00
   -8    5   17     -0.32      0.00
   -7    5   17      0.69      0.00
   -6    5   17      0.26      0.00
   -5    5   17      2.02      0.00
   -4    5   17     -4.95      0.00
   -3    5   17      2.97      0.00
   -2    5   17      1.70      0.00
   -1    5   17      5.42      0.00
    0    5   17      2.41      0.00
    1    5   17      3.09      0.00
    2    5   17      1.17      0.00
    3    5   17      1.33      0.00
    4    5   17      1.08      0.00
    5    5   17     -0.04      0.00
    6    5   17      1.39      0.00
    7    5   17      0.31      0.00
  -10    6   17     -0.06      0.00
   -9    6   17      2.15      0.00
   -8    6   17      0.35      0.00
   -7    6   17      2.91      0.00
   -6    6   17      0.49      0.00
   -5    6   17      3.92      0.00
   -4    6   17     -4.12      0.00
   -3    6   17     -1.34      0.00
   -2    6   17     -0.56      0.00
   -1    6   17      3.54      0.00
    0    6   17     -0.35      0.00
    1    6   17      2.94      0.00
    2    6   17      3.09      0.00
    3    6   17      0.85      0.00
    4    6   17      4.62      0.00
    5    6   17      1.21      0.00
    6    6   17      1.32      0.00
    7    6   17      0.79      0.00
   -9    7   17      0.94      0.00
   -8    7   17     -1.95      0.00
   -7    7   17     -0.66      0.00
   -6    7   17     -0.22      0.00
   -5    7   17      1.18      0.00
   -4    7   17     -0.15      0.00
   -3    7   17     -3.79      0.00
   -2    7   17     -5.53      0.00
   -1    7   17     -1.96      0.00
    0    7   17     -3.70      0.00
    1    7   17     -4.02      0.00
    2    7   17      0.52      0.00
    3    7   17     -2.02      0.00
    4    7   17     -0.52      0.00
    5    7   17     -1.42      0.00
    6    7   17     -1.28      0.00
   -9    8   17     -1.01      0.00
   -8    8   17     -0.58      0.00
   -7    8   17     -1.13      0.00
   -6    8   17     -0.69      0.00
   -5    8   17      0.72      0.00
   -4    8   17      0.85      0.00
   -3    8   17      0.64      0.00
   -2    8   17     -3.51      0.00
   -1    8   17      0.31      0.00
    0    8   17     -1.66      0.00
    1    8   17     -4.06      0.00
    2    8   17     -1.48      0.00
    3    8   17     -0.11      0.00
    4    8   17     -1.99      0.00
    5    8   17      0.85      0.00
    6    8   17     -0.78      0.00
   -9    9   17     -0.43      0.00
   -8    9   17      1.52      0.00
   -7    9   17      1.29      0.00
   -6    9   17      0.49      0.00
   -5    9   17      0.55      0.00
   -4    9   17      2.59      0.00
   -3    9   17      5.01      0.00
   -2    9   17      2.53      0.00
   -1    9   17      1.81      0.00
    0    9   17      3.59      0.00
    1    9   17     -0.66      0.00
    2    9   17     -0.21      0.00
    3    9   17      2.11      0.00
    4    9   17     -0.55      0.00
    5    9   17      0.69      0.00
   -9   10   17     -1.09      0.00
   -8   10   17      0.18      0.00
   -7   10   17     -0.89      0.00
   -6   10   17      1.51      0.00
   -5   10   17     -0.06      0.00
   -4   10   17     -0.41      0.00
   -3   10   17      1.38      0.00
   -2   10   17      1.74      0.00
   -1   10   17     -0.14      0.00
    0   10   17      2.92      0.00
    1   10   17      0.36      0.00
    2   10   17     -1.36      0.00
    3   10   17      2.14      0.00
    4   10   17     -0.78      0.00
   -8   11   17      0.43      0.00
   -7   11   17     -2.03      0.00
   -6   11   17     -1.15      0.00
   -5   11   17     -1.76      0.00
   -4   11   17     -3.14      0.00
   -3   11   17     -2.37      0.00
   -2   11   17     -0.65      0.00
   -1   11   17     -1.18      0.00
    0   11   17      0.00      0.00
    1   11   17     -0.53      0.00
    2   11   17     -1.38      0.00
    3   11   17      0.80      0.00
   -8   12   17      0.05      0.00
   -7   12   17      0.69      0.00
   -6   12   17     -0.83      0.00
   -5   12   17      0.47      0.00
   -4   12   17      0.56      0.00
   -3   12   17     -2.64      0.00
   -2   12   17     -0.41      0.00
   -1   12   17     -0.46      0.00
    0   12   17      1.58      0.00
    1   12   17      0.27      0.00
    2   12   17      0.13      0.00
    3   12   17     -0.94      0.00
   -7   13   17      1.29      0.00
   -6   13   17      1.03      0.00
   -5   13   17      1.23      0.00
   -4   13   17      1.74      0.00
   -3   13   17     -0.16      0.00
   -2   13   17      0.24      0.00
   -1   13   17     -0.46      0.00
    0   13   17      0.69      0.00
    1   13   17     -0.26      0.00
    2   13   17      0.06      0.00
   -6   14   17     -0.31      0.00
   -5   14   17     -0.19      0.00
   -4   14   17      1.11      0.00
   -3   14   17      0.34      0.00
   -2   14   17     -0.29      0.00
   -1   14   17     -1.04      0.00
    0   14   17     -0.15      0.00
   -3   15   17     -0.45      0.00
    0  -16   18     -0.56      0.00
    1  -16   18     -0.23      0.00
    2  -16   18     -1.83      0.00
    3  -16   18      1.33      0.00
    4  -16   18     -0.74      0.00
   -2  -15   18     -0.03      0.00
   -1  -15   18      0.80      0.00
    0  -15   18      0.18      0.00
    1  -15   18     -0.83      0.00
    2  -15   18     -0.38      0.00
    3  -15   18     -0.36      0.00
    4  -15   18     -0.41      0.00
    5  -15   18      1.26      0.00
   -3  -14   18     -0.65      0.00
   -2  -14   18     -0.11      0.00
   -1  -14   18     -0.69      0.00
    0  -14   18     -1.05      0.00
    1  -14   18     -1.13      0.00
    2  -14   18     -0.55      0.00
    3  -14   18     -0.07      0.00
    4  -14   18     -0.49      0.00
    5  -14   18      1.17      0.00
    6  -14   18      0.85      0.00
   -4  -13   18      0.78      0.00
   -3  -13   18     -0.42      0.00
   -2  -13   18     -0.17      0.00
   -1  -13   18      1.27      0.00
    0  -13   18      1.03      0.00
    1  -13   18      1.00      0.00
    2  -13   18      0.66      0.00
    3  -13   18     -1.09      0.00
    4  -13   18     -1.90      0.00
    5  -13   18     -3.71      0.00
    6  -13   18      0.76      0.00
    7  -13   18      1.59      0.00
   -5  -12   18     -0.83      0.00
   -4  -12   18      0.80      0.00
   -3  -12   18      1.14      0.00
   -2  -12   18      0.03      0.00
   -1  -12   18      2.18      0.00
    0  -12   18      1.76      0.00
    1  -12   18      2.14      0.00
    2  -12   18      0.65      0.00
    3  -12   18     -0.38      0.00
    4  -12   18      1.33      0.00
    5  -12   18     -1.09      0.00
    6  -12   18     -0.73      0.00
    7  -12   18      1.32      0.00
   -5  -11   18     -1.51      0.00
   -4  -11   18      0.41      0.00
   -3  -11   18      0.32      0.00
   -2  -11   18     -1.35      0.00
   -1  -11   18     -1.09      0.00
    0  -11   18     -1.45      0.00
    1  -11   18      1.06      0.00
    2  -11   18      0.93      0.00
    3  -11   18      1.51      0.00
    4  -11   18      0.81      0.00
    5  -11   18     -1.02      0.00
    6  -11   18     -3.69      0.00
    7  -11   18     -0.22      0.00
    8  -11   18      1.15      0.00
   -6  -10   18      0.21      0.00
   -5  -10   18      0.03      0.00
   -4  -10   18     -0.92      0.00
   -3  -10   18      0.17      0.00
   -2  -10   18     -1.78      0.00
   -1  -10   18     -1.01      0.00
    0  -10   18     -1.84      0.00
    1  -10   18     -1.31      0.00
    2  -10   18      0.15      0.00
    3  -10   18      1.07      0.00
    4  -10   18      0.85      0.00
    5  -10   18      2.97      0.00
    6  -10   18     -0.99      0.00
    7  -10   18     -0.59      0.00
    8  -10   18      1.30      0.00
   -7   -9   18      0.37      0.00
   -6   -9   18     -0.20      0.00
   -5   -9   18      0.64      0.00
   -4   -9   18     -0.21      0.00
   -3   -9   18      1.31      0.00
   -2   -9   18     -0.14      0.00
   -1   -9   18     -0.11      0.00
    0   -9   18     -0.02      0.00
    1   -9   18     -0.95      0.00
    2   -9   18     -3.36      0.00
    3   -9   18      0.16      0.00
    4   -9   18      1.03      0.00
    5   -9   18      2.60      0.00
    6   -9   18      0.14      0.00
    7   -9   18     -2.30      0.00
    8   -9   18     -0.13      0.00
   -7   -8   18      0.23      0.00
   -6   -8   18     -0.26      0.00
   -5   -8   18     -0.83      0.00
   -4   -8   18      0.27      0.00
   -3   -8   18      1.61      0.00
   -2   -8   18     -0.79      0.00
   -1   -8   18     -0.63      0.00
    0   -8   18      2.00      0.00
    1   -8   18      0.61      0.00
    2   -8   18     -2.69      0.00
    3   -8   18     -2.18      0.00
    4   -8   18     -0.52      0.00
    5   -8   18      0.29      0.00
    6   -8   18      0.98      0.00
    7   -8   18     -1.15      0.00
    8   -8   18     -1.66      0.00
   -8   -7   18     -0.24      0.00
   -7   -7   18      0.11      0.00
   -6   -7   18     -1.34      0.00
   -5   -7   18      0.15      0.00
   -4   -7   18     -0.01      0.00
   -3   -7   18      1.56      0.00
   -2   -7   18     -0.23      0.00
   -1   -7   18     -0.73      0.00
    0   -7   18      0.50      0.00
    1   -7   18      2.70      0.00
    2   -7   18     -0.70      0.00
    3   -7   18     -3.93      0.00
    4   -7   18     -1.97      0.00
    5   -7   18     -0.01      0.00
    6   -7   18      0.09      0.00
    7   -7   18     -0.09      0.00
    8   -7   18     -1.09      0.00
    9   -7   18      0.17      0.00
   -8   -6   18     -0.06      0.00
   -7   -6   18     -0.50      0.00
   -6   -6   18     -0.12      0.00
   -5   -6   18     -0.32      0.00
   -4   -6   18     -0.20      0.00
   -3   -6   18      2.39      0.00
   -2   -6   18      1.31      0.00
   -1   -6   18      1.03      0.00
    0   -6   18     -0.83      0.00
    1   -6   18      3.59      0.00
    2   -6   18      2.96      0.00
    3   -6   18     -0.62      0.00
    4   -6   18     -0.19      0.00
    5   -6   18     -0.44      0.00
    6   -6   18     -0.12      0.00
    7   -6   18      0.02      0.00
    8   -6   18     -0.03      0.00
    9   -6   18      1.51      0.00
   -8   -5   18      0.87      0.00
   -7   -5   18     -0.07      0.00
   -6   -5   18      0.70      0.00
   -5   -5   18     -1.53      0.00
   -4   -5   18     -1.11      0.00
   -3   -5   18      0.37      0.00
   -2   -5   18     -0.52      0.00
   -1   -5   18      2.12      0.00
    0   -5   18      1.45      0.00
    1   -5   18      1.26      0.00
    2   -5   18      3.17      0.00
    3   -5   18      2.37      0.00
    4   -5   18      2.45      0.00
    5   -5   18      2.26      0.00
    6   -5   18      0.10      0.00
    7   -5   18     -0.83      0.00
    8   -5   18     -0.68      0.00
    9   -5   18      0.79      0.00
   -9   -4   18      0.70      0.00
   -8   -4   18      0.97      0.00
   -7   -4   18     -0.45      0.00
   -6   -4   18      0.61      0.00
   -5   -4   18     -0.47      0.00
   -4   -4   18     -0.39      0.00
   -3   -4   18     -2.58      0.00
   -2   -4   18     -2.27      0.00
   -1   -4   18     -2.60      0.00
    0   -4   18      0.48      0.00
    1   -4   18     -3.84      0.00
    2   -4   18     -0.21      0.00
    3   -4   18     -0.44      0.00
    4   -4   18      0.27      0.00
    5   -4   18      1.84      0.00
    6   -4   18      1.52      0.00
    7   -4   18      1.06      0.00
    8   -4   18     -0.87      0.00
    9   -4   18      0.24      0.00
   -9   -3   18      0.50      0.00
   -8   -3   18      1.72      0.00
   -7   -3   18     -2.12      0.00
   -6   -3   18      0.53      0.00
   -5   -3   18     -0.14      0.00
   -4   -3   18      1.07      0.00
   -3   -3   18     -1.04      0.00
   -2   -3   18     -2.97      0.00
   -1   -3   18     -6.58      0.00
    0   -3   18      0.24      0.00
    1   -3   18     -1.50      0.00
    2   -3   18     -2.73      0.00
    3   -3   18     -2.82      0.00
    4   -3   18     -3.90      0.00
    5   -3   18     -0.97      0.00
    6   -3   18     -0.52      0.00
    7   -3   18     -0.08      0.00
    8   -3   18     -0.65      0.00
    9   -3   18     -0.89      0.00
   -9   -2   18     -1.03      0.00
   -8   -2   18      1.83      0.00
   -7   -2   18     -2.08      0.00
   -6   -2   18      0.99      0.00
   -5   -2   18     -0.98      0.00
   -4   -2   18      4.84      0.00
   -3   -2   18      1.87      0.00
   -2   -2   18      1.36      0.00
   -1   -2   18     -3.85      0.00
    0   -2   18      1.84      0.00
    1   -2   18      0.99      0.00
    2   -2   18     -0.84      0.00
    3   -2   18      0.30      0.00
    4   -2   18     -2.55      0.00
    5   -2   18     -0.21      0.00
    6   -2   18      0.83      0.00
    7   -2   18      0.55      0.00
    8   -2   18     -1.29      0.00
   -9   -1   18     -1.04      0.00
   -8   -1   18      2.40      0.00
   -7   -1   18      0.36      0.00
   -6   -1   18      1.58      0.00
   -5   -1   18     -2.08      0.00
   -4   -1   18      3.76      0.00
   -3   -1   18      3.95      0.00
   -2   -1   18      6.89      0.00
   -1   -1   18     -0.09      0.00
    0   -1   18      1.40      0.00
    1   -1   18      4.12      0.00
    2   -1   18      1.30      0.00
    3   -1   18      3.62      0.00
    4   -1   18     -0.39      0.00
    5   -1   18     -0.96      0.00
    6   -1   18      0.90      0.00
    7   -1   18      1.01      0.00
    8   -1   18      0.66      0.00
   -9    0   18     -1.12      0.00
   -8    0   18     -0.31      0.00
   -7    0   18     -0.18      0.00
   -6    0   18      0.37      0.00
   -5    0   18     -4.49      0.00
   -4    0   18     -1.03      0.00
   -3    0   18      1.01      0.00
   -2    0   18      1.47      0.00
   -1    0   18      0.58      0.00
    0    0   18     -3.99      0.00
    1    0   18      4.25      0.00
    2    0   18      0.45      0.00
    3    0   18      3.37      0.00
    4    0   18     -1.69      0.00
    5    0   18     -2.83      0.00
    6    0   18     -0.07      0.00
    7    0   18      0.22      0.00
    8    0   18      1.04      0.00
  -10    1   18     -0.21      0.00
   -9    1   18     -1.83      0.00
   -8    1   18     -0.03      0.00
   -7    1   18     -1.72      0.00
   -6    1   18      1.56      0.00
   -5    1   18     -4.57      0.00
   -4    1   18     -3.53      0.00
   -3    1   18     -2.27      0.00
   -2    1   18     -1.04      0.00
   -1    1   18      0.76      0.00
    0    1   18     -8.32      0.00
    1    1   18     -0.05      0.00
    2    1   18      0.59      0.00
    3    1   18      2.25      0.00
    4    1   18      2.42      0.00
    5    1   18     -2.73      0.00
    6    1   18      0.99      0.00
    7    1   18     -0.08      0.00
    8    1   18     -0.27      0.00
  -10    2   18      1.67      0.00
   -9    2   18      0.03      0.00
   -8    2   18     -0.05      0.00
   -7    2   18      0.72      0.00
   -6    2   18      4.21      0.00
   -5    2   18      0.47      0.00
   -4    2   18     -0.94      0.00
   -3    2   18     -1.52      0.00
   -2    2   18      0.83      0.00
   -1    2   18      1.71      0.00
    0    2   18     -3.89      0.00
    1    2   18     -2.88      0.00
    2    2   18      0.53      0.00
    3    2   18      1.02      0.00
    4    2   18      3.13      0.00
    5    2   18     -0.53      0.00
    6    2   18      0.30      0.00
    7    2   18      0.53      0.00
    8    2   18      0.31      0.00
  -10    3   18      1.01      0.00
   -9    3   18      1.14      0.00
   -8    3   18     -0.52      0.00
   -7    3   18      0.46      0.00
   -6    3   18      3.39      0.00
   -5    3   18      2.27      0.00
   -4    3   18      0.68      0.00
   -3    3   18     -1.27      0.00
   -2    3   18      0.12      0.00
   -1    3   18      4.98      0.00
    0    3   18      0.67      0.00
    1    3   18     -3.95      0.00
    2    3   18      1.74      0.00
    3    3   18      0.01      0.00
    4    3   18      0.92      0.00
    5    3   18     -0.35      0.00
    6    3   18     -0.64      0.00
    7    3   18      1.16      0.00
  -10    4   18     -1.12      0.00
   -9    4   18     -0.09      0.00
   -8    4   18     -1.85      0.00
   -7    4   18     -1.45      0.00
   -6    4   18     -1.74      0.00
   -5    4   18      2.54      0.00
   -4    4   18     -1.09      0.00
   -3    4   18      2.19      0.00
   -2    4   18     -1.72      0.00
   -1    4   18      0.38      0.00
    0    4   18     -0.78      0.00
    1    4   18     -5.15      0.00
    2    4   18     -1.87      0.00
    3    4   18     -1.96      0.00
    4    4   18     -1.26      0.00
    5    4   18     -0.91      0.00
    6    4   18     -2.61      0.00
    7    4   18     -0.12      0.00
  -10    5   18     -0.05      0.00
   -9    5   18      0.35      0.00
   -8    5   18     -0.90      0.00
   -7    5   18     -1.75      0.00
   -6    5   18     -1.46      0.00
   -5    5   18      0.77      0.00
   -4    5   18     -1.21      0.00
   -3    5   18      3.13      0.00
   -2    5   18      0.24      0.00
   -1    5   18      0.52      0.00
    0    5   18      3.38      0.00
    1    5   18     -1.43      0.00
    2    5   18     -1.01      0.00
    3    5   18      0.94      0.00
    4    5   18     -1.89      0.00
    5    5   18      1.61      0.00
    6    5   18     -2.58      0.00
    7    5   18      0.02      0.00
   -9    6   18      0.45      0.00
   -8    6   18      1.55      0.00
   -7    6   18      0.98      0.00
   -6    6   18      1.20      0.00
   -5    6   18      0.46      0.00
   -4    6   18     -3.22      0.00
   -3    6   18      2.33      0.00
   -2    6   18      2.31      0.00
   -1    6   18      3.97      0.00
    0    6   18      3.54      0.00
    1    6   18      3.77      0.00
    2    6   18      0.58      0.00
    3    6   18      3.39      0.00
    4    6   18      0.01      0.00
    5    6   18      2.47      0.00
    6    6   18      0.55      0.00
   -9    7   18      0.85      0.00
   -8    7   18      0.63      0.00
   -7    7   18      0.28      0.00
   -6    7   18     -0.95      0.00
   -5    7   18      1.18      0.00
   -4    7   18     -3.39      0.00
   -3    7   18     -2.04      0.00
   -2    7   18     -3.43      0.00
   -1    7   18     -0.45      0.00
    0    7   18     -2.74      0.00
    1    7   18      4.09      0.00
    2    7   18      0.79      0.00
    3    7   18      2.11      0.00
    4    7   18      0.39      0.00
    5    7   18      0.13      0.00
    6    7   18     -0.44      0.00
   -9    8   18      0.26      0.00
   -8    8   18     -1.87      0.00
   -7    8   18     -0.71      0.00
   -6    8   18     -0.60      0.00
   -5    8   18     -0.23      0.00
   -4    8   18     -0.48      0.00
   -3    8   18     -2.62      0.00
   -2    8   18     -4.39      0.00
   -1    8   18     -0.68      0.00
    0    8   18     -5.45      0.00
    1    8   18     -2.50      0.00
    2    8   18     -1.82      0.00
    3    8   18     -1.27      0.00
    4    8   18     -1.05      0.00
    5    8   18     -0.72      0.00
   -9    9   18     -0.10      0.00
   -8    9   18      0.92      0.00
   -7    9   18      2.38      0.00
   -6    9   18     -0.68      0.00
   -5    9   18      1.00      0.00
   -4    9   18      1.52      0.00
   -3    9   18      3.31      0.00
   -2    9   18     -1.23      0.00
   -1    9   18      3.31      0.00
    0    9   18     -2.12      0.00
    1    9   18     -1.67      0.00
    2    9   18     -0.82      0.00
    3    9   18      1.00      0.00
    4    9   18     -0.66      0.00
    5    9   18      1.57      0.00
   -8   10   18     -1.06      0.00
   -7   10   18      2.81      0.00
   -6   10   18      0.11      0.00
   -5   10   18      0.91      0.00
   -4   10   18      1.93      0.00
   -3   10   18      3.95      0.00
   -2   10   18     -0.04      0.00
   -1   10   18      2.93      0.00
    0   10   18      1.66      0.00
    1   10   18     -0.27      0.00
    2   10   18      0.88      0.00
    3   10   18      1.77      0.00
    4   10   18     -0.91      0.00
   -8   11   18     -1.44      0.00
   -7   11   18     -0.02      0.00
   -6   11   18      0.38      0.00
   -5   11   18     -1.18      0.00
   -4   11   18     -1.69      0.00
   -3   11   18      0.45      0.00
   -2   11   18     -0.11      0.00
   -1   11   18      1.07      0.00
    0   11   18      1.39      0.00
    1   11   18     -0.06      0.00
    2   11   18     -0.94      0.00
    3   11   18      1.29      0.00
   -7   12   18     -2.26      0.00
   -6   12   18     -0.49      0.00
   -5   12   18     -1.03      0.00
   -4   12   18     -2.59      0.00
   -3   12   18     -1.49      0.00
   -2   12   18     -1.07      0.00
   -1   12   18      0.47      0.00
    0   12   18     -0.07      0.00
    1   12   18     -0.87      0.00
    2   12   18     -1.35      0.00
   -6   13   18      1.08      0.00
   -5   13   18      0.91      0.00
   -4   13   18      0.82      0.00
   -3   13   18     -1.65      0.00
   -2   13   18     -0.40      0.00
   -1   13   18      0.02      0.00
    0   13   18      0.72      0.00
    1   13   18      0.25      0.00
   -5   14   18      0.68      0.00
   -4   14   18      1.48      0.00
   -3   14   18     -0.45      0.00
   -2   14   18     -0.69      0.00
   -1   14   18     -0.35      0.00
    1  -16   19      0.29      0.00
    2  -16   19      0.03      0.00
    3  -16   19      0.99      0.00
   -1  -15   19      1.15      0.00
    0  -15   19     -1.03      0.00
    1  -15   19      0.92      0.00
    2  -15   19     -2.26      0.00
    3  -15   19      2.37      0.00
    4  -15   19     -0.97      0.00
    5  -15   19      1.52      0.00
   -3  -14   19     -0.01      0.00
   -2  -14   19     -0.59      0.00
   -1  -14   19      0.84      0.00
    0  -14   19     -1.65      0.00
    1  -14   19      0.06      0.00
    2  -14   19     -1.14      0.00
    3  -14   19      1.00      0.00
    4  -14   19     -0.92      0.00
    5  -14   19      1.64      0.00
    6  -14   19      0.49      0.00
   -4  -13   19      0.81      0.00
   -3  -13   19     -0.64      0.00
   -2  -13   19     -0.43      0.00
   -1  -13   19     -0.21      0.00
    0  -13   19     -0.48      0.00
    1  -13   19     -0.25      0.00
    2  -13   19     -1.17      0.00
    3  -13   19      0.15      0.00
    4  -13   19     -2.20      0.00
    5  -13   19      1.42      0.00
    6  -13   19      0.32      0.00
    7  -13   19      1.58      0.00
   -5  -12   19     -0.38      0.00
   -4  -12   19      0.70      0.00
   -3  -12   19     -0.50      0.00
   -2  -12   19      0.91      0.00
   -1  -12   19      2.09      0.00
    0  -12   19      1.84      0.00
    1  -12   19      1.42      0.00
    2  -12   19     -0.25      0.00
    3  -12   19     -0.96      0.00
    4  -12   19     -1.28      0.00
    5  -12   19     -1.39      0.00
    6  -12   19     -0.31      0.00
    7  -12   19      1.29      0.00
   -5  -11   19     -0.73      0.00
   -4  -11   19      1.19      0.00
   -3  -11   19      0.96      0.00
   -2  -11   19     -0.60      0.00
   -1  -11   19      0.47      0.00
    0  -11   19     -0.18      0.00
    1  -11   19      2.34      0.00
    2  -11   19      1.71      0.00
    3  -11   19     -0.82      0.00
    4  -11   19     -0.11      0.00
    5  -11   19     -1.93      0.00
    6  -11   19     -1.98      0.00
    7  -11   19      2.55      0.00
   -6  -10   19      1.21      0.00
   -5  -10   19     -0.58      0.00
   -4  -10   19      0.08      0.00
   -3  -10   19     -0.66      0.00
   -2  -10   19     -1.83      0.00
   -1  -10   19     -1.41      0.00
    0  -10   19     -2.66      0.00
    1  -10   19      1.07      0.00
    2  -10   19      1.68      0.00
    3  -10   19      1.21      0.00
    4  -10   19      0.53      0.00
    5  -10   19     -0.39      0.00
    6  -10   19     -3.37      0.00
    7  -10   19      1.62      0.00
    8  -10   19      1.00      0.00
   -7   -9   19     -0.17      0.00
   -6   -9   19     -0.40      0.00
   -5   -9   19     -0.05      0.00
   -4   -9   19     -0.04      0.00
   -3   -9   19      0.32      0.00
   -2   -9   19     -1.16      0.00
   -1   -9   19      1.49      0.00
    0   -9   19     -1.69      0.00
    1   -9   19     -2.44      0.00
    2   -9   19      0.60      0.00
    3   -9   19      2.13      0.00
    4   -9   19      2.69      0.00
    5   -9   19      4.76      0.00
    6   -9   19     -2.38      0.00
    7   -9   19     -0.76      0.00
    8   -9   19      1.53      0.00
   -7   -8   19      0.34      0.00
   -6   -8   19     -1.25      0.00
   -5   -8   19      0.48      0.00
   -4   -8   19      0.40      0.00
   -3   -8   19      1.15      0.00
   -2   -8   19     -0.56      0.00
   -1   -8   19      1.67      0.00
    0   -8   19     -0.56      0.00
    1   -8   19     -2.34      0.00
    2   -8   19     -2.51      0.00
    3   -8   19     -0.44      0.00
    4   -8   19      0.27      0.00
    5   -8   19      2.59      0.00
    6   -8   19     -1.96      0.00
    7   -8   19     -3.42      0.00
    8   -8   19     -0.99      0.00
   -7   -7   19      0.21      0.00
   -6   -7   19      0.27      0.00
   -5   -7   19     -1.03      0.00
   -4   -7   19      0.69      0.00
   -3   -7   19      1.89      0.00
   -2   -7   19     -3.19      0.00
   -1   -7   19     -0.03      0.00
    0   -7   19      2.37      0.00
    1   -7   19      0.22      0.00
    2   -7   19     -3.47      0.00
    3   -7   19     -3.44      0.00
    4   -7   19     -1.96      0.00
    5   -7   19      2.36      0.00
    6   -7   19      1.48      0.00
    7   -7   19     -0.30      0.00
    8   -7   19     -1.66      0.00
   -8   -6   19     -0.29      0.00
   -7   -6   19      0.26      0.00
   -6   -6   19      0.07      0.00
   -5   -6   19     -0.60      0.00
   -4   -6   19      1.33      0.00
   -3   -6   19      1.60      0.00
   -2   -6   19     -1.79      0.00
   -1   -6   19      0.75      0.00
    0   -6   19      0.28      0.00
    1   -6   19      2.59      0.00
    2   -6   19     -0.33      0.00
    3   -6   19     -3.98      0.00
    4   -6   19     -2.29      0.00
    5   -6   19      1.70      0.00
    6   -6   19      0.00      0.00
    7   -6   19     -0.17      0.00
    8   -6   19     -1.08      0.00
   -8   -5   19     -0.74      0.00
   -7   -5   19     -0.95      0.00
   -6   -5   19      0.37      0.00
   -5   -5   19     -1.21      0.00
   -4   -5   19      0.37      0.00
   -3   -5   19      2.52      0.00
   -2   -5   19      0.39      0.00
   -1   -5   19      2.80      0.00
    0   -5   19      0.74      0.00
    1   -5   19      5.23      0.00
    2   -5   19      4.38      0.00
    3   -5   19     -0.58      0.00
    4   -5   19      0.17      0.00
    5   -5   19      0.57      0.00
    6   -5   19      0.04      0.00
    7   -5   19      0.46      0.00
    8   -5   19     -0.41      0.00
   -8   -4   19     -0.53      0.00
   -7   -4   19      0.47      0.00
   -6   -4   19      0.93      0.00
   -5   -4   19     -1.62      0.00
   -4   -4   19     -1.12      0.00
   -3   -4   19      0.78      0.00
   -2   -4   19     -2.06      0.00
   -1   -4   19      1.34      0.00
    0   -4   19     -1.03      0.00
    1   -4   19      1.67      0.00
    2   -4   19      3.66      0.00
    3   -4   19      1.12      0.00
    4   -4   19     -0.13      0.00
    5   -4   19      1.33      0.00
    6   -4   19      1.14      0.00
    7   -4   19      0.25      0.00
    8   -4   19     -0.50      0.00
   -9   -3   19      2.04      0.00
   -8   -3   19     -0.77      0.00
   -7   -3   19     -0.39      0.00
   -6   -3   19     -0.52      0.00
   -5   -3   19     -0.68      0.00
   -4   -3   19     -1.02      0.00
   -3   -3   19     -1.89      0.00
   -2   -3   19     -3.18      0.00
   -1   -3   19     -4.68      0.00
    0   -3   19     -3.17      0.00
    1   -3   19     -2.58      0.00
    2   -3   19      1.39      0.00
    3   -3   19     -0.90      0.00
    4   -3   19     -1.41      0.00
    5   -3   19     -1.01      0.00
    6   -3   19      0.28      0.00
    7   -3   19      1.18      0.00
    8   -3   19     -1.23      0.00
   -9   -2   19      1.40      0.00
   -8   -2   19      0.15      0.00
   -7   -2   19     -0.73      0.00
   -6   -2   19     -0.07      0.00
   -5   -2   19      1.75      0.00
   -4   -2   19      0.10      0.00
   -3   -2   19     -1.46      0.00
   -2   -2   19     -1.24      0.00
   -1   -2   19     -4.12      0.00
    0   -2   19     -0.25      0.00
    1   -2   19     -3.71      0.00
    2   -2   19      0.00      0.00
    3   -2   19     -0.98      0.00
    4   -2   19     -2.10      0.00
    5   -2   19     -0.15      0.00
    6   -2   19     -0.29      0.00
    7   -2   19      0.30      0.00
    8   -2   19     -1.36      0.00
   -9   -1   19      0.14      0.00
   -8   -1   19      1.22      0.00
   -7   -1   19      0.18      0.00
   -6   -1   19      1.38      0.00
   -5   -1   19      1.30      0.00
   -4   -1   19      3.15      0.00
   -3   -1   19      2.17      0.00
   -2   -1   19      4.20      0.00
   -1   -1   19     -0.13      0.00
    0   -1   19      3.33      0.00
    1   -1   19     -2.81      0.00
    2   -1   19      2.28      0.00
    3   -1   19      2.08      0.00
    4   -1   19     -1.56      0.00
    5   -1   19      0.62      0.00
    6   -1   19      0.68      0.00
    7   -1   19      1.23      0.00
    8   -1   19     -0.79      0.00
   -9    0   19      0.28      0.00
   -8    0   19      0.99      0.00
   -7    0   19     -0.18      0.00
   -6    0   19     -0.53      0.00
   -5    0   19     -0.83      0.00
   -4    0   19      2.85      0.00
   -3    0   19      3.11      0.00
   -2    0   19      3.64      0.00
   -1    0   19     -1.52      0.00
    0    0   19      5.59      0.00
    1    0   19      0.39      0.00
    2    0   19      2.10      0.00
    3    0   19      1.98      0.00
    4    0   19     -2.01      0.00
    5    0   19     -1.14      0.00
    6    0   19     -0.01      0.00
    7    0   19      1.06      0.00
    8    0   19      1.31      0.00
   -9    1   19     -0.58      0.00
   -8    1   19     -0.92      0.00
   -7    1   19     -0.65      0.00
   -6    1   19     -0.39      0.00
   -5    1   19     -3.53      0.00
   -4    1   19     -2.35      0.00
   -3    1   19      0.42      0.00
   -2    1   19     -0.06      0.00
   -1    1   19     -3.37      0.00
    0    1   19     -0.74      0.00
    1    1   19     -0.22      0.00
    2    1   19     -0.75      0.00
    3    1   19      1.79      0.00
    4    1   19     -3.39      0.00
    5    1   19     -0.50      0.00
    6    1   19     -0.58      0.00
    7    1   19     -0.23      0.00
    8    1   19      0.69      0.00
   -9    2   19     -1.01      0.00
   -8    2   19      1.08      0.00
   -7    2   19     -0.28      0.00
   -6    2   19      1.79      0.00
   -5    2   19     -3.38      0.00
   -4    2   19     -3.72      0.00
   -3    2   19     -0.21      0.00
   -2    2   19     -0.19      0.00
   -1    2   19     -1.11      0.00
    0    2   19     -5.51      0.00
    1    2   19      1.35      0.00
    2    2   19      1.46      0.00
    3    2   19      3.38      0.00
    4    2   19      0.54      0.00
    5    2   19     -0.16      0.00
    6    2   19      0.09      0.00
    7    2   19     -0.71      0.00
   -9    3   19     -0.40      0.00
   -8    3   19      0.05      0.00
   -7    3   19      0.70      0.00
   -6    3   19      3.38      0.00
   -5    3   19      0.31      0.00
   -4    3   19     -1.60      0.00
   -3    3   19     -0.54      0.00
   -2    3   19      2.28      0.00
   -1    3   19      2.14      0.00
    0    3   19     -3.25      0.00
    1    3   19      1.31      0.00
    2    3   19      2.23      0.00
    3    3   19      1.07      0.00
    4    3   19      0.97      0.00
    5    3   19     -0.62      0.00
    6    3   19      1.36      0.00
    7    3   19      0.82      0.00
   -9    4   19      0.14      0.00
   -8    4   19     -0.28      0.00
   -7    4   19      0.06      0.00
   -6    4   19      3.74      0.00
   -5    4   19      0.30      0.00
   -4    4   19      0.27      0.00
   -3    4   19     -2.54      0.00
   -2    4   19      0.07      0.00
   -1    4   19      2.83      0.00
    0    4   19     -3.24      0.00
    1    4   19     -3.95      0.00
    2    4   19      0.69      0.00
    3    4   19     -1.03      0.00
    4    4   19      0.94      0.00
    5    4   19     -1.36      0.00
    6    4   19     -0.76      0.00
    7    4   19      1.01      0.00
   -9    5   19     -0.59      0.00
   -8    5   19     -1.44      0.00
   -7    5   19     -1.63      0.00
   -6    5   19     -0.75      0.00
   -5    5   19      1.88      0.00
   -4    5   19      1.62      0.00
   -3    5   19      1.63      0.00
   -2    5   19     -0.51      0.00
   -1    5   19      1.98      0.00
    0    5   19     -2.68      0.00
    1    5   19     -4.08      0.00
    2    5   19     -1.40      0.00
    3    5   19     -2.46      0.00
    4    5   19     -0.76      0.00
    5    5   19     -1.20      0.00
    6    5   19     -3.12      0.00
   -9    6   19      0.00      0.00
   -8    6   19     -0.72      0.00
   -7    6   19     -0.76      0.00
   -6    6   19     -0.01      0.00
   -5    6   19     -0.10      0.00
   -4    6   19     -0.02      0.00
   -3    6   19      0.93      0.00
   -2    6   19      1.72      0.00
   -1    6   19      2.45      0.00
    0    6   19      4.36      0.00
    1    6   19      0.16      0.00
    2    6   19      1.28      0.00
    3    6   19      1.18      0.00
    4    6   19     -0.29      0.00
    5    6   19      3.40      0.00
    6    6   19     -1.29      0.00
   -9    7   19      1.05      0.00
   -8    7   19      1.93      0.00
   -7    7   19      0.00      0.00
   -6    7   19      0.50      0.00
   -5    7   19     -1.49      0.00
   -4    7   19     -1.39      0.00
   -3    7   19     -0.63      0.00
   -2    7   19      1.72      0.00
   -1    7   19      0.34      0.00
    0    7   19      4.09      0.00
    1    7   19      3.21      0.00
    2    7   19      0.82      0.00
    3    7   19      3.88      0.00
    4    7   19     -2.34      0.00
    5    7   19      1.94      0.00
    6    7   19     -0.55      0.00
   -9    8   19     -0.05      0.00
   -8    8   19      0.58      0.00
   -7    8   19     -2.14      0.00
   -6    8   19     -0.38      0.00
   -5    8   19      0.51      0.00
   -4    8   19     -0.66      0.00
   -3    8   19     -3.43      0.00
   -2    8   19     -2.12      0.00
   -1    8   19     -3.05      0.00
    0    8   19     -3.25      0.00
    1    8   19      1.64      0.00
    2    8   19     -2.53      0.00
    3    8   19      2.29      0.00
    4    8   19     -3.35      0.00
    5    8   19      0.44      0.00
   -9    9   19     -0.62      0.00
   -8    9   19      0.88      0.00
   -7    9   19     -0.97      0.00
   -6    9   19     -0.75      0.00
   -5    9   19     -0.69      0.00
   -4    9   19      0.75      0.00
   -3    9   19     -2.25      0.00
   -2    9   19     -0.71      0.00
   -1    9   19     -1.03      0.00
    0    9   19     -4.07      0.00
    1    9   19     -1.19      0.00
    2    9   19     -2.10      0.00
    3    9   19      1.03      0.00
    4    9   19     -0.13      0.00
   -8   10   19      2.88      0.00
   -7   10   19      1.74      0.00
   -6   10   19     -0.82      0.00
   -5   10   19      1.52      0.00
   -4   10   19      2.10      0.00
   -3   10   19      2.05      0.00
   -2   10   19      0.93      0.00
   -1   10   19      2.27      0.00
    0   10   19     -0.67      0.00
    1   10   19      0.23      0.00
    2   10   19      0.46      0.00
    3   10   19      1.46      0.00
    4   10   19     -0.72      0.00
   -8   11   19     -0.93      0.00
   -7   11   19      2.11      0.00
   -6   11   19     -0.65      0.00
   -5   11   19      0.59      0.00
   -4   11   19      0.92      0.00
   -3   11   19      1.78      0.00
   -2   11   19      0.98      0.00
   -1   11   19      2.46      0.00
    0   11   19      0.58      0.00
    1   11   19     -0.41      0.00
    2   11   19      0.36      0.00
    3   11   19      0.81      0.00
   -7   12   19      0.59      0.00
   -6   12   19     -0.97      0.00
   -5   12   19     -0.68      0.00
   -4   12   19     -1.73      0.00
   -3   12   19     -0.53      0.00
   -2   12   19     -0.13      0.00
   -1   12   19      0.58      0.00
    0   12   19      0.19      0.00
    1   12   19     -0.25      0.00
    2   12   19     -1.33      0.00
   -6   13   19     -0.15      0.00
   -5   13   19      0.41      0.00
   -4   13   19     -2.05      0.00
   -3   13   19     -1.34      0.00
   -2   13   19     -0.64      0.00
   -1   13   19      0.65      0.00
    0   13   19     -0.17      0.00
    1   13   19      0.19      0.00
   -4   14   19      0.68      0.00
   -3   14   19     -0.39      0.00
   -2   14   19     -0.09      0.00
   -1   14   19      0.26      0.00
    2  -16   20      1.81      0.00
   -1  -15   20      0.11      0.00
    0  -15   20     -0.62      0.00
    1  -15   20     -0.21      0.00
    2  -15   20      1.33      0.00
    3  -15   20     -2.02      0.00
    4  -15   20      0.60      0.00
   -2  -14   20     -0.30      0.00
   -1  -14   20      0.47      0.00
    0  -14   20     -1.34      0.00
    1  -14   20      0.81      0.00
    2  -14   20     -0.79      0.00
    3  -14   20     -0.66      0.00
    4  -14   20      1.00      0.00
    5  -14   20      0.99      0.00
   -4  -13   20      0.06      0.00
   -3  -13   20     -0.27      0.00
   -2  -13   20     -1.36      0.00
   -1  -13   20      0.12      0.00
    0  -13   20     -2.16      0.00
    1  -13   20      0.25      0.00
    2  -13   20     -1.11      0.00
    3  -13   20     -0.33      0.00
    4  -13   20      0.94      0.00
    5  -13   20     -0.12      0.00
    6  -13   20      0.20      0.00
   -4  -12   20      0.95      0.00
   -3  -12   20     -0.44      0.00
   -2  -12   20      0.88      0.00
   -1  -12   20      0.39      0.00
    0  -12   20      1.07      0.00
    1  -12   20      0.97      0.00
    2  -12   20     -1.35      0.00
    3  -12   20     -0.78      0.00
    4  -12   20     -0.12      0.00
    5  -12   20      0.93      0.00
    6  -12   20      0.28      0.00
    7  -12   20      0.53      0.00
   -5  -11   20     -0.55      0.00
   -4  -11   20      2.15      0.00
   -3  -11   20     -0.68      0.00
   -2  -11   20      1.51      0.00
   -1  -11   20      0.77      0.00
    0  -11   20      2.56      0.00
    1  -11   20      2.44      0.00
    2  -11   20     -0.49      0.00
    3  -11   20     -2.16      0.00
    4  -11   20     -0.47      0.00
    5  -11   20     -1.69      0.00
    6  -11   20      0.25      0.00
    7  -11   20      0.62      0.00
   -6  -10   20      0.18      0.00
   -5  -10   20     -0.18      0.00
   -4  -10   20      1.04      0.00
   -3  -10   20     -0.70      0.00
   -2  -10   20     -1.00      0.00
   -1  -10   20     -1.92      0.00
    0  -10   20     -1.06      0.00
    1  -10   20      2.27      0.00
    2  -10   20      1.96      0.00
    3  -10   20     -0.99      0.00
    4  -10   20     -0.01      0.00
    5  -10   20     -2.05      0.00
    6  -10   20     -0.25      0.00
    7  -10   20      2.15      0.00
    8  -10   20     -0.24      0.00
   -6   -9   20      0.16      0.00
   -5   -9   20     -0.20      0.00
   -4   -9   20      0.13      0.00
   -3   -9   20     -1.54      0.00
   -2   -9   20     -1.12      0.00
   -1   -9   20     -1.74      0.00
    0   -9   20     -2.27      0.00
    1   -9   20      1.06      0.00
    2   -9   20      0.95      0.00
    3   -9   20      1.42      0.00
    4   -9   20      2.02      0.00
    5   -9   20     -0.13      0.00
    6   -9   20     -2.69      0.00
    7   -9   20      0.90      0.00
    8   -9   20      1.74      0.00
   -7   -8   20     -0.03      0.00
   -6   -8   20     -1.28      0.00
   -5   -8   20      0.20      0.00
   -4   -8   20      1.36      0.00
   -3   -8   20      0.15      0.00
   -2   -8   20      1.05      0.00
   -1   -8   20      2.35      0.00
    0   -8   20     -1.84      0.00
    1   -8   20     -2.21      0.00
    2   -8   20      0.83      0.00
    3   -8   20      1.55      0.00
    4   -8   20      2.12      0.00
    5   -8   20      1.71      0.00
    6   -8   20     -3.30      0.00
    7   -8   20     -1.22      0.00
    8   -8   20      2.28      0.00
   -7   -7   20      1.21      0.00
   -6   -7   20     -1.76      0.00
   -5   -7   20      0.83      0.00
   -4   -7   20      1.34      0.00
   -3   -7   20     -0.05      0.00
   -2   -7   20     -1.46      0.00
   -1   -7   20      1.64      0.00
    0   -7   20     -0.50      0.00
    1   -7   20     -1.99      0.00
    2   -7   20     -1.60      0.00
    3   -7   20     -1.07      0.00
    4   -7   20      0.76      0.00
    5   -7   20      3.00      0.00
    6   -7   20     -1.04      0.00
    7   -7   20     -3.37      0.00
    8   -7   20     -0.96      0.00
   -8   -6   20     -1.17      0.00
   -7   -6   20      0.60      0.00
   -6   -6   20     -0.10      0.00
   -5   -6   20     -0.44      0.00
   -4   -6   20      0.07      0.00
   -3   -6   20      0.50      0.00
   -2   -6   20     -3.28      0.00
   -1   -6   20      0.23      0.00
    0   -6   20      1.50      0.00
    1   -6   20     -1.70      0.00
    2   -6   20     -4.57      0.00
    3   -6   20     -2.78      0.00
    4   -6   20     -1.21      0.00
    5   -6   20      3.59      0.00
    6   -6   20      0.97      0.00
    7   -6   20     -0.35      0.00
    8   -6   20     -1.45      0.00
   -8   -5   20     -0.67      0.00
   -7   -5   20      0.14      0.00
   -6   -5   20      0.24      0.00
   -5   -5   20     -0.84      0.00
   -4   -5   20      1.64      0.00
   -3   -5   20      0.62      0.00
   -2   -5   20      0.00      0.00
   -1   -5   20      1.61      0.00
    0   -5   20      3.03      0.00
    1   -5   20      3.10      0.00
    2   -5   20     -0.32      0.00
    3   -5   20     -2.80      0.00
    4   -5   20     -2.32      0.00
    5   -5   20      1.41      0.00
    6   -5   20     -0.64      0.00
    7   -5   20     -0.36      0.00
    8   -5   20     -0.66      0.00
   -8   -4   20     -0.42      0.00
   -7   -4   20     -0.78      0.00
   -6   -4   20      0.86      0.00
   -5   -4   20     -0.45      0.00
   -4   -4   20      1.70      0.00
   -3   -4   20      1.28      0.00
   -2   -4   20      0.62      0.00
   -1   -4   20      1.56      0.00
    0   -4   20      4.61      0.00
    1   -4   20      5.27      0.00
    2   -4   20      4.18      0.00
    3   -4   20     -0.95      0.00
    4   -4   20     -1.08      0.00
    5   -4   20      1.74      0.00
    6   -4   20      1.66      0.00
    7   -4   20      1.06      0.00
    8   -4   20      0.00      0.00
   -9   -3   20      0.69      0.00
   -8   -3   20     -0.67      0.00
   -7   -3   20      0.46      0.00
   -6   -3   20      0.22      0.00
   -5   -3   20     -1.90      0.00
   -4   -3   20     -1.55      0.00
   -3   -3   20     -0.22      0.00
   -2   -3   20     -2.99      0.00
   -1   -3   20     -3.08      0.00
    0   -3   20     -2.60      0.00
    1   -3   20      1.55      0.00
    2   -3   20      2.25      0.00
    3   -3   20     -0.33      0.00
    4   -3   20     -2.67      0.00
    5   -3   20      0.55      0.00
    6   -3   20      1.25      0.00
    7   -3   20     -0.62      0.00
    8   -3   20     -0.65      0.00
   -9   -2   20      1.62      0.00
   -8   -2   20     -1.05      0.00
   -7   -2   20     -0.48      0.00
   -6   -2   20     -0.59      0.00
   -5   -2   20     -0.65      0.00
   -4   -2   20     -1.35      0.00
   -3   -2   20     -1.39      0.00
   -2   -2   20     -3.17      0.00
   -1   -2   20     -5.42      0.00
    0   -2   20     -4.97      0.00
    1   -2   20      0.02      0.00
    2   -2   20      2.27      0.00
    3   -2   20     -0.31      0.00
    4   -2   20     -2.29      0.00
    5   -2   20     -1.94      0.00
    6   -2   20      0.62      0.00
    7   -2   20     -0.01      0.00
    8   -2   20     -1.22      0.00
   -9   -1   20      0.95      0.00
   -8   -1   20     -0.60      0.00
   -7   -1   20      1.12      0.00
   -6   -1   20      0.56      0.00
   -5   -1   20      1.85      0.00
   -4   -1   20     -0.71      0.00
   -3   -1   20      0.18      0.00
   -2   -1   20      2.14      0.00
   -1   -1   20      0.37      0.00
    0   -1   20     -2.15      0.00
    1   -1   20     -2.41      0.00
    2   -1   20      3.20      0.00
    3   -1   20      0.72      0.00
    4   -1   20     -0.90      0.00
    5   -1   20      0.49      0.00
    6   -1   20      1.50      0.00
    7   -1   20      0.71      0.00
    8   -1   20     -0.83      0.00
   -9    0   20      1.02      0.00
   -8    0   20     -0.34      0.00
   -7    0   20      0.93      0.00
   -6    0   20      0.21      0.00
   -5    0   20      1.78      0.00
   -4    0   20      2.55      0.00
   -3    0   20      2.70      0.00
   -2    0   20      3.64      0.00
   -1    0   20      3.43      0.00
    0    0   20      1.15      0.00
    1    0   20     -3.65      0.00
    2    0   20      3.14      0.00
    3    0   20      1.40      0.00
    4    0   20     -1.79      0.00
    5    0   20      0.11      0.00
    6    0   20      0.41      0.00
    7    0   20      1.49      0.00
    8    0   20     -0.99      0.00
   -9    1   20      1.04      0.00
   -8    1   20     -0.49      0.00
   -7    1   20     -0.25      0.00
   -6    1   20     -1.49      0.00
   -5    1   20      0.50      0.00
   -4    1   20      0.58      0.00
   -3    1   20      0.69      0.00
   -2    1   20     -0.23      0.00
   -1    1   20     -0.45      0.00
    0    1   20      4.59      0.00
    1    1   20     -2.67      0.00
    2    1   20      1.32      0.00
    3    1   20     -0.53      0.00
    4    1   20     -2.20      0.00
    5    1   20     -0.67      0.00
    6    1   20     -0.76      0.00
    7    1   20      1.40      0.00
    8    1   20      0.24      0.00
   -9    2   20      0.18      0.00
   -8    2   20     -0.89      0.00
   -7    2   20      0.21      0.00
   -6    2   20     -0.59      0.00
   -5    2   20     -2.48      0.00
   -4    2   20     -2.53      0.00
   -3    2   20      0.15      0.00
   -2    2   20     -0.92      0.00
   -1    2   20     -4.51      0.00
    0    2   20      2.06      0.00
    1    2   20     -2.82      0.00
    2    2   20      0.59      0.00
    3    2   20      1.29      0.00
    4    2   20     -3.11      0.00
    5    2   20      1.40      0.00
    6    2   20     -2.03      0.00
    7    2   20      0.24      0.00
   -9    3   20     -0.22      0.00
   -8    3   20      1.91      0.00
   -7    3   20      0.52      0.00
   -6    3   20     -0.03      0.00
   -5    3   20     -2.28      0.00
   -4    3   20     -1.97      0.00
   -3    3   20      1.92      0.00
   -2    3   20      0.70      0.00
   -1    3   20     -1.78      0.00
    0    3   20     -0.34      0.00
    1    3   20      2.31      0.00
    2    3   20      2.38      0.00
    3    3   20      3.04      0.00
    4    3   20     -1.54      0.00
    5    3   20      1.83      0.00
    6    3   20     -0.17      0.00
    7    3   20      0.06      0.00
   -9    4   20     -0.76      0.00
   -8    4   20     -0.04      0.00
   -7    4   20      0.10      0.00
   -6    4   20      2.31      0.00
   -5    4   20      0.52      0.00
   -4    4   20     -2.42      0.00
   -3    4   20     -0.03      0.00
   -2    4   20      1.76      0.00
   -1    4   20      0.03      0.00
    0    4   20     -1.99      0.00
    1    4   20      0.88      0.00
    2    4   20      0.98      0.00
    3    4   20      0.61      0.00
    4    4   20     -0.92      0.00
    5    4   20     -0.17      0.00
    6    4   20      1.23      0.00
    7    4   20      0.01      0.00
   -9    5   20     -0.69      0.00
   -8    5   20     -0.12      0.00
   -7    5   20     -0.52      0.00
   -6    5   20      2.68      0.00
   -5    5   20     -1.07      0.00
   -4    5   20      0.97      0.00
   -3    5   20     -2.05      0.00
   -2    5   20     -0.24      0.00
   -1    5   20     -0.54      0.00
    0    5   20     -3.59      0.00
    1    5   20     -3.57      0.00
    2    5   20      0.18      0.00
    3    5   20     -0.49      0.00
    4    5   20      0.32      0.00
    5    5   20     -1.88      0.00
    6    5   20     -0.14      0.00
   -9    6   20     -1.10      0.00
   -8    6   20     -0.73      0.00
   -7    6   20     -0.24      0.00
   -6    6   20      0.01      0.00
   -5    6   20      1.46      0.00
   -4    6   20      2.41      0.00
   -3    6   20      1.84      0.00
   -2    6   20      1.36      0.00
   -1    6   20      3.49      0.00
    0    6   20     -1.50      0.00
    1    6   20     -2.14      0.00
    2    6   20     -0.48      0.00
    3    6   20     -1.44      0.00
    4    6   20      0.80      0.00
    5    6   20     -0.47      0.00
    6    6   20     -0.92      0.00
   -9    7   20      0.55      0.00
   -8    7   20     -0.44      0.00
   -7    7   20      1.73      0.00
   -6    7   20     -0.74      0.00
   -5    7   20     -0.79      0.00
   -4    7   20     -0.11      0.00
   -3    7   20      0.45      0.00
   -2    7   20      1.09      0.00
   -1    7   20      2.91      0.00
    0    7   20      4.12      0.00
    1    7   20      0.61      0.00
    2    7   20      3.42      0.00
    3    7   20     -0.63      0.00
    4    7   20      0.52      0.00
    5    7   20      1.57      0.00
   -9    8   20      0.90      0.00
   -8    8   20     -0.94      0.00
   -7    8   20     -0.40      0.00
   -6    8   20     -0.67      0.00
   -5    8   20     -0.42      0.00
   -4    8   20     -0.51      0.00
   -3    8   20     -2.07      0.00
   -2    8   20     -0.80      0.00
   -1    8   20     -1.71      0.00
    0    8   20      3.15      0.00
    1    8   20     -0.56      0.00
    2    8   20      0.97      0.00
    3    8   20      0.70      0.00
    4    8   20     -3.12      0.00
    5    8   20      0.19      0.00
   -8    9   20     -0.16      0.00
   -7    9   20     -2.04      0.00
   -6    9   20     -0.26      0.00
   -5    9   20      0.11      0.00
   -4    9   20     -0.59      0.00
   -3    9   20     -2.46      0.00
   -2    9   20     -1.14      0.00
   -1    9   20     -2.86      0.00
    0    9   20     -2.12      0.00
    1    9   20     -0.51      0.00
    2    9   20     -1.19      0.00
    3    9   20      2.62      0.00
    4    9   20     -2.14      0.00
   -8   10   20      3.04      0.00
   -7   10   20     -1.09      0.00
   -6   10   20     -0.48      0.00
   -5   10   20     -0.44      0.00
   -4   10   20      1.04      0.00
   -3   10   20     -0.13      0.00
   -2   10   20      0.53      0.00
   -1   10   20     -1.32      0.00
    0   10   20     -1.24      0.00
    1   10   20     -0.55      0.00
    2   10   20     -0.64      0.00
    3   10   20      1.15      0.00
   -7   11   20     -0.11      0.00
   -6   11   20      0.24      0.00
   -5   11   20      1.81      0.00
   -4   11   20      1.45      0.00
   -3   11   20      1.15      0.00
   -2   11   20      2.03      0.00
   -1   11   20      0.78      0.00
    0   11   20      0.25      0.00
    1   11   20     -0.16      0.00
    2   11   20      0.42      0.00
   -7   12   20      0.41      0.00
   -6   12   20     -0.34      0.00
   -5   12   20      0.50      0.00
   -4   12   20     -0.23      0.00
   -3   12   20      0.55      0.00
   -2   12   20      1.34      0.00
   -1   12   20      0.57      0.00
    0   12   20      0.54      0.00
    1   12   20     -0.45      0.00
   -6   13   20     -1.36      0.00
   -5   13   20     -0.46      0.00
   -4   13   20     -1.61      0.00
   -3   13   20     -0.50      0.00
   -2   13   20      0.95      0.00
   -1   13   20      0.04      0.00
    0   13   20      0.40      0.00
   -3   14   20     -0.80      0.00
   -1  -15   21     -0.58      0.00
    0  -15   21     -0.23      0.00
    1  -15   21     -0.59      0.00
    2  -15   21      0.47      0.00
    3  -15   21     -2.01      0.00
    4  -15   21      2.69      0.00
   -2  -14   21      0.02      0.00
   -1  -14   21     -0.49      0.00
    0  -14   21      0.31      0.00
    1  -14   21     -1.20      0.00
    2  -14   21      1.73      0.00
    3  -14   21     -3.22      0.00
    4  -14   21      1.49      0.00
    5  -14   21     -1.23      0.00
   -3  -13   21     -0.80      0.00
   -2  -13   21     -0.30      0.00
   -1  -13   21     -0.42      0.00
    0  -13   21      0.45      0.00
    1  -13   21     -0.35      0.00
    2  -13   21      0.18      0.00
    3  -13   21     -1.41      0.00
    4  -13   21      1.46      0.00
    5  -13   21     -0.09      0.00
    6  -13   21      0.67      0.00
   -4  -12   21     -0.31      0.00
   -3  -12   21      0.38      0.00
   -2  -12   21     -0.95      0.00
   -1  -12   21      0.30      0.00
    0  -12   21     -0.10      0.00
    1  -12   21     -0.57      0.00
    2  -12   21     -0.96      0.00
    3  -12   21      0.12      0.00
    4  -12   21      1.60      0.00
    5  -12   21     -0.61      0.00
    6  -12   21     -0.21      0.00
   -5  -11   21      1.06      0.00
   -4  -11   21      0.73      0.00
   -3  -11   21      0.41      0.00
   -2  -11   21      1.44      0.00
   -1  -11   21     -0.07      0.00
    0  -11   21      2.67      0.00
    1  -11   21      1.07      0.00
    2  -11   21     -1.80      0.00
    3  -11   21     -0.35      0.00
    4  -11   21      1.61      0.00
    5  -11   21      0.94      0.00
    6  -11   21      0.59      0.00
    7  -11   21     -0.12      0.00
   -6  -10   21     -0.73      0.00
   -5  -10   21      0.22      0.00
   -4  -10   21      1.30      0.00
   -3  -10   21     -1.17      0.00
   -2  -10   21      0.27      0.00
   -1  -10   21     -1.05      0.00
    0  -10   21      3.05      0.00
    1  -10   21      1.60      0.00
    2  -10   21     -1.14      0.00
    3  -10   21     -2.82      0.00
    4  -10   21     -0.90      0.00
    5  -10   21     -1.82      0.00
    6  -10   21      0.59      0.00
    7  -10   21     -0.81      0.00
   -6   -9   21     -0.61      0.00
   -5   -9   21      0.26      0.00
   -4   -9   21      0.12      0.00
   -3   -9   21     -1.33      0.00
   -2   -9   21     -1.81      0.00
   -1   -9   21     -2.70      0.00
    0   -9   21     -0.22      0.00
    1   -9   21      2.03      0.00
    2   -9   21      1.34      0.00
    3   -9   21     -1.34      0.00
    4   -9   21      0.76      0.00
    5   -9   21     -0.49      0.00
    6   -9   21     -0.05      0.00
    7   -9   21      1.18      0.00
    8   -9   21      0.15      0.00
   -7   -8   21     -0.01      0.00
   -6   -8   21     -0.48      0.00
   -5   -8   21      0.22      0.00
   -4   -8   21      0.76      0.00
   -3   -8   21     -0.73      0.00
   -2   -8   21     -0.11      0.00
   -1   -8   21     -0.53      0.00
    0   -8   21     -1.55      0.00
    1   -8   21      1.46      0.00
    2   -8   21      0.10      0.00
    3   -8   21      0.36      0.00
    4   -8   21      2.20      0.00
    5   -8   21     -0.34      0.00
    6   -8   21     -2.31      0.00
    7   -8   21      1.06      0.00
    8   -8   21      1.47      0.00
   -7   -7   21      0.31      0.00
   -6   -7   21     -0.62      0.00
   -5   -7   21     -1.00      0.00
   -4   -7   21      2.47      0.00
   -3   -7   21      0.79      0.00
   -2   -7   21      1.41      0.00
   -1   -7   21      1.83      0.00
    0   -7   21     -2.18      0.00
    1   -7   21     -0.04      0.00
    2   -7   21      2.07      0.00
    3   -7   21      0.04      0.00
    4   -7   21      2.42      0.00
    5   -7   21      0.70      0.00
    6   -7   21     -2.95      0.00
    7   -7   21     -0.95      0.00
    8   -7   21      1.77      0.00
   -8   -6   21     -0.52      0.00
   -7   -6   21      1.03      0.00
   -6   -6   21     -0.61      0.00
   -5   -6   21     -0.35      0.00
   -4   -6   21      1.24      0.00
   -3   -6   21     -1.37      0.00
   -2   -6   21     -2.84      0.00
   -1   -6   21      1.15      0.00
    0   -6   21     -2.03      0.00
    1   -6   21     -2.23      0.00
    2   -6   21     -1.34      0.00
    3   -6   21     -2.64      0.00
    4   -6   21      1.76      0.00
    5   -6   21      2.65      0.00
    6   -6   21     -0.75      0.00
    7   -6   21     -2.88      0.00
    8   -6   21     -1.03      0.00
   -8   -5   21     -1.01      0.00
   -7   -5   21      0.43      0.00
   -6   -5   21     -0.02      0.00
   -5   -5   21     -0.62      0.00
   -4   -5   21     -1.33      0.00
   -3   -5   21      0.49      0.00
   -2   -5   21     -0.93      0.00
   -1   -5   21      1.43      0.00
    0   -5   21      0.48      0.00
    1   -5   21     -2.20      0.00
    2   -5   21     -3.60      0.00
    3   -5   21     -2.62      0.00
    4   -5   21     -0.54      0.00
    5   -5   21      2.45      0.00
    6   -5   21      0.12      0.00
    7   -5   21      0.19      0.00
    8   -5   21     -1.10      0.00
   -8   -4   21      0.00      0.00
   -7   -4   21      0.33      0.00
   -6   -4   21      1.03      0.00
   -5   -4   21      0.08      0.00
   -4   -4   21      2.06      0.00
   -3   -4   21      0.41      0.00
   -2   -4   21      1.95      0.00
   -1   -4   21      3.02      0.00
    0   -4   21      6.10      0.00
    1   -4   21      2.93      0.00
    2   -4   21     -0.15      0.00
    3   -4   21     -1.89      0.00
    4   -4   21     -1.16      0.00
    5   -4   21      1.98      0.00
    6   -4   21      0.18      0.00
    7   -4   21     -0.02      0.00
    8   -4   21     -0.95      0.00
   -8   -3   21     -0.17      0.00
   -7   -3   21     -0.96      0.00
   -6   -3   21      0.93      0.00
   -5   -3   21     -0.40      0.00
   -4   -3   21      1.43      0.00
   -3   -3   21     -0.94      0.00
   -2   -3   21     -0.14      0.00
   -1   -3   21     -1.10      0.00
    0   -3   21      5.63      0.00
    1   -3   21      3.16      0.00
    2   -3   21      2.30      0.00
    3   -3   21     -2.33      0.00
    4   -3   21     -1.41      0.00
    5   -3   21      1.92      0.00
    6   -3   21      0.82      0.00
    7   -3   21      0.55      0.00
    8   -3   21      0.03      0.00
   -9   -2   21      0.04      0.00
   -8   -2   21     -0.44      0.00
   -7   -2   21     -0.50      0.00
   -6   -2   21     -0.36      0.00
   -5   -2   21     -2.54      0.00
   -4   -2   21     -1.38      0.00
   -3   -2   21     -1.12      0.00
   -2   -2   21     -4.14      0.00
   -1   -2   21     -6.81      0.00
    0   -2   21     -1.93      0.00
    1   -2   21      1.90      0.00
    2   -2   21      1.10      0.00
    3   -2   21     -1.40      0.00
    4   -2   21     -3.82      0.00
    5   -2   21      0.16      0.00
    6   -2   21      0.83      0.00
    7   -2   21     -0.90      0.00
    8   -2   21     -0.35      0.00
   -9   -1   21      1.00      0.00
   -8   -1   21      0.01      0.00
   -7   -1   21     -0.36      0.00
   -6   -1   21      0.28      0.00
   -5   -1   21     -1.44      0.00
   -4   -1   21     -0.05      0.00
   -3   -1   21      0.12      0.00
   -2   -1   21     -0.39      0.00
   -1   -1   21     -3.72      0.00
    0   -1   21     -4.59      0.00
    1   -1   21      2.80      0.00
    2   -1   21      2.87      0.00
    3   -1   21      0.16      0.00
    4   -1   21     -1.42      0.00
    5   -1   21      0.14      0.00
    6   -1   21      1.28      0.00
    7   -1   21     -0.26      0.00
    8   -1   21     -0.25      0.00
   -9    0   21      0.58      0.00
   -8    0   21     -1.24      0.00
   -7    0   21      1.61      0.00
   -6    0   21      1.42      0.00
   -5    0   21     -0.26      0.00
   -4    0   21      0.79      0.00
   -3    0   21      2.08      0.00
   -2    0   21      4.25      0.00
   -1    0   21      1.91      0.00
    0    0   21     -3.97      0.00
    1    0   21      0.29      0.00
    2    0   21      3.85      0.00
    3    0   21      0.65      0.00
    4    0   21     -0.06      0.00
    5    0   21      0.49      0.00
    6    0   21      1.80      0.00
    7    0   21     -0.64      0.00
   -9    1   21      0.88      0.00
   -8    1   21     -1.96      0.00
   -7    1   21      0.82      0.00
   -6    1   21      1.07      0.00
   -5    1   21      0.38      0.00
   -4    1   21      2.31      0.00
   -3    1   21     -0.01      0.00
   -2    1   21      1.44      0.00
   -1    1   21      4.38      0.00
    0    1   21     -2.31      0.00
    1    1   21     -2.49      0.00
    2    1   21      1.74      0.00
    3    1   21     -1.12      0.00
    4    1   21     -1.42      0.00
    5    1   21     -0.85      0.00
    6    1   21      0.96      0.00
    7    1   21      1.59      0.00
   -9    2   21      1.77      0.00
   -8    2   21     -0.48      0.00
   -7    2   21      0.12      0.00
   -6    2   21     -0.14      0.00
   -5    2   21     -0.97      0.00
   -4    2   21      0.06      0.00
   -3    2   21     -1.26      0.00
   -2    2   21     -0.96      0.00
   -1    2   21      1.21      0.00
    0    2   21      0.33      0.00
    1    2   21     -2.80      0.00
    2    2   21      0.75      0.00
    3    2   21     -2.01      0.00
    4    2   21     -0.45      0.00
    5    2   21     -1.17      0.00
    6    2   21     -0.78      0.00
    7    2   21      1.42      0.00
   -9    3   21      0.66      0.00
   -8    3   21     -1.08      0.00
   -7    3   21     -0.20      0.00
   -6    3   21     -0.52      0.00
   -5    3   21     -2.87      0.00
   -4    3   21      1.26      0.00
   -3    3   21     -0.10      0.00
   -2    3   21      0.19      0.00
   -1    3   21     -2.07      0.00
    0    3   21      2.72      0.00
    1    3   21     -1.72      0.00
    2    3   21      1.77      0.00
    3    3   21     -0.26      0.00
    4    3   21     -0.80      0.00
    5    3   21      0.99      0.00
    6    3   21     -2.04      0.00
    7    3   21      0.06      0.00
   -9    4   21      0.13      0.00
   -8    4   21      0.41      0.00
   -7    4   21     -0.14      0.00
   -6    4   21     -0.11      0.00
   -5    4   21     -1.92      0.00
   -4    4   21     -0.34      0.00
   -3    4   21     -0.52      0.00
   -2    4   21      0.00      0.00
   -1    4   21     -1.68      0.00
    0    4   21      2.02      0.00
    1    4   21      1.96      0.00
    2    4   21      1.99      0.00
    3    4   21      1.58      0.00
    4    4   21     -0.51      0.00
    5    4   21      1.50      0.00
    6    4   21      0.35      0.00
   -9    5   21     -0.18      0.00
   -8    5   21     -0.17      0.00
   -7    5   21      0.23      0.00
   -6    5   21      1.43      0.00
   -5    5   21     -0.52      0.00
   -4    5   21     -1.15      0.00
   -3    5   21     -1.11      0.00
   -2    5   21      0.95      0.00
   -1    5   21     -1.98      0.00
    0    5   21     -1.02      0.00
    1    5   21      0.33      0.00
    2    5   21      0.30      0.00
    3    5   21      0.20      0.00
    4    5   21     -1.58      0.00
    5    5   21     -0.57      0.00
    6    5   21      1.01      0.00
   -9    6   21     -0.11      0.00
   -8    6   21      1.03      0.00
   -7    6   21     -0.57      0.00
   -6    6   21      2.04      0.00
   -5    6   21     -0.82      0.00
   -4    6   21      3.77      0.00
   -3    6   21     -0.72      0.00
   -2    6   21      1.81      0.00
   -1    6   21     -1.66      0.00
    0    6   21     -2.25      0.00
    1    6   21     -3.12      0.00
    2    6   21     -1.58      0.00
    3    6   21      0.16      0.00
    4    6   21      0.76      0.00
    5    6   21     -0.71      0.00
   -9    7   21     -0.72      0.00
   -8    7   21      0.78      0.00
   -7    7   21      0.28      0.00
   -6    7   21      0.31      0.00
   -5    7   21      0.30      0.00
   -4    7   21      1.62      0.00
   -3    7   21      0.98      0.00
   -2    7   21      1.67      0.00
   -1    7   21      2.60      0.00
    0    7   21     -0.10      0.00
    1    7   21      0.39      0.00
    2    7   21      0.05      0.00
    3    7   21     -0.75      0.00
    4    7   21      1.36      0.00
    5    7   21     -0.50      0.00
   -8    8   21     -0.96      0.00
   -7    8   21      1.72      0.00
   -6    8   21     -1.20      0.00
   -5    8   21     -0.65      0.00
   -4    8   21     -0.75      0.00
   -3    8   21     -0.26      0.00
   -2    8   21     -0.93      0.00
   -1    8   21      2.36      0.00
    0    8   21      2.74      0.00
    1    8   21      1.16      0.00
    2    8   21      3.58      0.00
    3    8   21     -2.90      0.00
    4    8   21     -0.04      0.00
   -8    9   21     -2.04      0.00
   -7    9   21     -0.11      0.00
   -6    9   21     -1.47      0.00
   -5    9   21     -0.27      0.00
   -4    9   21     -1.13      0.00
   -3    9   21     -0.56      0.00
   -2    9   21     -1.35      0.00
   -1    9   21     -0.86      0.00
    0    9   21      0.75      0.00
    1    9   21     -1.91      0.00
    2    9   21      1.34      0.00
    3    9   21     -0.50      0.00
    4    9   21     -1.09      0.00
   -8   10   21      0.25      0.00
   -7   10   21     -0.29      0.00
   -6   10   21      0.36      0.00
   -5   10   21      0.42      0.00
   -4   10   21     -0.84      0.00
   -3   10   21     -0.35      0.00
   -2   10   21     -1.92      0.00
   -1   10   21     -1.88      0.00
    0   10   21     -2.30      0.00
    1   10   21     -0.66      0.00
    2   10   21     -0.42      0.00
    3   10   21      1.84      0.00
   -7   11   21     -0.47      0.00
   -6   11   21      0.77      0.00
   -5   11   21     -0.05      0.00
   -4   11   21      0.73      0.00
   -3   11   21      0.92      0.00
   -2   11   21     -0.20      0.00
   -1   11   21     -0.27      0.00
    0   11   21     -0.51      0.00
    1   11   21      0.46      0.00
    2   11   21     -0.12      0.00
   -6   12   21      0.84      0.00
   -5   12   21      0.68      0.00
   -4   12   21      1.00      0.00
   -3   12   21      1.45      0.00
   -2   12   21      2.02      0.00
   -1   12   21      1.24      0.00
    0   12   21      0.11      0.00
    1   12   21      0.22      0.00
   -5   13   21     -0.68      0.00
   -4   13   21     -0.76      0.00
   -3   13   21      0.30      0.00
   -2   13   21      0.54      0.00
   -1   13   21      0.19      0.00
    0  -15   22      0.01      0.00
    1  -15   22      0.45      0.00
    2  -15   22     -2.09      0.00
    3  -15   22      2.26      0.00
   -2  -14   22      0.14      0.00
   -1  -14   22     -0.60      0.00
    0  -14   22     -0.16      0.00
    1  -14   22      0.10      0.00
    2  -14   22     -1.40      0.00
    3  -14   22      1.03      0.00
    4  -14   22      1.12      0.00
    5  -14   22     -1.17      0.00
   -3  -13   22     -1.35      0.00
   -2  -13   22     -0.05      0.00
   -1  -13   22      0.07      0.00
    0  -13   22      1.45      0.00
    1  -13   22     -0.28      0.00
    2  -13   22     -0.12      0.00
    3  -13   22     -1.74      0.00
    4  -13   22      0.52      0.00
    5  -13   22     -0.57      0.00
    6  -13   22     -0.26      0.00
   -4  -12   22     -0.49      0.00
   -3  -12   22     -0.46      0.00
   -2  -12   22     -0.31      0.00
   -1  -12   22     -0.37      0.00
    0  -12   22      0.68      0.00
    1  -12   22     -2.12      0.00
    2  -12   22     -0.20      0.00
    3  -12   22      0.68      0.00
    4  -12   22      0.02      0.00
    5  -12   22      0.08      0.00
    6  -12   22     -0.12      0.00
   -5  -11   22      1.17      0.00
   -4  -11   22     -1.01      0.00
   -3  -11   22      0.88      0.00
   -2  -11   22     -0.87      0.00
   -1  -11   22      0.83      0.00
    0  -11   22      0.59      0.00
    1  -11   22     -1.22      0.00
    2  -11   22     -1.02      0.00
    3  -11   22      1.56      0.00
    4  -11   22      0.80      0.00
    5  -11   22      0.33      0.00
    6  -11   22     -1.16      0.00
    7  -11   22     -0.41      0.00
   -5  -10   22      2.30      0.00
   -4  -10   22     -0.60      0.00
   -3  -10   22      0.80      0.00
   -2  -10   22      0.81      0.00
   -1  -10   22      1.13      0.00
    0  -10   22      2.99      0.00
    1  -10   22      0.64      0.00
    2  -10   22     -1.92      0.00
    3  -10   22      0.51      0.00
    4  -10   22      0.50      0.00
    5  -10   22      0.40      0.00
    6  -10   22      0.43      0.00
    7  -10   22     -0.64      0.00
   -6   -9   22     -0.69      0.00
   -5   -9   22      1.28      0.00
   -4   -9   22     -0.43      0.00
   -3   -9   22     -1.11      0.00
   -2   -9   22     -1.29      0.00
   -1   -9   22     -0.83      0.00
    0   -9   22      2.00      0.00
    1   -9   22      0.42      0.00
    2   -9   22     -1.44      0.00
    3   -9   22     -1.94      0.00
    4   -9   22     -0.18      0.00
    5   -9   22     -0.23      0.00
    6   -9   22     -0.39      0.00
    7   -9   22     -1.09      0.00
   -6   -8   22     -0.97      0.00
   -5   -8   22      1.03      0.00
   -4   -8   22     -0.39      0.00
   -3   -8   22     -1.87      0.00
   -2   -8   22     -1.83      0.00
   -1   -8   22     -0.49      0.00
    0   -8   22     -0.21      0.00
    1   -8   22      0.80      0.00
    2   -8   22     -0.27      0.00
    3   -8   22     -0.95      0.00
    4   -8   22      1.51      0.00
    5   -8   22      1.28      0.00
    6   -8   22     -0.39      0.00
    7   -8   22      1.74      0.00
   -7   -7   22     -0.33      0.00
   -6   -7   22     -0.55      0.00
   -5   -7   22     -0.13      0.00
   -4   -7   22      1.48      0.00
   -3   -7   22      0.44      0.00
   -2   -7   22      0.31      0.00
   -1   -7   22      0.92      0.00
    0   -7   22     -1.06      0.00
    1   -7   22      2.58      0.00
    2   -7   22      0.11      0.00
    3   -7   22     -0.52      0.00
    4   -7   22      1.03      0.00
    5   -7   22     -0.48      0.00
    6   -7   22     -2.66      0.00
    7   -7   22      1.47      0.00
    8   -7   22     -0.46      0.00
   -7   -6   22     -0.28      0.00
   -6   -6   22      0.51      0.00
   -5   -6   22     -1.41      0.00
   -4   -6   22      3.46      0.00
   -3   -6   22      0.28      0.00
   -2   -6   22     -0.09      0.00
   -1   -6   22      0.72      0.00
    0   -6   22     -1.76      0.00
    1   -6   22      1.29      0.00
    2   -6   22      1.68      0.00
    3   -6   22     -1.54      0.00
    4   -6   22      2.53      0.00
    5   -6   22      1.18      0.00
    6   -6   22     -2.71      0.00
    7   -6   22      0.58      0.00
    8   -6   22      1.39      0.00
   -8   -5   22      0.20      0.00
   -7   -5   22      0.48      0.00
   -6   -5   22      0.36      0.00
   -5   -5   22     -2.29      0.00
   -4   -5   22      0.45      0.00
   -3   -5   22     -1.61      0.00
   -2   -5   22     -2.03      0.00
   -1   -5   22      0.14      0.00
    0   -5   22     -4.45      0.00
    1   -5   22     -3.06      0.00
    2   -5   22     -1.16      0.00
    3   -5   22     -3.46      0.00
    4   -5   22      1.92      0.00
    5   -5   22      2.10      0.00
    6   -5   22     -0.92      0.00
    7   -5   22     -1.97      0.00
    8   -5   22     -0.67      0.00
   -8   -4   22     -0.49      0.00
   -7   -4   22      0.52      0.00
   -6   -4   22     -0.09      0.00
   -5   -4   22     -0.59      0.00
   -4   -4   22     -1.36      0.00
   -3   -4   22      1.35      0.00
   -2   -4   22      1.45      0.00
   -1   -4   22      3.33      0.00
    0   -4   22      1.38      0.00
    1   -4   22     -1.09      0.00
    2   -4   22     -0.66      0.00
    3   -4   22     -1.89      0.00
    4   -4   22      0.58      0.00
    5   -4   22      1.81      0.00
    6   -4   22     -0.04      0.00
    7   -4   22     -0.49      0.00
    8   -4   22     -1.46      0.00
   -8   -3   22     -0.57      0.00
   -7   -3   22      1.05      0.00
   -6   -3   22      0.83      0.00
   -5   -3   22      0.78      0.00
   -4   -3   22      1.85      0.00
   -3   -3   22     -0.15      0.00
   -2   -3   22      2.33      0.00
   -1   -3   22      3.25      0.00
    0   -3   22      5.77      0.00
    1   -3   22      1.16      0.00
    2   -3   22      0.12      0.00
    3   -3   22     -2.67      0.00
    4   -3   22     -0.60      0.00
    5   -3   22      1.78      0.00
    6   -3   22      0.24      0.00
    7   -3   22      0.49      0.00
    8   -3   22     -0.27      0.00
   -8   -2   22     -1.01      0.00
   -7   -2   22     -0.63      0.00
   -6   -2   22      0.11      0.00
   -5   -2   22     -0.18      0.00
   -4   -2   22      0.68      0.00
   -3   -2   22     -2.31      0.00
   -2   -2   22     -1.25      0.00
   -1   -2   22     -3.53      0.00
    0   -2   22      4.41      0.00
    1   -2   22      0.47      0.00
    2   -2   22      0.86      0.00
    3   -2   22     -3.50      0.00
    4   -2   22     -1.25      0.00
    5   -2   22      1.40      0.00
    6   -2   22     -0.43      0.00
    7   -2   22      0.02      0.00
    8   -2   22      0.21      0.00
   -9   -1   22      0.42      0.00
   -8   -1   22      0.02      0.00
   -7   -1   22     -0.12      0.00
   -6   -1   22     -1.06      0.00
   -5   -1   22     -1.78      0.00
   -4   -1   22     -0.92      0.00
   -3   -1   22     -1.56      0.00
   -2   -1   22     -2.88      0.00
   -1   -1   22     -6.95      0.00
    0   -1   22      0.83      0.00
    1   -1   22      1.48      0.00
    2   -1   22      2.09      0.00
    3   -1   22     -1.28      0.00
    4   -1   22     -2.19      0.00
    5   -1   22      1.81      0.00
    6   -1   22     -0.18      0.00
    7   -1   22     -0.86      0.00
   -9    0   22     -0.15      0.00
   -8    0   22      0.27      0.00
   -7    0   22     -0.13      0.00
   -6    0   22     -0.62      0.00
   -5    0   22     -1.03      0.00
   -4    0   22      1.40      0.00
   -3    0   22      0.82      0.00
   -2    0   22      2.35      0.00
   -1    0   22     -3.65      0.00
    0    0   22     -2.04      0.00
    1    0   22      3.31      0.00
    2    0   22      3.23      0.00
    3    0   22      0.10      0.00
    4    0   22     -1.08      0.00
    5    0   22      2.15      0.00
    6    0   22      0.19      0.00
    7    0   22     -0.08      0.00
   -9    1   22     -0.09      0.00
   -8    1   22     -0.92      0.00
   -7    1   22      1.92      0.00
   -6    1   22      1.50      0.00
   -5    1   22     -0.55      0.00
   -4    1   22      2.23      0.00
   -3    1   22      1.75      0.00
   -2    1   22      4.20      0.00
   -1    1   22      0.33      0.00
    0    1   22     -3.36      0.00
    1    1   22      0.93      0.00
    2    1   22      2.43      0.00
    3    1   22     -1.05      0.00
    4    1   22     -0.57      0.00
    5    1   22      1.53      0.00
    6    1   22      1.47      0.00
    7    1   22     -0.83      0.00
   -9    2   22      0.39      0.00
   -8    2   22     -1.69      0.00
   -7    2   22      0.38      0.00
   -6    2   22      1.33      0.00
   -5    2   22     -1.44      0.00
   -4    2   22      1.62      0.00
   -3    2   22     -1.38      0.00
   -2    2   22      0.87      0.00
   -1    2   22      2.70      0.00
    0    2   22     -3.77      0.00
    1    2   22     -2.30      0.00
    2    2   22      0.60      0.00
    3    2   22     -1.52      0.00
    4    2   22     -0.97      0.00
    5    2   22     -0.90      0.00
    6    2   22      0.64      0.00
    7    2   22      1.03      0.00
   -9    3   22      0.67      0.00
   -8    3   22      0.20      0.00
   -7    3   22     -0.12      0.00
   -6    3   22      0.28      0.00
   -5    3   22     -2.37      0.00
   -4    3   22      0.78      0.00
   -3    3   22     -1.68      0.00
   -2    3   22     -0.53      0.00
   -1    3   22      1.61      0.00
    0    3   22     -2.06      0.00
    1    3   22     -0.95      0.00
    2    3   22      1.02      0.00
    3    3   22     -1.79      0.00
    4    3   22     -0.12      0.00
    5    3   22     -0.72      0.00
    6    3   22     -1.28      0.00
   -9    4   22      0.04      0.00
   -8    4   22     -0.87      0.00
   -7    4   22     -0.31      0.00
   -6    4   22      0.33      0.00
   -5    4   22     -2.44      0.00
   -4    4   22      3.06      0.00
   -3    4   22     -1.35      0.00
   -2    4   22      0.74      0.00
   -1    4   22      0.88      0.00
    0    4   22      2.55      0.00
    1    4   22      0.00      0.00
    2    4   22      1.71      0.00
    3    4   22     -0.69      0.00
    4    4   22      0.45      0.00
    5    4   22      0.94      0.00
    6    4   22     -1.06      0.00
   -9    5   22      0.39      0.00
   -8    5   22     -0.66      0.00
   -7    5   22      0.68      0.00
   -6    5   22     -0.08      0.00
   -5    5   22     -2.08      0.00
   -4    5   22      0.18      0.00
   -3    5   22     -2.42      0.00
   -2    5   22     -0.60      0.00
   -1    5   22     -0.86      0.00
    0    5   22      1.72      0.00
    1    5   22      0.40      0.00
    2    5   22      2.04      0.00
    3    5   22      0.40      0.00
    4    5   22     -0.30      0.00
    5    5   22      0.69      0.00
    6    5   22      0.26      0.00
   -9    6   22      0.22      0.00
   -8    6   22     -0.47      0.00
   -7    6   22      0.54      0.00
   -6    6   22      0.64      0.00
   -5    6   22     -0.25      0.00
   -4    6   22      1.58      0.00
   -3    6   22     -0.86      0.00
   -2    6   22      0.81      0.00
   -1    6   22     -2.37      0.00
    0    6   22     -1.22      0.00
    1    6   22     -1.92      0.00
    2    6   22     -0.92      0.00
    3    6   22     -0.18      0.00
    4    6   22     -1.40      0.00
    5    6   22      0.50      0.00
   -8    7   22      1.51      0.00
   -7    7   22     -1.17      0.00
   -6    7   22      2.31      0.00
   -5    7   22     -0.97      0.00
   -4    7   22      3.70      0.00
   -3    7   22     -0.63      0.00
   -2    7   22      1.68      0.00
   -1    7   22     -1.11      0.00
    0    7   22     -0.04      0.00
    1    7   22     -1.11      0.00
    2    7   22     -0.78      0.00
    3    7   22      1.55      0.00
    4    7   22      0.50      0.00
    5    7   22      0.56      0.00
   -8    8   22      1.97      0.00
   -7    8   22     -1.53      0.00
   -6    8   22      0.69      0.00
   -5    8   22     -1.09      0.00
   -4    8   22      0.32      0.00
   -3    8   22      0.11      0.00
   -2    8   22      1.39      0.00
   -1    8   22      1.81      0.00
    0    8   22      1.50      0.00
    1    8   22      2.13      0.00
    2    8   22      0.03      0.00
    3    8   22     -0.77      0.00
    4    8   22      0.01      0.00
   -8    9   22      0.75      0.00
   -7    9   22     -0.09      0.00
   -6    9   22      0.07      0.00
   -5    9   22     -0.85      0.00
   -4    9   22     -0.65      0.00
   -3    9   22     -0.23      0.00
   -2    9   22     -0.48      0.00
   -1    9   22      1.03      0.00
    0    9   22     -0.10      0.00
    1    9   22     -0.14      0.00
    2    9   22      1.64      0.00
    3    9   22     -2.42      0.00
   -7   10   22     -0.82      0.00
   -6   10   22     -0.61      0.00
   -5   10   22      0.10      0.00
   -4   10   22     -0.75      0.00
   -3   10   22     -0.55      0.00
   -2   10   22     -1.73      0.00
   -1   10   22     -1.12      0.00
    0   10   22     -0.89      0.00
    1   10   22     -0.82      0.00
    2   10   22      0.82      0.00
   -7   11   22      0.58      0.00
   -6   11   22      0.51      0.00
   -5   11   22      0.46      0.00
   -4   11   22     -0.35      0.00
   -3   11   22     -0.57      0.00
   -2   11   22     -1.28      0.00
   -1   11   22     -0.43      0.00
    0   11   22     -1.28      0.00
    1   11   22      0.46      0.00
    2   11   22      0.04      0.00
   -6   12   22      0.28      0.00
   -5   12   22     -0.58      0.00
   -4   12   22      1.54      0.00
   -3   12   22      1.00      0.00
   -2   12   22      0.85      0.00
   -1   12   22      0.64      0.00
    0   12   22     -0.64      0.00
   -4   13   22      1.37      0.00
   -3   13   22      0.55      0.00
   -2   13   22      0.39      0.00
    2  -15   23      0.04      0.00
   -1  -14   23     -0.06      0.00
    0  -14   23     -0.47      0.00
    1  -14   23     -0.04      0.00
    2  -14   23     -1.70      0.00
    3  -14   23      3.23      0.00
    4  -14   23     -1.74      0.00
   -3  -13   23     -0.51      0.00
   -2  -13   23      0.04      0.00
   -1  -13   23     -0.07      0.00
    0  -13   23     -0.39      0.00
    1  -13   23      0.81      0.00
    2  -13   23     -2.45      0.00
    3  -13   23      1.47      0.00
    4  -13   23      0.12      0.00
    5  -13   23     -0.28      0.00
   -4  -12   23     -0.14      0.00
   -3  -12   23     -1.33      0.00
   -2  -12   23      0.22      0.00
   -1  -12   23      0.73      0.00
    0  -12   23      0.28      0.00
    1  -12   23     -0.20      0.00
    2  -12   23     -0.93      0.00
    3  -12   23     -0.88      0.00
    4  -12   23     -0.13      0.00
    5  -12   23     -0.68      0.00
    6  -12   23     -1.16      0.00
   -4  -11   23     -0.16      0.00
   -3  -11   23     -0.54      0.00
   -2  -11   23      0.11      0.00
   -1  -11   23      0.29      0.00
    0  -11   23     -0.66      0.00
    1  -11   23     -2.30      0.00
    2  -11   23      0.82      0.00
    3  -11   23      0.80      0.00
    4  -11   23      0.22      0.00
    5  -11   23      0.60      0.00
    6  -11   23     -1.77      0.00
   -5  -10   23      0.80      0.00
   -4  -10   23     -0.28      0.00
   -3  -10   23      0.72      0.00
   -2  -10   23     -0.53      0.00
   -1  -10   23      1.98      0.00
    0  -10   23      0.80      0.00
    1  -10   23     -1.29      0.00
    2  -10   23      0.58      0.00
    3  -10   23      0.85      0.00
    4  -10   23      0.04      0.00
    5  -10   23      0.48      0.00
    6  -10   23     -0.58      0.00
    7  -10   23      0.76      0.00
   -6   -9   23      0.17      0.00
   -5   -9   23      1.56      0.00
   -4   -9   23     -1.05      0.00
   -3   -9   23      0.41      0.00
   -2   -9   23      0.50      0.00
   -1   -9   23      1.91      0.00
    0   -9   23      1.18      0.00
    1   -9   23     -0.54      0.00
    2   -9   23     -0.48      0.00
    3   -9   23      0.95      0.00
    4   -9   23      1.58      0.00
    5   -9   23     -0.60      0.00
    6   -9   23     -0.58      0.00
    7   -9   23     -1.37      0.00
   -6   -8   23     -0.30      0.00
   -5   -8   23      1.31      0.00
   -4   -8   23     -1.39      0.00
   -3   -8   23     -1.93      0.00
   -2   -8   23     -1.32      0.00
   -1   -8   23     -0.30      0.00
    0   -8   23      0.33      0.00
    1   -8   23     -1.39      0.00
    2   -8   23     -1.94      0.00
    3   -8   23     -0.92      0.00
    4   -8   23      2.01      0.00
    5   -8   23     -0.30      0.00
    6   -8   23     -0.76      0.00
    7   -8   23     -0.63      0.00
   -7   -7   23     -0.75      0.00
   -6   -7   23     -0.72      0.00
   -5   -7   23      1.47      0.00
   -4   -7   23      0.17      0.00
   -3   -7   23     -2.15      0.00
   -2   -7   23      0.23      0.00
   -1   -7   23      1.08      0.00
    0   -7   23      0.47      0.00
    1   -7   23     -0.10      0.00
    2   -7   23     -1.37      0.00
    3   -7   23     -0.97      0.00
    4   -7   23      0.93      0.00
    5   -7   23      0.28      0.00
    6   -7   23      0.41      0.00
    7   -7   23      1.84      0.00
   -7   -6   23     -0.47      0.00
   -6   -6   23     -0.92      0.00
   -5   -6   23      0.98      0.00
   -4   -6   23      2.57      0.00
   -3   -6   23      0.22      0.00
   -2   -6   23      0.44      0.00
   -1   -6   23      0.60      0.00
    0   -6   23      1.13      0.00
    1   -6   23      3.24      0.00
    2   -6   23     -0.62      0.00
    3   -6   23     -0.09      0.00
    4   -6   23      1.67      0.00
    5   -6   23     -0.59      0.00
    6   -6   23     -2.24      0.00
    7   -6   23      1.38      0.00
   -7   -5   23     -0.45      0.00
   -6   -5   23     -0.23      0.00
   -5   -5   23     -1.12      0.00
   -4   -5   23      2.24      0.00
   -3   -5   23     -1.40      0.00
   -2   -5   23     -0.31      0.00
   -1   -5   23     -1.86      0.00
    0   -5   23     -1.79      0.00
    1   -5   23      0.27      0.00
    2   -5   23     -0.11      0.00
    3   -5   23     -1.26      0.00
    4   -5   23      2.86      0.00
    5   -5   23      1.61      0.00
    6   -5   23     -2.16      0.00
    7   -5   23      1.07      0.00
   -8   -4   23      0.51      0.00
   -7   -4   23      0.05      0.00
   -6   -4   23     -0.29      0.00
   -5   -4   23     -2.85      0.00
   -4   -4   23      0.50      0.00
   -3   -4   23     -1.36      0.00
   -2   -4   23     -0.74      0.00
   -1   -4   23     -1.04      0.00
    0   -4   23     -4.02      0.00
    1   -4   23     -1.85      0.00
    2   -4   23     -0.64      0.00
    3   -4   23     -3.31      0.00
    4   -4   23      0.90      0.00
    5   -4   23      1.36      0.00
    6   -4   23     -1.02      0.00
    7   -4   23     -1.71      0.00
   -8   -3   23     -0.17      0.00
   -7   -3   23      1.29      0.00
   -6   -3   23     -0.18      0.00
   -5   -3   23      0.40      0.00
   -4   -3   23      0.57      0.00
   -3   -3   23      2.89      0.00
   -2   -3   23      2.74      0.00
   -1   -3   23      4.43      0.00
    0   -3   23      2.53      0.00
    1   -3   23      0.20      0.00
    2   -3   23      1.38      0.00
    3   -3   23     -2.07      0.00
    4   -3   23      0.76      0.00
    5   -3   23      1.30      0.00
    6   -3   23      0.45      0.00
    7   -3   23     -0.59      0.00
   -8   -2   23     -1.62      0.00
   -7   -2   23      1.52      0.00
   -6   -2   23      0.33      0.00
   -5   -2   23      0.86      0.00
   -4   -2   23      0.71      0.00
   -3   -2   23     -0.88      0.00
   -2   -2   23      0.96      0.00
   -1   -2   23      2.00      0.00
    0   -2   23      2.57      0.00
    1   -2   23     -0.79      0.00
    2   -2   23      0.25      0.00
    3   -2   23     -3.10      0.00
    4   -2   23      0.09      0.00
    5   -2   23      0.63      0.00
    6   -2   23      0.01      0.00
    7   -2   23     -0.06      0.00
   -8   -1   23     -0.77      0.00
   -7   -1   23      0.17      0.00
   -6   -1   23     -0.18      0.00
   -5   -1   23     -0.47      0.00
   -4   -1   23     -0.88      0.00
   -3   -1   23     -2.97      0.00
   -2   -1   23     -2.63      0.00
   -1   -1   23     -3.28      0.00
    0   -1   23      2.41      0.00
    1   -1   23     -0.75      0.00
    2   -1   23      1.07      0.00
    3   -1   23     -3.36      0.00
    4   -1   23     -0.16      0.00
    5   -1   23      0.71      0.00
    6   -1   23     -0.98      0.00
    7   -1   23     -0.81      0.00
   -9    0   23      0.05      0.00
   -8    0   23      0.26      0.00
   -7    0   23     -0.67      0.00
   -6    0   23     -1.81      0.00
   -5    0   23     -0.20      0.00
   -4    0   23     -0.15      0.00
   -3    0   23     -0.45      0.00
   -2    0   23     -1.08      0.00
   -1    0   23     -4.36      0.00
    0    0   23      2.98      0.00
    1    0   23      0.90      0.00
    2    0   23      3.60      0.00
    3    0   23     -1.08      0.00
    4    0   23     -0.04      0.00
    5    0   23      1.50      0.00
    6    0   23     -0.34      0.00
    7    0   23      0.11      0.00
   -9    1   23     -1.74      0.00
   -8    1   23      0.72      0.00
   -7    1   23     -0.19      0.00
   -6    1   23     -1.50      0.00
   -5    1   23      1.66      0.00
   -4    1   23      2.18      0.00
   -3    1   23      1.13      0.00
   -2    1   23      2.69      0.00
   -1    1   23     -3.29      0.00
    0    1   23      0.81      0.00
    1    1   23      1.57      0.00
    2    1   23      2.57      0.00
    3    1   23     -0.83      0.00
    4    1   23     -0.08      0.00
    5    1   23      2.97      0.00
    6    1   23     -0.14      0.00
    7    1   23     -0.02      0.00
   -9    2   23     -0.45      0.00
   -8    2   23      0.52      0.00
   -7    2   23      1.70      0.00
   -6    2   23      0.20      0.00
   -5    2   23      0.24      0.00
   -4    2   23      0.96      0.00
   -3    2   23      0.47      0.00
   -2    2   23      2.29      0.00
   -1    2   23     -1.71      0.00
    0    2   23     -1.99      0.00
    1    2   23     -0.81      0.00
    2    2   23      0.98      0.00
    3    2   23     -1.32      0.00
    4    2   23     -0.43      0.00
    5    2   23      1.26      0.00
    6    2   23      1.04      0.00
   -9    3   23     -0.33      0.00
   -8    3   23     -0.43      0.00
   -7    3   23      0.05      0.00
   -6    3   23     -0.55      0.00
   -5    3   23     -1.27      0.00
   -4    3   23      0.50      0.00
   -3    3   23     -0.85      0.00
   -2    3   23      0.21      0.00
   -1    3   23      0.07      0.00
    0    3   23     -1.93      0.00
    1    3   23     -1.39      0.00
    2    3   23      0.69      0.00
    3    3   23     -1.13      0.00
    4    3   23     -1.57      0.00
    5    3   23     -1.09      0.00
    6    3   23      0.27      0.00
   -9    4   23     -0.39      0.00
   -8    4   23      1.71      0.00
   -7    4   23      0.39      0.00
   -6    4   23     -0.89      0.00
   -5    4   23     -0.91      0.00
   -4    4   23      0.20      0.00
   -3    4   23     -0.24      0.00
   -2    4   23      0.90      0.00
   -1    4   23      1.28      0.00
    0    4   23     -1.55      0.00
    1    4   23     -0.24      0.00
    2    4   23      0.23      0.00
    3    4   23     -0.47      0.00
    4    4   23     -0.08      0.00
    5    4   23      0.53      0.00
    6    4   23     -1.09      0.00
   -9    5   23     -0.30      0.00
   -8    5   23     -0.26      0.00
   -7    5   23      0.74      0.00
   -6    5   23     -0.32      0.00
   -5    5   23     -0.71      0.00
   -4    5   23      1.66      0.00
   -3    5   23     -1.47      0.00
   -2    5   23      0.28      0.00
   -1    5   23      1.52      0.00
    0    5   23      1.29      0.00
    1    5   23      0.28      0.00
    2    5   23      1.65      0.00
    3    5   23     -0.41      0.00
    4    5   23     -0.44      0.00
    5    5   23      0.39      0.00
   -8    6   23     -1.85      0.00
   -7    6   23      1.63      0.00
   -6    6   23     -1.35      0.00
   -5    6   23     -0.37      0.00
   -4    6   23     -0.08      0.00
   -3    6   23     -1.90      0.00
   -2    6   23     -1.12      0.00
   -1    6   23      0.07      0.00
    0    6   23      1.00      0.00
    1    6   23     -1.29      0.00
    2    6   23      2.04      0.00
    3    6   23     -0.54      0.00
    4    6   23      0.01      0.00
    5    6   23      0.53      0.00
   -8    7   23     -0.59      0.00
   -7    7   23      1.07      0.00
   -6    7   23     -0.53      0.00
   -5    7   23      0.00      0.00
   -4    7   23      1.43      0.00
   -3    7   23      0.34      0.00
   -2    7   23      0.63      0.00
   -1    7   23     -1.05      0.00
    0    7   23     -0.59      0.00
    1    7   23     -2.56      0.00
    2    7   23      0.55      0.00
    3    7   23      0.60      0.00
    4    7   23     -0.06      0.00
   -8    8   23      1.31      0.00
   -7    8   23     -0.56      0.00
   -6    8   23      1.75      0.00
   -5    8   23     -0.91      0.00
   -4    8   23      2.21      0.00
   -3    8   23     -0.34      0.00
   -2    8   23     -0.09      0.00
   -1    8   23      0.05      0.00
    0    8   23      1.20      0.00
    1    8   23     -0.38      0.00
    2    8   23     -0.21      0.00
    3    8   23      0.47      0.00
    4    8   23     -0.47      0.00
   -7    9   23     -1.67      0.00
   -6    9   23      1.04      0.00
   -5    9   23     -1.05      0.00
   -4    9   23     -0.07      0.00
   -3    9   23     -0.35      0.00
   -2    9   23      1.21      0.00
   -1    9   23      0.68      0.00
    0    9   23      0.95      0.00
    1    9   23      1.00      0.00
    2    9   23     -0.26      0.00
    3    9   23     -0.67      0.00
   -7   10   23     -1.57      0.00
   -6   10   23      0.56      0.00
   -5   10   23     -1.45      0.00
   -4   10   23      0.41      0.00
   -3   10   23     -0.58      0.00
   -2   10   23      0.06      0.00
   -1   10   23      0.07      0.00
    0   10   23     -0.45      0.00
    1   10   23     -0.40      0.00
    2   10   23      1.02      0.00
   -6   11   23      0.23      0.00
   -5   11   23     -0.08      0.00
   -4   11   23     -0.35      0.00
   -3   11   23     -1.30      0.00
   -2   11   23     -1.46      0.00
   -1   11   23     -1.00      0.00
    0   11   23     -0.60      0.00
    1   11   23     -0.25      0.00
   -5   12   23      0.69      0.00
   -4   12   23      0.68      0.00
   -3   12   23     -0.45      0.00
   -2   12   23      0.10      0.00
   -1   12   23      0.00      0.00
   -1  -14   24      0.70      0.00
    0  -14   24     -1.03      0.00
    1  -14   24     -0.23      0.00
    2  -14   24      1.12      0.00
    3  -14   24      0.53      0.00
   -2  -13   24     -0.41      0.00
   -1  -13   24     -0.57      0.00
    0  -13   24     -0.73      0.00
    1  -13   24     -0.94      0.00
    2  -13   24     -0.23      0.00
    3  -13   24      2.05      0.00
    4  -13   24     -1.80      0.00
    5  -13   24      1.35      0.00
   -3  -12   24     -0.17      0.00
   -2  -12   24      0.48      0.00
   -1  -12   24      0.56      0.00
    0  -12   24      0.51      0.00
    1  -12   24      0.21      0.00
    2  -12   24     -1.34      0.00
    3  -12   24      1.04      0.00
    4  -12   24      0.00      0.00
    5  -12   24     -0.64      0.00
   -4  -11   24     -0.21      0.00
   -3  -11   24     -0.51      0.00
   -2  -11   24      1.11      0.00
   -1  -11   24      0.03      0.00
    0  -11   24     -0.91      0.00
    1  -11   24     -0.10      0.00
    2  -11   24     -0.39      0.00
    3  -11   24     -1.55      0.00
    4  -11   24      0.43      0.00
    5  -11   24     -0.96      0.00
    6  -11   24     -2.21      0.00
   -5  -10   24     -0.14      0.00
   -4  -10   24      0.39      0.00
   -3  -10   24     -1.02      0.00
   -2  -10   24      0.41      0.00
   -1  -10   24      0.14      0.00
    0  -10   24     -0.98      0.00
    1  -10   24     -1.46      0.00
    2  -10   24      1.59      0.00
    3  -10   24     -0.05      0.00
    4  -10   24      1.81      0.00
    5  -10   24      1.35      0.00
    6  -10   24     -1.47      0.00
   -5   -9   24     -0.55      0.00
   -4   -9   24      0.27      0.00
   -3   -9   24      0.76      0.00
   -2   -9   24     -0.07      0.00
   -1   -9   24      1.12      0.00
    0   -9   24      0.65      0.00
    1   -9   24     -0.76      0.00
    2   -9   24      2.60      0.00
    3   -9   24     -0.47      0.00
    4   -9   24      0.23      0.00
    5   -9   24     -0.45      0.00
    6   -9   24     -1.51      0.00
    7   -9   24      0.72      0.00
   -6   -8   24      0.67      0.00
   -5   -8   24      0.49      0.00
   -4   -8   24     -1.05      0.00
   -3   -8   24      0.18      0.00
   -2   -8   24      0.63      0.00
   -1   -8   24      0.67      0.00
    0   -8   24     -0.58      0.00
    1   -8   24     -1.38      0.00
    2   -8   24      0.01      0.00
    3   -8   24      0.18      0.00
    4   -8   24      2.63      0.00
    5   -8   24     -1.93      0.00
    6   -8   24     -0.77      0.00
    7   -8   24     -1.24      0.00
   -6   -7   24      0.43      0.00
   -5   -7   24      1.19      0.00
   -4   -7   24     -1.62      0.00
   -3   -7   24     -1.23      0.00
   -2   -7   24      0.27      0.00
   -1   -7   24     -0.43      0.00
    0   -7   24     -0.41      0.00
    1   -7   24     -1.91      0.00
    2   -7   24     -1.89      0.00
    3   -7   24     -0.82      0.00
    4   -7   24      2.75      0.00
    5   -7   24     -0.88      0.00
    6   -7   24      0.95      0.00
    7   -7   24     -0.81      0.00
   -7   -6   24     -1.01      0.00
   -6   -6   24     -0.48      0.00
   -5   -6   24      1.25      0.00
   -4   -6   24      0.39      0.00
   -3   -6   24     -1.76      0.00
   -2   -6   24      1.58      0.00
   -1   -6   24      1.44      0.00
    0   -6   24      2.20      0.00
    1   -6   24      0.30      0.00
    2   -6   24     -0.62      0.00
    3   -6   24      0.15      0.00
    4   -6   24      2.02      0.00
    5   -6   24     -1.19      0.00
    6   -6   24      0.99      0.00
    7   -6   24      0.16      0.00
   -7   -5   24     -0.38      0.00
   -6   -5   24     -0.66      0.00
   -5   -5   24      1.77      0.00
   -4   -5   24      1.28      0.00
   -3   -5   24     -0.66      0.00
   -2   -5   24      0.11      0.00
   -1   -5   24     -1.06      0.00
    0   -5   24      0.87      0.00
    1   -5   24      1.85      0.00
    2   -5   24     -1.85      0.00
    3   -5   24      0.18      0.00
    4   -5   24      2.13      0.00
    5   -5   24     -1.64      0.00
    6   -5   24     -1.00      0.00
    7   -5   24      1.13      0.00
   -8   -4   24      0.65      0.00
   -7   -4   24     -0.88      0.00
   -6   -4   24     -0.74      0.00
   -5   -4   24     -0.49      0.00
   -4   -4   24      1.16      0.00
   -3   -4   24     -1.94      0.00
   -2   -4   24     -0.54      0.00
   -1   -4   24     -2.66      0.00
    0   -4   24     -1.24      0.00
    1   -4   24     -0.03      0.00
    2   -4   24     -1.37      0.00
    3   -4   24     -1.22      0.00
    4   -4   24      2.03      0.00
    5   -4   24      1.56      0.00
    6   -4   24     -0.59      0.00
    7   -4   24      1.05      0.00
   -8   -3   24      1.36      0.00
   -7   -3   24     -0.46      0.00
   -6   -3   24      0.27      0.00
   -5   -3   24     -2.01      0.00
   -4   -3   24      1.83      0.00
   -3   -3   24     -0.57      0.00
   -2   -3   24      0.23      0.00
   -1   -3   24      0.06      0.00
    0   -3   24     -1.53      0.00
    1   -3   24      0.33      0.00
    2   -3   24     -0.61      0.00
    3   -3   24     -2.11      0.00
    4   -3   24      0.56      0.00
    5   -3   24      1.71      0.00
    6   -3   24     -1.50      0.00
    7   -3   24     -1.25      0.00
   -8   -2   24     -0.26      0.00
   -7   -2   24      0.27      0.00
   -6   -2   24      0.34      0.00
   -5   -2   24     -0.09      0.00
   -4   -2   24      1.78      0.00
   -3   -2   24      2.58      0.00
   -2   -2   24      1.04      0.00
   -1   -2   24      3.24      0.00
    0   -2   24      1.57      0.00
    1   -2   24      0.94      0.00
    2   -2   24      0.89      0.00
    3   -2   24     -1.99      0.00
    4   -2   24     -0.43      0.00
    5   -2   24      0.78      0.00
    6   -2   24     -0.28      0.00
    7   -2   24     -0.44      0.00
   -8   -1   24     -0.61      0.00
   -7   -1   24      1.49      0.00
   -6   -1   24      1.53      0.00
   -5   -1   24     -0.87      0.00
   -4   -1   24     -0.39      0.00
   -3   -1   24     -1.26      0.00
   -2   -1   24     -1.22      0.00
   -1   -1   24      1.48      0.00
    0   -1   24     -0.70      0.00
    1   -1   24     -0.54      0.00
    2   -1   24     -0.74      0.00
    3   -1   24     -2.20      0.00
    4   -1   24     -0.41      0.00
    5   -1   24      0.11      0.00
    6   -1   24     -0.46      0.00
    7   -1   24     -0.37      0.00
   -8    0   24     -0.01      0.00
   -7    0   24     -1.40      0.00
   -6    0   24      0.39      0.00
   -5    0   24     -2.08      0.00
   -4    0   24     -0.14      0.00
   -3    0   24     -0.64      0.00
   -2    0   24     -3.23      0.00
   -1    0   24     -0.17      0.00
    0    0   24      0.17      0.00
    1    0   24      1.36      0.00
    2    0   24      1.42      0.00
    3    0   24     -1.00      0.00
    4    0   24      0.60      0.00
    5    0   24      0.58      0.00
    6    0   24     -0.99      0.00
    7    0   24     -0.22      0.00
   -8    1   24      0.09      0.00
   -7    1   24     -2.04      0.00
   -6    1   24      0.40      0.00
   -5    1   24      0.78      0.00
   -4    1   24      0.50      0.00
   -3    1   24      0.83      0.00
   -2    1   24     -1.27      0.00
   -1    1   24     -0.50      0.00
    0    1   24      2.42      0.00
    1    1   24      1.21      0.00
    2    1   24      2.36      0.00
    3    1   24     -1.01      0.00
    4    1   24      1.03      0.00
    5    1   24      1.05      0.00
    6    1   24     -0.34      0.00
   -8    2   24      1.03      0.00
   -7    2   24     -0.05      0.00
   -6    2   24     -0.64      0.00
   -5    2   24      2.27      0.00
   -4    2   24      0.51      0.00
   -3    2   24      0.32      0.00
   -2    2   24      0.78      0.00
   -1    2   24     -1.65      0.00
    0    2   24      1.08      0.00
    1    2   24     -0.26      0.00
    2    2   24      1.30      0.00
    3    2   24     -0.58      0.00
    4    2   24      0.93      0.00
    5    2   24      1.95      0.00
    6    2   24      0.35      0.00
   -8    3   24      1.36      0.00
   -7    3   24      0.74      0.00
   -6    3   24     -1.83      0.00
   -5    3   24      0.30      0.00
   -4    3   24      0.37      0.00
   -3    3   24     -0.07      0.00
   -2    3   24      0.30      0.00
   -1    3   24     -2.66      0.00
    0    3   24     -1.14      0.00
    1    3   24     -1.30      0.00
    2    3   24      0.65      0.00
    3    3   24     -1.19      0.00
    4    3   24     -0.75      0.00
    5    3   24      0.08      0.00
    6    3   24      1.46      0.00
   -8    4   24     -0.10      0.00
   -7    4   24     -0.35      0.00
   -6    4   24     -1.50      0.00
   -5    4   24      0.62      0.00
   -4    4   24      0.77      0.00
   -3    4   24      0.28      0.00
   -2    4   24      0.54      0.00
   -1    4   24     -1.09      0.00
    0    4   24     -0.10      0.00
    1    4   24     -1.43      0.00
    2    4   24     -0.76      0.00
    3    4   24     -1.10      0.00
    4    4   24     -0.62      0.00
    5    4   24     -1.46      0.00
   -8    5   24      1.96      0.00
   -7    5   24      0.71      0.00
   -6    5   24     -1.62      0.00
   -5    5   24      0.44      0.00
   -4    5   24     -1.12      0.00
   -3    5   24     -0.06      0.00
   -2    5   24      1.17      0.00
   -1    5   24      0.48      0.00
    0    5   24     -0.05      0.00
    1    5   24      0.86      0.00
    2    5   24      0.70      0.00
    3    5   24      0.33      0.00
    4    5   24      0.15      0.00
    5    5   24     -0.10      0.00
   -8    6   24      0.15      0.00
   -7    6   24      0.44      0.00
   -6    6   24     -1.41      0.00
   -5    6   24     -0.09      0.00
   -4    6   24      0.59      0.00
   -3    6   24     -0.83      0.00
   -2    6   24      0.36      0.00
   -1    6   24      1.28      0.00
    0    6   24      0.51      0.00
    1    6   24      1.14      0.00
    2    6   24      1.41      0.00
    3    6   24     -0.81      0.00
    4    6   24     -0.12      0.00
   -8    7   24     -0.74      0.00
   -7    7   24      1.66      0.00
   -6    7   24     -1.21      0.00
   -5    7   24      0.49      0.00
   -4    7   24      0.37      0.00
   -3    7   24     -0.19      0.00
   -2    7   24     -0.61      0.00
   -1    7   24     -0.15      0.00
    0    7   24     -0.92      0.00
    1    7   24     -1.88      0.00
    2    7   24      1.12      0.00
    3    7   24     -0.73      0.00
    4    7   24      1.63      0.00
   -7    8   24      0.77      0.00
   -6    8   24     -0.53      0.00
   -5    8   24     -0.44      0.00
   -4    8   24      0.50      0.00
   -3    8   24      0.05      0.00
   -2    8   24      0.00      0.00
   -1    8   24     -0.36      0.00
    0    8   24      0.09      0.00
    1    8   24     -0.94      0.00
    2    8   24      0.88      0.00
    3    8   24     -0.60      0.00
   -7    9   24      0.71      0.00
   -6    9   24      1.20      0.00
   -5    9   24     -0.73      0.00
   -4    9   24      0.80      0.00
   -3    9   24     -0.33      0.00
   -2    9   24     -0.29      0.00
   -1    9   24      0.55      0.00
    0    9   24      0.69      0.00
    1    9   24      0.50      0.00
    2    9   24      0.13      0.00
   -6   10   24     -0.06      0.00
   -5   10   24     -1.23      0.00
   -4   10   24      0.41      0.00
   -3   10   24      0.26      0.00
   -2   10   24      1.87      0.00
   -1   10   24      0.31      0.00
    0   10   24     -0.04      0.00
    1   10   24      0.83      0.00
    2   10   24     -0.03      0.00
   -5   11   24     -1.19      0.00
   -4   11   24      0.65      0.00
   -3   11   24     -1.34      0.00
   -2   11   24     -0.50      0.00
   -1   11   24     -0.22      0.00
    0   11   24     -0.82      0.00
   -4   12   24     -1.01      0.00
   -3   12   24     -1.40      0.00
   -2   12   24     -1.62      0.00
    0  -14   25     -0.10      0.00
    1  -14   25      0.69      0.00
    2  -14   25      0.34      0.00
   -2  -13   25     -0.63      0.00
   -1  -13   25      0.23      0.00
    0  -13   25     -1.62      0.00
    1  -13   25     -0.13      0.00
    2  -13   25      0.96      0.00
    3  -13   25      0.01      0.00
    4  -13   25     -0.21      0.00
   -3  -12   25      0.40      0.00
   -2  -12   25     -0.70      0.00
   -1  -12   25     -0.10      0.00
    0  -12   25      0.13      0.00
    1  -12   25     -0.74      0.00
    2  -12   25      0.61      0.00
    3  -12   25      1.37      0.00
    4  -12   25     -1.67      0.00
    5  -12   25      0.17      0.00
   -4  -11   25     -1.53      0.00
   -3  -11   25      1.31      0.00
   -2  -11   25      0.70      0.00
   -1  -11   25      0.30      0.00
    0  -11   25      0.52      0.00
    1  -11   25      0.08      0.00
    2  -11   25     -0.56      0.00
    3  -11   25      1.12      0.00
    4  -11   25      0.12      0.00
    5  -11   25     -1.31      0.00
   -5  -10   25      0.82      0.00
   -4  -10   25     -1.22      0.00
   -3  -10   25     -0.85      0.00
   -2  -10   25      1.18      0.00
   -1  -10   25     -0.76      0.00
    0  -10   25     -1.82      0.00
    1  -10   25      0.14      0.00
    2  -10   25     -1.40      0.00
    3  -10   25     -0.34      0.00
    4  -10   25      1.13      0.00
    5  -10   25     -0.68      0.00
    6  -10   25     -1.19      0.00
   -5   -9   25      0.36      0.00
   -4   -9   25      0.92      0.00
   -3   -9   25     -1.11      0.00
   -2   -9   25      0.25      0.00
   -1   -9   25     -0.20      0.00
    0   -9   25     -0.33      0.00
    1   -9   25      1.24      0.00
    2   -9   25      0.51      0.00
    3   -9   25      0.01      0.00
    4   -9   25      1.09      0.00
    5   -9   25      0.57      0.00
    6   -9   25     -1.09      0.00
   -6   -8   25      0.34      0.00
   -5   -8   25     -0.56      0.00
   -4   -8   25      0.36      0.00
   -3   -8   25      0.62      0.00
   -2   -8   25      0.67      0.00
   -1   -8   25     -0.15      0.00
    0   -8   25      0.12      0.00
    1   -8   25      0.07      0.00
    2   -8   25      1.70      0.00
    3   -8   25     -0.01      0.00
    4   -8   25      0.28      0.00
    5   -8   25     -0.96      0.00
    6   -8   25     -2.35      0.00
   -6   -7   25      0.45      0.00
   -5   -7   25      0.27      0.00
   -4   -7   25     -0.78      0.00
   -3   -7   25     -0.12      0.00
   -2   -7   25      0.75      0.00
   -1   -7   25     -0.89      0.00
    0   -7   25     -2.00      0.00
    1   -7   25     -0.99      0.00
    2   -7   25     -0.57      0.00
    3   -7   25      0.38      0.00
    4   -7   25      2.06      0.00
    5   -7   25     -0.81      0.00
    6   -7   25      0.45      0.00
    7   -7   25     -0.98      0.00
   -7   -6   25     -0.27      0.00
   -6   -6   25      0.27      0.00
   -5   -6   25      0.34      0.00
   -4   -6   25     -1.17      0.00
   -3   -6   25     -0.48      0.00
   -2   -6   25      0.63      0.00
   -1   -6   25      0.31      0.00
    0   -6   25      0.33      0.00
    1   -6   25     -0.54      0.00
    2   -6   25     -1.24      0.00
    3   -6   25     -0.42      0.00
    4   -6   25      1.51      0.00
    5   -6   25     -1.37      0.00
    6   -6   25      0.53      0.00
    7   -6   25     -1.30      0.00
   -7   -5   25     -0.55      0.00
   -6   -5   25      0.53      0.00
   -5   -5   25      0.80      0.00
   -4   -5   25      0.54      0.00
   -3   -5   25     -0.66      0.00
   -2   -5   25      2.00      0.00
   -1   -5   25      1.42      0.00
    0   -5   25      2.17      0.00
    1   -5   25      0.51      0.00
    2   -5   25      0.24      0.00
    3   -5   25      0.63      0.00
    4   -5   25      2.42      0.00
    5   -5   25     -1.49      0.00
    6   -5   25      0.72      0.00
    7   -5   25      0.48      0.00
   -7   -4   25     -0.32      0.00
   -6   -4   25      0.07      0.00
   -5   -4   25      0.92      0.00
   -4   -4   25     -0.46      0.00
   -3   -4   25     -1.11      0.00
   -2   -4   25     -0.82      0.00
   -1   -4   25     -1.72      0.00
    0   -4   25     -0.97      0.00
    1   -4   25      0.21      0.00
    2   -4   25     -2.18      0.00
    3   -4   25     -0.12      0.00
    4   -4   25      1.96      0.00
    5   -4   25     -0.51      0.00
    6   -4   25     -0.04      0.00
    7   -4   25      0.80      0.00
   -8   -3   25      0.89      0.00
   -7   -3   25     -0.94      0.00
   -6   -3   25      0.02      0.00
   -5   -3   25     -0.02      0.00
   -4   -3   25      0.33      0.00
   -3   -3   25     -2.25      0.00
   -2   -3   25     -0.32      0.00
   -1   -3   25     -0.75      0.00
    0   -3   25     -0.03      0.00
    1   -3   25      0.14      0.00
    2   -3   25     -1.98      0.00
    3   -3   25     -1.12      0.00
    4   -3   25      1.51      0.00
    5   -3   25      1.47      0.00
    6   -3   25     -1.05      0.00
    7   -3   25      0.19      0.00
   -8   -2   25      1.48      0.00
   -7   -2   25     -1.75      0.00
   -6   -2   25      0.47      0.00
   -5   -2   25     -0.98      0.00
   -4   -2   25      2.77      0.00
   -3   -2   25     -0.81      0.00
   -2   -2   25      0.58      0.00
   -1   -2   25      0.42      0.00
    0   -2   25      0.44      0.00
    1   -2   25      1.57      0.00
    2   -2   25     -0.87      0.00
    3   -2   25     -1.46      0.00
    4   -2   25     -0.52      0.00
    5   -2   25      2.43      0.00
    6   -2   25     -2.09      0.00
    7   -2   25      0.18      0.00
   -8   -1   25      0.31      0.00
   -7   -1   25     -0.30      0.00
   -6   -1   25      1.26      0.00
   -5   -1   25     -0.59      0.00
   -4   -1   25      1.99      0.00
   -3   -1   25      0.81      0.00
   -2   -1   25      0.05      0.00
   -1   -1   25      1.07      0.00
    0   -1   25      0.51      0.00
    1   -1   25      0.94      0.00
    2   -1   25     -0.69      0.00
    3   -1   25     -1.45      0.00
    4   -1   25     -1.60      0.00
    5   -1   25      1.58      0.00
    6   -1   25     -1.03      0.00
    7   -1   25     -0.16      0.00
   -8    0   25      0.88      0.00
   -7    0   25      0.75      0.00
   -6    0   25      1.81      0.00
   -5    0   25     -2.19      0.00
   -4    0   25      0.32      0.00
   -3    0   25     -0.42      0.00
   -2    0   25     -1.54      0.00
   -1    0   25      1.30      0.00
    0    0   25     -1.52      0.00
    1    0   25      0.65      0.00
    2    0   25     -1.28      0.00
    3    0   25     -0.21      0.00
    4    0   25     -1.27      0.00
    5    0   25      0.38      0.00
    6    0   25     -1.50      0.00
   -8    1   25     -0.17      0.00
   -7    1   25     -3.01      0.00
   -6    1   25      1.10      0.00
   -5    1   25     -2.62      0.00
   -4    1   25      0.33      0.00
   -3    1   25      0.54      0.00
   -2    1   25     -2.81      0.00
   -1    1   25      1.60      0.00
    0    1   25     -0.34      0.00
    1    1   25      4.16      0.00
    2    1   25      1.07      0.00
    3    1   25      0.49      0.00
    4    1   25     -0.59      0.00
    5    1   25      1.35      0.00
    6    1   25     -1.49      0.00
   -8    2   25      0.20      0.00
   -7    2   25     -1.80      0.00
   -6    2   25      2.47      0.00
   -5    2   25     -0.03      0.00
   -4    2   25     -0.13      0.00
   -3    2   25      0.91      0.00
   -2    2   25     -1.27      0.00
   -1    2   25      1.45      0.00
    0    2   25      0.15      0.00
    1    2   25      0.28      0.00
    2    2   25      0.36      0.00
    3    2   25      0.18      0.00
    4    2   25      0.85      0.00
    5    2   25      2.08      0.00
    6    2   25     -0.30      0.00
   -8    3   25      0.55      0.00
   -7    3   25      0.23      0.00
   -6    3   25     -0.19      0.00
   -5    3   25      1.58      0.00
   -4    3   25      0.42      0.00
   -3    3   25      0.29      0.00
   -2    3   25     -0.61      0.00
   -1    3   25     -1.00      0.00
    0    3   25     -0.18      0.00
    1    3   25     -1.20      0.00
    2    3   25      1.26      0.00
    3    3   25      0.06      0.00
    4    3   25     -0.04      0.00
    5    3   25      1.37      0.00
   -8    4   25     -0.14      0.00
   -7    4   25     -0.68      0.00
   -6    4   25     -1.20      0.00
   -5    4   25      0.20      0.00
   -4    4   25      1.01      0.00
   -3    4   25     -0.70      0.00
   -2    4   25     -0.47      0.00
   -1    4   25     -1.70      0.00
    0    4   25      0.39      0.00
    1    4   25     -1.64      0.00
    2    4   25      0.08      0.00
    3    4   25     -1.05      0.00
    4    4   25     -1.34      0.00
    5    4   25      0.08      0.00
   -8    5   25     -0.15      0.00
   -7    5   25     -0.65      0.00
   -6    5   25     -0.34      0.00
   -5    5   25     -0.52      0.00
   -4    5   25      0.71      0.00
   -3    5   25      0.06      0.00
   -2    5   25      0.36      0.00
   -1    5   25     -0.74      0.00
    0    5   25      1.05      0.00
    1    5   25     -0.89      0.00
    2    5   25     -0.71      0.00
    3    5   25     -0.47      0.00
    4    5   25     -0.23      0.00
    5    5   25     -0.94      0.00
   -8    6   25      1.93      0.00
   -7    6   25     -0.33      0.00
   -6    6   25     -0.88      0.00
   -5    6   25     -0.22      0.00
   -4    6   25     -0.30      0.00
   -3    6   25      0.06      0.00
   -2    6   25      0.81      0.00
   -1    6   25     -0.18      0.00
    0    6   25      0.73      0.00
    1    6   25      1.15      0.00
    2    6   25      0.46      0.00
    3    6   25     -0.03      0.00
    4    6   25      0.15      0.00
   -7    7   25     -0.84      0.00
   -6    7   25      0.69      0.00
   -5    7   25     -0.48      0.00
   -4    7   25      1.94      0.00
   -3    7   25     -0.26      0.00
   -2    7   25      0.86      0.00
   -1    7   25     -0.27      0.00
    0    7   25     -0.89      0.00
    1    7   25      1.11      0.00
    2    7   25      0.34      0.00
    3    7   25     -0.26      0.00
   -7    8   25     -0.06      0.00
   -6    8   25      0.44      0.00
   -5    8   25     -1.27      0.00
   -4    8   25      0.95      0.00
   -3    8   25     -0.62      0.00
   -2    8   25     -0.08      0.00
   -1    8   25     -0.32      0.00
    0    8   25     -0.56      0.00
    1    8   25      0.30      0.00
    2    8   25     -0.36      0.00
    3    8   25     -0.60      0.00
   -7    9   25     -0.56      0.00
   -6    9   25      0.42      0.00
   -5    9   25     -1.58      0.00
   -4    9   25      0.12      0.00
   -3    9   25     -0.84      0.00
   -2    9   25      1.36      0.00
   -1    9   25     -0.06      0.00
    0    9   25      0.14      0.00
    1    9   25      0.50      0.00
    2    9   25      0.32      0.00
   -6   10   25      0.74      0.00
   -5   10   25     -0.84      0.00
   -4   10   25      0.63      0.00
   -3   10   25      0.29      0.00
   -2   10   25      0.68      0.00
   -1   10   25     -0.52      0.00
    0   10   25     -0.18      0.00
    1   10   25      0.90      0.00
   -5   11   25     -0.30      0.00
   -4   11   25      0.11      0.00
   -3   11   25     -0.89      0.00
   -2   11   25      1.07      0.00
   -1   11   25     -0.09      0.00
   -1  -13   26      0.06      0.00
    0  -13   26     -0.33      0.00
    1  -13   26      1.23      0.00
    2  -13   26     -0.38      0.00
    3  -13   26     -0.31      0.00
   -2  -12   26     -1.17      0.00
   -1  -12   26      0.14      0.00
    0  -12   26     -1.56      0.00
    1  -12   26      0.45      0.00
    2  -12   26      0.40      0.00
    3  -12   26      0.20      0.00
    4  -12   26      0.36      0.00
   -3  -11   26      0.87      0.00
   -2  -11   26     -0.16      0.00
   -1  -11   26      0.13      0.00
    0  -11   26     -0.07      0.00
    1  -11   26      0.67      0.00
    2  -11   26      0.84      0.00
    3  -11   26      0.67      0.00
    4  -11   26     -1.59      0.00
    5  -11   26     -1.35      0.00
   -4  -10   26     -1.69      0.00
   -3  -10   26      0.85      0.00
   -2  -10   26      0.64      0.00
   -1  -10   26      0.55      0.00
    0  -10   26     -0.43      0.00
    1  -10   26     -0.56      0.00
    2  -10   26     -0.94      0.00
    3  -10   26      1.76      0.00
    4  -10   26      0.19      0.00
    5  -10   26     -1.65      0.00
   -5   -9   26      1.04      0.00
   -4   -9   26     -0.85      0.00
   -3   -9   26     -1.58      0.00
   -2   -9   26      0.97      0.00
   -1   -9   26     -0.31      0.00
    0   -9   26     -1.11      0.00
    1   -9   26      0.61      0.00
    2   -9   26     -1.56      0.00
    3   -9   26      1.23      0.00
    4   -9   26      0.53      0.00
    5   -9   26     -1.00      0.00
    6   -9   26      0.64      0.00
   -5   -8   26      0.39      0.00
   -4   -8   26      1.38      0.00
   -3   -8   26     -1.97      0.00
   -2   -8   26      0.19      0.00
   -1   -8   26     -0.30      0.00
    0   -8   26      0.79      0.00
    1   -8   26      1.82      0.00
    2   -8   26     -0.93      0.00
    3   -8   26      1.61      0.00
    4   -8   26      0.92      0.00
    5   -8   26     -1.00      0.00
    6   -8   26     -0.89      0.00
   -6   -7   26      0.04      0.00
   -5   -7   26     -0.18      0.00
   -4   -7   26      0.45      0.00
   -3   -7   26     -0.50      0.00
   -2   -7   26      1.30      0.00
   -1   -7   26     -1.67      0.00
    0   -7   26     -0.79      0.00
    1   -7   26     -1.18      0.00
    2   -7   26      0.05      0.00
    3   -7   26      0.46      0.00
    4   -7   26      0.14      0.00
    5   -7   26     -0.45      0.00
    6   -7   26     -2.21      0.00
   -6   -6   26     -0.30      0.00
   -5   -6   26      0.45      0.00
   -4   -6   26      0.73      0.00
   -3   -6   26     -0.79      0.00
   -2   -6   26      0.40      0.00
   -1   -6   26     -0.27      0.00
    0   -6   26      0.36      0.00
    1   -6   26     -0.37      0.00
    2   -6   26     -0.78      0.00
    3   -6   26     -0.02      0.00
    4   -6   26      0.27      0.00
    5   -6   26      0.44      0.00
    6   -6   26      0.79      0.00
   -7   -5   26      0.55      0.00
   -6   -5   26     -0.14      0.00
   -5   -5   26      0.02      0.00
   -4   -5   26     -0.22      0.00
   -3   -5   26      0.32      0.00
   -2   -5   26      0.68      0.00
   -1   -5   26      0.91      0.00
    0   -5   26      1.35      0.00
    1   -5   26     -0.18      0.00
    2   -5   26     -0.14      0.00
    3   -5   26      0.42      0.00
    4   -5   26      1.05      0.00
    5   -5   26     -0.56      0.00
    6   -5   26     -1.09      0.00
   -7   -4   26      0.08      0.00
   -6   -4   26      0.00      0.00
   -5   -4   26     -0.41      0.00
   -4   -4   26     -0.33      0.00
   -3   -4   26      0.35      0.00
   -2   -4   26      1.06      0.00
   -1   -4   26     -0.01      0.00
    0   -4   26      1.11      0.00
    1   -4   26     -0.32      0.00
    2   -4   26      0.78      0.00
    3   -4   26      0.46      0.00
    4   -4   26      2.00      0.00
    5   -4   26     -0.31      0.00
    6   -4   26     -0.77      0.00
   -7   -3   26      0.35      0.00
   -6   -3   26      0.10      0.00
   -5   -3   26      0.29      0.00
   -4   -3   26     -1.90      0.00
   -3   -3   26     -1.03      0.00
   -2   -3   26     -1.33      0.00
   -1   -3   26     -0.61      0.00
    0   -3   26     -1.87      0.00
    1   -3   26     -0.70      0.00
    2   -3   26     -2.12      0.00
    3   -3   26     -0.95      0.00
    4   -3   26      1.48      0.00
    5   -3   26      0.77      0.00
    6   -3   26     -1.05      0.00
   -8   -2   26      0.81      0.00
   -7   -2   26     -0.64      0.00
   -6   -2   26      0.48      0.00
   -5   -2   26      1.07      0.00
   -4   -2   26     -0.07      0.00
   -3   -2   26     -0.96      0.00
   -2   -2   26      0.15      0.00
   -1   -2   26      0.94      0.00
    0   -2   26      0.56      0.00
    1   -2   26      0.51      0.00
    2   -2   26     -1.38      0.00
    3   -2   26     -0.86      0.00
    4   -2   26      1.74      0.00
    5   -2   26      1.30      0.00
    6   -2   26     -0.72      0.00
   -8   -1   26      1.23      0.00
   -7   -1   26     -1.85      0.00
   -6   -1   26      0.14      0.00
   -5   -1   26      0.46      0.00
   -4   -1   26      2.08      0.00
   -3   -1   26     -1.59      0.00
   -2   -1   26      0.87      0.00
   -1   -1   26      0.72      0.00
    0   -1   26      0.72      0.00
    1   -1   26      0.86      0.00
    2   -1   26     -1.02      0.00
    3   -1   26     -2.32      0.00
    4   -1   26     -0.07      0.00
    5   -1   26      2.16      0.00
    6   -1   26     -1.79      0.00
   -8    0   26      0.92      0.00
   -7    0   26     -0.14      0.00
   -6    0   26      1.06      0.00
   -5    0   26     -0.74      0.00
   -4    0   26      1.28      0.00
   -3    0   26     -0.91      0.00
   -2    0   26     -0.33      0.00
   -1    0   26     -0.20      0.00
    0    0   26      0.50      0.00
    1    0   26     -0.35      0.00
    2    0   26     -0.45      0.00
    3    0   26     -1.72      0.00
    4    0   26     -0.93      0.00
    5    0   26      0.47      0.00
    6    0   26     -0.89      0.00
   -8    1   26      1.19      0.00
   -7    1   26     -0.24      0.00
   -6    1   26      0.23      0.00
   -5    1   26     -1.22      0.00
   -4    1   26      1.14      0.00
   -3    1   26     -0.16      0.00
   -2    1   26     -0.94      0.00
   -1    1   26      0.20      0.00
    0    1   26      0.45      0.00
    1    1   26      1.38      0.00
    2    1   26      0.04      0.00
    3    1   26     -0.88      0.00
    4    1   26     -0.81      0.00
    5    1   26     -0.23      0.00
    6    1   26     -1.10      0.00
   -8    2   26     -0.13      0.00
   -7    2   26     -2.57      0.00
   -6    2   26      0.58      0.00
   -5    2   26     -1.03      0.00
   -4    2   26      0.41      0.00
   -3    2   26      0.91      0.00
   -2    2   26     -0.29      0.00
   -1    2   26      0.84      0.00
    0    2   26      0.32      0.00
    1    2   26      2.84      0.00
    2    2   26      1.20      0.00
    3    2   26      0.58      0.00
    4    2   26     -0.10      0.00
    5    2   26      1.45      0.00
   -8    3   26      0.25      0.00
   -7    3   26     -0.14      0.00
   -6    3   26      1.80      0.00
   -5    3   26     -0.64      0.00
   -4    3   26     -0.05      0.00
   -3    3   26     -0.05      0.00
   -2    3   26     -0.73      0.00
   -1    3   26      0.51      0.00
    0    3   26     -1.02      0.00
    1    3   26     -0.17      0.00
    2    3   26      1.06      0.00
    3    3   26      0.64      0.00
    4    3   26      0.47      0.00
    5    3   26      2.27      0.00
   -8    4   26     -0.25      0.00
   -7    4   26      0.28      0.00
   -6    4   26     -0.30      0.00
   -5    4   26      1.10      0.00
   -4    4   26      0.30      0.00
   -3    4   26     -0.10      0.00
   -2    4   26     -1.15      0.00
   -1    4   26     -0.29      0.00
    0    4   26      0.02      0.00
    1    4   26     -1.49      0.00
    2    4   26      0.67      0.00
    3    4   26     -0.58      0.00
    4    4   26     -0.75      0.00
    5    4   26      1.19      0.00
   -8    5   26     -0.87      0.00
   -7    5   26     -0.56      0.00
   -6    5   26      0.50      0.00
   -5    5   26     -0.92      0.00
   -4    5   26      0.65      0.00
   -3    5   26     -0.35      0.00
   -2    5   26     -0.49      0.00
   -1    5   26     -0.65      0.00
    0    5   26      0.27      0.00
    1    5   26     -2.42      0.00
    2    5   26     -0.11      0.00
    3    5   26     -0.40      0.00
    4    5   26     -1.54      0.00
   -7    6   26     -0.70      0.00
   -6    6   26      0.17      0.00
   -5    6   26     -1.58      0.00
   -4    6   26      0.80      0.00
   -3    6   26      0.13      0.00
   -2    6   26     -0.98      0.00
   -1    6   26      0.06      0.00
    0    6   26      1.12      0.00
    1    6   26      0.07      0.00
    2    6   26     -0.62      0.00
    3    6   26     -0.19      0.00
    4    6   26     -0.77      0.00
   -7    7   26     -0.44      0.00
   -6    7   26      0.71      0.00
   -5    7   26      0.62      0.00
   -4    7   26      0.91      0.00
   -3    7   26      0.74      0.00
   -2    7   26     -0.03      0.00
   -1    7   26     -0.04      0.00
    0    7   26      0.66      0.00
    1    7   26      0.70      0.00
    2    7   26      0.21      0.00
    3    7   26      0.29      0.00
   -7    8   26     -0.70      0.00
   -6    8   26      1.07      0.00
   -5    8   26     -1.52      0.00
   -4    8   26      2.29      0.00
   -3    8   26      0.35      0.00
   -2    8   26      0.94      0.00
   -1    8   26     -0.10      0.00
    0    8   26     -0.15      0.00
    1    8   26      0.93      0.00
    2    8   26     -0.09      0.00
   -6    9   26      0.11      0.00
   -5    9   26     -2.55      0.00
   -4    9   26      0.64      0.00
   -3    9   26     -0.91      0.00
   -2    9   26     -0.14      0.00
   -1    9   26      0.05      0.00
    0    9   26     -0.26      0.00
    1    9   26      0.23      0.00
   -5   10   26     -1.24      0.00
   -4   10   26      0.12      0.00
   -3   10   26     -1.06      0.00
   -2   10   26      0.64      0.00
   -1   10   26     -0.75      0.00
    0   10   26      0.25      0.00
   -3   11   26      0.90      0.00
   -2   11   26      0.79      0.00
    0  -13   27      0.66      0.00
    1  -13   27      1.26      0.00
    2  -13   27     -0.32      0.00
   -2  -12   27      0.12      0.00
   -1  -12   27     -0.54      0.00
    0  -12   27     -0.40      0.00
    1  -12   27      0.11      0.00
    2  -12   27     -0.80      0.00
    3  -12   27      0.36      0.00
    4  -12   27     -0.71      0.00
   -3  -11   27      0.15      0.00
   -2  -11   27     -0.27      0.00
   -1  -11   27     -0.62      0.00
    0  -11   27     -0.31      0.00
    1  -11   27      1.22      0.00
    2  -11   27      0.67      0.00
    3  -11   27     -0.58      0.00
    4  -11   27     -0.03      0.00
   -4  -10   27      0.17      0.00
   -3  -10   27      0.20      0.00
   -2  -10   27      1.51      0.00
   -1  -10   27     -0.26      0.00
    0  -10   27      0.19      0.00
    1  -10   27      0.64      0.00
    2  -10   27      0.64      0.00
    3  -10   27     -0.05      0.00
    4  -10   27     -0.88      0.00
    5  -10   27     -1.62      0.00
   -4   -9   27     -1.34      0.00
   -3   -9   27     -0.43      0.00
   -2   -9   27      0.64      0.00
   -1   -9   27     -0.02      0.00
    0   -9   27     -0.52      0.00
    1   -9   27     -1.35      0.00
    2   -9   27      0.28      0.00
    3   -9   27      1.68      0.00
    4   -9   27      0.25      0.00
    5   -9   27     -1.10      0.00
   -5   -8   27      0.45      0.00
   -4   -8   27     -0.33      0.00
   -3   -8   27     -1.51      0.00
   -2   -8   27      0.70      0.00
   -1   -8   27      0.12      0.00
    0   -8   27      1.00      0.00
    1   -8   27     -0.43      0.00
    2   -8   27      0.02      0.00
    3   -8   27      1.53      0.00
    4   -8   27      0.14      0.00
    5   -8   27     -2.39      0.00
    6   -8   27      0.56      0.00
   -6   -7   27      0.09      0.00
   -5   -7   27      0.18      0.00
   -4   -7   27      0.49      0.00
   -3   -7   27     -1.30      0.00
   -2   -7   27      0.62      0.00
   -1   -7   27     -1.28      0.00
    0   -7   27      0.24      0.00
    1   -7   27     -0.66      0.00
    2   -7   27     -0.71      0.00
    3   -7   27      1.81      0.00
    4   -7   27      1.49      0.00
    5   -7   27     -1.32      0.00
    6   -7   27      0.25      0.00
   -6   -6   27      0.05      0.00
   -5   -6   27      0.55      0.00
   -4   -6   27      0.34      0.00
   -3   -6   27     -0.82      0.00
   -2   -6   27      0.50      0.00
   -1   -6   27     -1.23      0.00
    0   -6   27      0.16      0.00
    1   -6   27     -2.60      0.00
    2   -6   27     -0.73      0.00
    3   -6   27     -0.62      0.00
    4   -6   27      0.13      0.00
    5   -6   27     -0.14      0.00
    6   -6   27     -0.99      0.00
   -6   -5   27     -0.53      0.00
   -5   -5   27      0.71      0.00
   -4   -5   27      0.64      0.00
   -3   -5   27     -0.05      0.00
   -2   -5   27      0.35      0.00
   -1   -5   27      1.81      0.00
    0   -5   27      2.52      0.00
    1   -5   27     -0.67      0.00
    2   -5   27      0.16      0.00
    3   -5   27      0.37      0.00
    4   -5   27      0.26      0.00
    5   -5   27      0.16      0.00
    6   -5   27      0.54      0.00
   -7   -4   27      0.39      0.00
   -6   -4   27     -0.78      0.00
   -5   -4   27      0.19      0.00
   -4   -4   27     -0.78      0.00
   -3   -4   27      1.31      0.00
   -2   -4   27     -0.76      0.00
   -1   -4   27      0.00      0.00
    0   -4   27      1.38      0.00
    1   -4   27     -0.23      0.00
    2   -4   27      0.48      0.00
    3   -4   27      1.48      0.00
    4   -4   27      0.81      0.00
    5   -4   27     -0.67      0.00
    6   -4   27     -1.16      0.00
   -7   -3   27      0.24      0.00
   -6   -3   27     -0.94      0.00
   -5   -3   27     -0.50      0.00
   -4   -3   27     -0.93      0.00
   -3   -3   27      1.52      0.00
   -2   -3   27     -0.43      0.00
   -1   -3   27     -0.28      0.00
    0   -3   27      0.15      0.00
    1   -3   27     -0.99      0.00
    2   -3   27     -0.19      0.00
    3   -3   27      0.35      0.00
    4   -3   27      1.31      0.00
    5   -3   27     -0.40      0.00
    6   -3   27     -1.18      0.00
   -7   -2   27      0.57      0.00
   -6   -2   27      0.78      0.00
   -5   -2   27      0.70      0.00
   -4   -2   27     -1.94      0.00
   -3   -2   27      0.87      0.00
   -2   -2   27     -1.68      0.00
   -1   -2   27      1.12      0.00
    0   -2   27     -1.87      0.00
    1   -2   27     -0.45      0.00
    2   -2   27     -2.32      0.00
    3   -2   27     -0.40      0.00
    4   -2   27      1.73      0.00
    5   -2   27      0.68      0.00
    6   -2   27     -1.33      0.00
   -7   -1   27     -1.08      0.00
   -6   -1   27      0.52      0.00
   -5   -1   27      0.24      0.00
   -4   -1   27     -1.33      0.00
   -3   -1   27     -0.05      0.00
   -2   -1   27     -0.92      0.00
   -1   -1   27      1.97      0.00
    0   -1   27      0.03      0.00
    1   -1   27      0.87      0.00
    2   -1   27     -1.27      0.00
    3   -1   27     -0.49      0.00
    4   -1   27      2.47      0.00
    5   -1   27      0.55      0.00
    6   -1   27     -0.25      0.00
   -8    0   27      1.19      0.00
   -7    0   27     -1.10      0.00
   -6    0   27      0.63      0.00
   -5    0   27      0.26      0.00
   -4    0   27      1.09      0.00
   -3    0   27     -1.40      0.00
   -2    0   27     -0.41      0.00
   -1    0   27      1.38      0.00
    0    0   27     -0.57      0.00
    1    0   27     -0.81      0.00
    2    0   27     -1.55      0.00
    3    0   27     -2.65      0.00
    4    0   27      0.72      0.00
    5    0   27      0.27      0.00
    6    0   27     -0.43      0.00
   -8    1   27      0.46      0.00
   -7    1   27     -0.50      0.00
   -6    1   27      1.37      0.00
   -5    1   27     -0.30      0.00
   -4    1   27      1.91      0.00
   -3    1   27     -0.60      0.00
   -2    1   27     -1.22      0.00
   -1    1   27      0.26      0.00
    0    1   27      1.43      0.00
    1    1   27      0.01      0.00
    2    1   27      0.92      0.00
    3    1   27     -2.35      0.00
    4    1   27      0.68      0.00
    5    1   27     -0.65      0.00
   -8    2   27      0.52      0.00
   -7    2   27     -0.76      0.00
   -6    2   27     -0.40      0.00
   -5    2   27      0.06      0.00
   -4    2   27      1.29      0.00
   -3    2   27      0.53      0.00
   -2    2   27     -0.28      0.00
   -1    2   27      0.10      0.00
    0    2   27      2.50      0.00
    1    2   27      0.81      0.00
    2    2   27      0.61      0.00
    3    2   27     -1.78      0.00
    4    2   27      0.35      0.00
    5    2   27     -1.31      0.00
   -8    3   27     -0.17      0.00
   -7    3   27     -0.95      0.00
   -6    3   27     -0.79      0.00
   -5    3   27     -0.22      0.00
   -4    3   27      0.04      0.00
   -3    3   27      0.18      0.00
   -2    3   27      0.72      0.00
   -1    3   27     -0.77      0.00
    0    3   27      0.30      0.00
    1    3   27      1.06      0.00
    2    3   27      2.09      0.00
    3    3   27      0.10      0.00
    4    3   27      0.82      0.00
    5    3   27      0.70      0.00
   -7    4   27      0.87      0.00
   -6    4   27     -0.15      0.00
   -5    4   27     -1.08      0.00
   -4    4   27      0.44      0.00
   -3    4   27     -0.96      0.00
   -2    4   27     -0.50      0.00
   -1    4   27     -0.52      0.00
    0    4   27     -0.98      0.00
    1    4   27      0.18      0.00
    2    4   27      0.89      0.00
    3    4   27      0.23      0.00
    4    4   27      1.00      0.00
   -7    5   27      0.86      0.00
   -6    5   27      0.00      0.00
   -5    5   27      1.11      0.00
   -4    5   27      0.32      0.00
   -3    5   27     -0.19      0.00
   -2    5   27     -0.87      0.00
   -1    5   27      0.13      0.00
    0    5   27     -1.10      0.00
    1    5   27     -1.69      0.00
    2    5   27     -0.56      0.00
    3    5   27     -0.87      0.00
    4    5   27     -0.14      0.00
   -7    6   27      0.53      0.00
   -6    6   27      0.61      0.00
   -5    6   27     -1.28      0.00
   -4    6   27      0.26      0.00
   -3    6   27     -0.38      0.00
   -2    6   27     -0.59      0.00
   -1    6   27      0.29      0.00
    0    6   27      0.44      0.00
    1    6   27     -1.01      0.00
    2    6   27     -0.53      0.00
    3    6   27     -0.52      0.00
   -7    7   27     -0.40      0.00
   -6    7   27     -0.61      0.00
   -5    7   27     -0.89      0.00
   -4    7   27      0.76      0.00
   -3    7   27      0.82      0.00
   -2    7   27     -1.17      0.00
   -1    7   27      1.13      0.00
    0    7   27      0.46      0.00
    1    7   27      1.16      0.00
    2    7   27     -0.11      0.00
    3    7   27      0.37      0.00
   -6    8   27      0.24      0.00
   -5    8   27      1.54      0.00
   -4    8   27      0.85      0.00
   -3    8   27      1.85      0.00
   -2    8   27     -1.19      0.00
   -1    8   27      0.13      0.00
    0    8   27     -0.31      0.00
    1    8   27     -0.04      0.00
    2    8   27      0.05      0.00
   -5    9   27     -1.13      0.00
   -4    9   27      0.52      0.00
   -3    9   27      0.59      0.00
   -2    9   27     -0.27      0.00
   -1    9   27      0.72      0.00
    0    9   27      0.13      0.00
    1    9   27     -0.32      0.00
   -4   10   27     -0.33      0.00
   -3   10   27      0.28      0.00
   -2   10   27     -0.70      0.00
   -1   10   27      0.73      0.00
   -1  -12   28     -0.41      0.00
    0  -12   28      0.38      0.00
    1  -12   28      0.39      0.00
    2  -12   28     -0.52      0.00
    3  -12   28      0.12      0.00
   -2  -11   28      0.29      0.00
   -1  -11   28     -0.95      0.00
    0  -11   28      0.21      0.00
    1  -11   28     -0.25      0.00
    2  -11   28     -0.48      0.00
    3  -11   28      0.06      0.00
    4  -11   28     -0.99      0.00
   -3  -10   28      0.52      0.00
   -2  -10   28      0.88      0.00
   -1  -10   28     -1.28      0.00
    0  -10   28      1.04      0.00
    1  -10   28      0.93      0.00
    2  -10   28      0.64      0.00
    3  -10   28     -0.75      0.00
    4  -10   28      0.09      0.00
   -4   -9   28     -0.50      0.00
   -3   -9   28     -0.69      0.00
   -2   -9   28      2.51      0.00
   -1   -9   28     -1.04      0.00
    0   -9   28     -0.06      0.00
    1   -9   28      0.45      0.00
    2   -9   28      0.85      0.00
    3   -9   28     -0.14      0.00
    4   -9   28     -0.49      0.00
    5   -9   28     -0.69      0.00
   -5   -8   28     -0.10      0.00
   -4   -8   28     -0.43      0.00
   -3   -8   28     -0.58      0.00
   -2   -8   28      0.09      0.00
   -1   -8   28     -0.18      0.00
    0   -8   28      0.18      0.00
    1   -8   28     -0.32      0.00
    2   -8   28      0.83      0.00
    3   -8   28      0.60      0.00
    4   -8   28     -0.93      0.00
    5   -8   28     -0.94      0.00
   -5   -7   28      0.30      0.00
   -4   -7   28     -0.80      0.00
   -3   -7   28      0.18      0.00
   -2   -7   28      0.65      0.00
   -1   -7   28     -0.08      0.00
    0   -7   28     -0.40      0.00
    1   -7   28     -1.55      0.00
    2   -7   28      1.39      0.00
    3   -7   28      2.12      0.00
    4   -7   28      0.34      0.00
    5   -7   28     -1.67      0.00
   -6   -6   28      0.05      0.00
   -5   -6   28     -0.05      0.00
   -4   -6   28     -0.80      0.00
   -3   -6   28      0.03      0.00
   -2   -6   28     -0.14      0.00
   -1   -6   28     -1.10      0.00
    0   -6   28     -1.31      0.00
    1   -6   28     -1.05      0.00
    2   -6   28     -0.88      0.00
    3   -6   28      1.65      0.00
    4   -6   28      1.10      0.00
    5   -6   28     -1.07      0.00
    6   -6   28      0.35      0.00
   -6   -5   28      0.26      0.00
   -5   -5   28      0.65      0.00
   -4   -5   28     -0.35      0.00
   -3   -5   28     -0.46      0.00
   -2   -5   28     -0.12      0.00
   -1   -5   28      1.28      0.00
    0   -5   28     -0.11      0.00
    1   -5   28     -1.82      0.00
    2   -5   28     -1.73      0.00
    3   -5   28     -0.56      0.00
    4   -5   28     -0.48      0.00
    5   -5   28     -0.76      0.00
    6   -5   28     -0.04      0.00
   -6   -4   28      0.76      0.00
   -5   -4   28      1.17      0.00
   -4   -4   28      0.57      0.00
   -3   -4   28      1.02      0.00
   -2   -4   28      0.29      0.00
   -1   -4   28      2.54      0.00
    0   -4   28      1.75      0.00
    1   -4   28      0.68      0.00
    2   -4   28      0.47      0.00
    3   -4   28      1.90      0.00
    4   -4   28      1.05      0.00
    5   -4   28     -0.21      0.00
   -7   -3   28     -0.70      0.00
   -6   -3   28     -0.94      0.00
   -5   -3   28     -0.39      0.00
   -4   -3   28     -0.73      0.00
   -3   -3   28      1.05      0.00
   -2   -3   28     -1.44      0.00
   -1   -3   28      0.06      0.00
    0   -3   28      0.51      0.00
    1   -3   28      0.12      0.00
    2   -3   28     -0.51      0.00
    3   -3   28      2.24      0.00
    4   -3   28      0.28      0.00
    5   -3   28     -1.70      0.00
    6   -3   28     -0.17      0.00
   -7   -2   28     -0.39      0.00
   -6   -2   28     -0.10      0.00
   -5   -2   28     -0.05      0.00
   -4   -2   28     -0.46      0.00
   -3   -2   28      1.00      0.00
   -2   -2   28     -1.13      0.00
   -1   -2   28     -0.26      0.00
    0   -2   28     -0.53      0.00
    1   -2   28     -0.93      0.00
    2   -2   28     -1.93      0.00
    3   -2   28      0.85      0.00
    4   -2   28      0.84      0.00
    5   -2   28     -2.04      0.00
    6   -2   28     -0.98      0.00
   -7   -1   28     -0.02      0.00
   -6   -1   28      0.86      0.00
   -5   -1   28     -0.18      0.00
   -4   -1   28     -1.69      0.00
   -3   -1   28      1.30      0.00
   -2   -1   28     -1.43      0.00
   -1   -1   28      0.97      0.00
    0   -1   28     -0.89      0.00
    1   -1   28      0.10      0.00
    2   -1   28     -2.18      0.00
    3   -1   28      0.25      0.00
    4   -1   28      1.47      0.00
    5   -1   28      0.72      0.00
   -7    0   28     -1.15      0.00
   -6    0   28      0.32      0.00
   -5    0   28     -0.60      0.00
   -4    0   28     -0.78      0.00
   -3    0   28      0.05      0.00
   -2    0   28     -0.79      0.00
   -1    0   28      1.16      0.00
    0    0   28     -0.10      0.00
    1    0   28      0.24      0.00
    2    0   28     -1.36      0.00
    3    0   28      1.29      0.00
    4    0   28      2.17      0.00
    5    0   28      0.46      0.00
   -7    1   28      0.48      0.00
   -6    1   28      1.86      0.00
   -5    1   28      0.14      0.00
   -4    1   28      1.05      0.00
   -3    1   28     -1.11      0.00
   -2    1   28     -1.31      0.00
   -1    1   28      1.54      0.00
    0    1   28     -0.51      0.00
    1    1   28     -0.72      0.00
    2    1   28     -2.09      0.00
    3    1   28     -1.41      0.00
    4    1   28      0.11      0.00
    5    1   28      0.10      0.00
   -7    2   28     -0.66      0.00
   -6    2   28      1.73      0.00
   -5    2   28     -0.61      0.00
   -4    2   28      1.60      0.00
   -3    2   28      0.43      0.00
   -2    2   28     -1.54      0.00
   -1    2   28      1.44      0.00
    0    2   28      2.35      0.00
    1    2   28      0.62      0.00
    2    2   28     -0.01      0.00
    3    2   28     -2.01      0.00
    4    2   28     -0.21      0.00
    5    2   28     -0.63      0.00
   -7    3   28     -0.88      0.00
   -6    3   28     -0.92      0.00
   -5    3   28     -0.35      0.00
   -4    3   28      0.92      0.00
   -3    3   28      1.29      0.00
   -2    3   28     -0.96      0.00
   -1    3   28      0.04      0.00
    0    3   28      1.62      0.00
    1    3   28      0.19      0.00
    2    3   28      0.60      0.00
    3    3   28     -0.46      0.00
    4    3   28      0.08      0.00
   -7    4   28      0.15      0.00
   -6    4   28     -1.17      0.00
   -5    4   28      0.05      0.00
   -4    4   28      0.23      0.00
   -3    4   28     -0.03      0.00
   -2    4   28     -0.32      0.00
   -1    4   28     -1.46      0.00
    0    4   28      0.35      0.00
    1    4   28      0.67      0.00
    2    4   28      1.80      0.00
    3    4   28      0.70      0.00
    4    4   28      0.96      0.00
   -7    5   28      1.14      0.00
   -6    5   28      0.25      0.00
   -5    5   28     -1.16      0.00
   -4    5   28      0.92      0.00
   -3    5   28     -1.13      0.00
   -2    5   28      0.13      0.00
   -1    5   28     -0.18      0.00
    0    5   28     -0.59      0.00
    1    5   28     -0.16      0.00
    2    5   28     -0.25      0.00
    3    5   28      0.23      0.00
   -7    6   28      1.20      0.00
   -6    6   28     -0.46      0.00
   -5    6   28     -0.10      0.00
   -4    6   28      0.89      0.00
   -3    6   28     -0.87      0.00
   -2    6   28     -0.13      0.00
   -1    6   28      0.24      0.00
    0    6   28     -0.68      0.00
    1    6   28     -0.68      0.00
    2    6   28     -1.17      0.00
    3    6   28     -0.48      0.00
   -6    7   28     -0.10      0.00
   -5    7   28     -1.65      0.00
   -4    7   28      0.71      0.00
   -3    7   28     -1.15      0.00
   -2    7   28      0.13      0.00
   -1    7   28     -0.53      0.00
    0    7   28      0.33      0.00
    1    7   28     -0.30      0.00
    2    7   28     -0.71      0.00
   -6    8   28      0.18      0.00
   -5    8   28      0.20      0.00
   -4    8   28      1.55      0.00
   -3    8   28      0.58      0.00
   -2    8   28     -0.74      0.00
   -1    8   28      0.00      0.00
    0    8   28     -0.22      0.00
    1    8   28      1.25      0.00
   -5    9   28      1.31      0.00
   -4    9   28      0.10      0.00
   -3    9   28      1.37      0.00
   -2    9   28     -0.43      0.00
   -1    9   28      0.47      0.00
    0    9   28     -0.53      0.00
    0  -12   29      0.19      0.00
    1  -12   29      0.50      0.00
   -2  -11   29      0.45      0.00
   -1  -11   29     -0.10      0.00
    0  -11   29     -0.90      0.00
    1  -11   29      0.41      0.00
    2  -11   29     -0.37      0.00
    3  -11   29      0.36      0.00
   -3  -10   29     -0.13      0.00
   -2  -10   29      0.10      0.00
   -1  -10   29     -0.05      0.00
    0  -10   29      0.47      0.00
    1  -10   29      0.06      0.00
    2  -10   29     -0.47      0.00
    3  -10   29      0.29      0.00
    4  -10   29     -0.92      0.00
   -4   -9   29     -0.47      0.00
   -3   -9   29      0.59      0.00
   -2   -9   29      0.63      0.00
   -1   -9   29     -0.66      0.00
    0   -9   29      0.33      0.00
    1   -9   29      0.42      0.00
    2   -9   29      0.52      0.00
    3   -9   29      0.18      0.00
    4   -9   29      0.01      0.00
   -4   -8   29     -0.34      0.00
   -3   -8   29     -1.04      0.00
   -2   -8   29      1.24      0.00
   -1   -8   29      0.05      0.00
    0   -8   29      0.15      0.00
    1   -8   29      1.09      0.00
    2   -8   29     -0.16      0.00
    3   -8   29     -0.73      0.00
    4   -8   29     -1.66      0.00
    5   -8   29     -0.25      0.00
   -5   -7   29     -0.14      0.00
   -4   -7   29      0.52      0.00
   -3   -7   29     -0.11      0.00
   -2   -7   29     -0.37      0.00
   -1   -7   29     -0.16      0.00
    0   -7   29     -0.70      0.00
    1   -7   29      0.88      0.00
    2   -7   29      1.07      0.00
    3   -7   29      1.48      0.00
    4   -7   29     -1.60      0.00
    5   -7   29      0.43      0.00
   -5   -6   29      0.04      0.00
   -4   -6   29     -0.55      0.00
   -3   -6   29      0.66      0.00
   -2   -6   29     -0.45      0.00
   -1   -6   29     -0.77      0.00
    0   -6   29     -1.92      0.00
    1   -6   29     -1.05      0.00
    2   -6   29      1.38      0.00
    3   -6   29      2.97      0.00
    4   -6   29     -0.71      0.00
    5   -6   29      0.07      0.00
   -6   -5   29     -0.42      0.00
   -5   -5   29     -0.25      0.00
   -4   -5   29     -0.61      0.00
   -3   -5   29      0.29      0.00
   -2   -5   29     -0.13      0.00
   -1   -5   29     -0.08      0.00
    0   -5   29     -1.71      0.00
    1   -5   29     -0.31      0.00
    2   -5   29     -2.25      0.00
    3   -5   29      1.31      0.00
    4   -5   29     -1.36      0.00
    5   -5   29     -0.37      0.00
   -6   -4   29      0.99      0.00
   -5   -4   29      0.28      0.00
   -4   -4   29      0.52      0.00
   -3   -4   29     -0.11      0.00
   -2   -4   29      0.59      0.00
   -1   -4   29      1.61      0.00
    0   -4   29     -0.58      0.00
    1   -4   29      0.18      0.00
    2   -4   29     -1.75      0.00
    3   -4   29      1.28      0.00
    4   -4   29     -0.28      0.00
    5   -4   29      0.95      0.00
   -6   -3   29      1.38      0.00
   -5   -3   29     -0.41      0.00
   -4   -3   29      0.47      0.00
   -3   -3   29     -0.11      0.00
   -2   -3   29      0.92      0.00
   -1   -3   29      1.82      0.00
    0   -3   29      0.44      0.00
    1   -3   29      1.30      0.00
    2   -3   29      0.45      0.00
    3   -3   29      2.23      0.00
    4   -3   29      0.86      0.00
    5   -3   29     -0.09      0.00
   -7   -2   29     -1.17      0.00
   -6   -2   29      0.02      0.00
   -5   -2   29     -0.85      0.00
   -4   -2   29      0.41      0.00
   -3   -2   29     -0.39      0.00
   -2   -2   29     -0.73      0.00
   -1   -2   29      0.06      0.00
    0   -2   29     -0.29      0.00
    1   -2   29     -0.26      0.00
    2   -2   29     -0.89      0.00
    3   -2   29      0.86      0.00
    4   -2   29     -0.86      0.00
    5   -2   29     -2.87      0.00
   -7   -1   29     -0.49      0.00
   -6   -1   29      0.82      0.00
   -5   -1   29      0.50      0.00
   -4   -1   29     -0.28      0.00
   -3   -1   29     -0.46      0.00
   -2   -1   29     -0.05      0.00
   -1   -1   29     -0.40      0.00
    0   -1   29      0.20      0.00
    1   -1   29     -0.48      0.00
    2   -1   29     -1.22      0.00
    3   -1   29      0.62      0.00
    4   -1   29      1.33      0.00
    5   -1   29     -1.61      0.00
   -7    0   29      0.03      0.00
   -6    0   29     -0.88      0.00
   -5    0   29      0.11      0.00
   -4    0   29     -0.73      0.00
   -3    0   29      0.34      0.00
   -2    0   29      0.29      0.00
   -1    0   29     -0.38      0.00
    0    0   29     -0.06      0.00
    1    0   29     -1.17      0.00
    2    0   29     -0.47      0.00
    3    0   29      0.35      0.00
    4    0   29      0.89      0.00
    5    0   29      0.57      0.00
   -7    1   29      0.36      0.00
   -6    1   29     -0.52      0.00
   -5    1   29     -0.03      0.00
   -4    1   29     -0.14      0.00
   -3    1   29     -2.24      0.00
   -2    1   29      0.24      0.00
   -1    1   29     -0.35      0.00
    0    1   29      0.90      0.00
    1    1   29     -0.77      0.00
    2    1   29     -0.82      0.00
    3    1   29      1.41      0.00
    4    1   29      1.14      0.00
    5    1   29      0.68      0.00
   -7    2   29      1.65      0.00
   -6    2   29      1.22      0.00
   -5    2   29     -0.16      0.00
   -4    2   29      0.70      0.00
   -3    2   29     -1.19      0.00
   -2    2   29     -0.45      0.00
   -1    2   29      1.23      0.00
    0    2   29      0.49      0.00
    1    2   29     -0.25      0.00
    2    2   29     -2.28      0.00
    3    2   29     -0.35      0.00
    4    2   29     -0.31      0.00
   -7    3   29     -0.76      0.00
   -6    3   29      0.99      0.00
   -5    3   29     -0.48      0.00
   -4    3   29      1.90      0.00
   -3    3   29      1.10      0.00
   -2    3   29     -1.22      0.00
   -1    3   29      1.14      0.00
    0    3   29      0.98      0.00
    1    3   29      0.10      0.00
    2    3   29     -0.25      0.00
    3    3   29     -1.20      0.00
    4    3   29     -1.21      0.00
   -7    4   29     -0.61      0.00
   -6    4   29     -0.49      0.00
   -5    4   29     -0.04      0.00
   -4    4   29      1.15      0.00
   -3    4   29      1.42      0.00
   -2    4   29     -1.56      0.00
   -1    4   29      0.35      0.00
    0    4   29      1.39      0.00
    1    4   29      0.92      0.00
    2    4   29      0.75      0.00
    3    4   29      0.62      0.00
   -6    5   29     -0.64      0.00
   -5    5   29     -0.62      0.00
   -4    5   29     -0.72      0.00
   -3    5   29      0.11      0.00
   -2    5   29     -0.61      0.00
   -1    5   29     -0.57      0.00
    0    5   29      0.64      0.00
    1    5   29     -0.01      0.00
    2    5   29      1.39      0.00
    3    5   29      0.78      0.00
   -6    6   29      0.28      0.00
   -5    6   29     -1.37      0.00
   -4    6   29      0.51      0.00
   -3    6   29     -0.73      0.00
   -2    6   29      0.16      0.00
   -1    6   29     -0.47      0.00
    0    6   29     -0.63      0.00
    1    6   29     -1.60      0.00
    2    6   29     -0.63      0.00
   -6    7   29     -0.71      0.00
   -5    7   29     -0.11      0.00
   -4    7   29      1.12      0.00
   -3    7   29     -1.45      0.00
   -2    7   29     -0.17      0.00
   -1    7   29     -0.38      0.00
    0    7   29      0.38      0.00
    1    7   29     -0.52      0.00
   -5    8   29     -0.66      0.00
   -4    8   29      1.25      0.00
   -3    8   29     -1.32      0.00
   -2    8   29      0.69      0.00
   -1    8   29     -1.22      0.00
    0    8   29      1.37      0.00
   -3    9   29     -0.04      0.00
   -2    9   29      0.64      0.00
   -1  -11   30      0.83      0.00
    0  -11   30     -0.50      0.00
    1  -11   30      0.85      0.00
    2  -11   30     -0.85      0.00
   -2  -10   30     -0.31      0.00
   -1  -10   30      0.28      0.00
    0  -10   30     -1.74      0.00
    1  -10   30      0.70      0.00
    2  -10   30     -0.77      0.00
    3  -10   30      0.31      0.00
   -3   -9   30      0.64      0.00
   -2   -9   30      0.10      0.00
   -1   -9   30      0.75      0.00
    0   -9   30     -0.11      0.00
    1   -9   30      0.08      0.00
    2   -9   30      0.14      0.00
    3   -9   30      1.01      0.00
    4   -9   30     -0.53      0.00
   -4   -8   30     -1.07      0.00
   -3   -8   30     -0.13      0.00
   -2   -8   30     -0.74      0.00
   -1   -8   30      1.07      0.00
    0   -8   30      0.70      0.00
    1   -8   30      0.38      0.00
    2   -8   30     -0.04      0.00
    3   -8   30      0.00      0.00
    4   -8   30     -0.51      0.00
   -4   -7   30     -0.13      0.00
   -3   -7   30     -0.43      0.00
   -2   -7   30     -0.22      0.00
   -1   -7   30      0.59      0.00
    0   -7   30      0.16      0.00
    1   -7   30      0.39      0.00
    2   -7   30     -0.39      0.00
    3   -7   30     -1.19      0.00
    4   -7   30     -2.29      0.00
   -5   -6   30      0.42      0.00
   -4   -6   30      1.04      0.00
   -3   -6   30      0.19      0.00
   -2   -6   30     -0.65      0.00
   -1   -6   30     -1.11      0.00
    0   -6   30     -0.07      0.00
    1   -6   30      1.03      0.00
    2   -6   30      2.06      0.00
    3   -6   30      2.49      0.00
    4   -6   30     -1.48      0.00
    5   -6   30      1.92      0.00
   -5   -5   30     -0.25      0.00
   -4   -5   30     -0.32      0.00
   -3   -5   30     -0.31      0.00
   -2   -5   30     -0.73      0.00
   -1   -5   30     -1.20      0.00
    0   -5   30     -0.75      0.00
    1   -5   30     -1.37      0.00
    2   -5   30      0.47      0.00
    3   -5   30      2.15      0.00
    4   -5   30     -2.58      0.00
    5   -5   30      0.69      0.00
   -6   -4   30     -0.43      0.00
   -5   -4   30     -0.11      0.00
   -4   -4   30     -0.07      0.00
   -3   -4   30      0.56      0.00
   -2   -4   30      0.33      0.00
   -1   -4   30     -0.67      0.00
    0   -4   30     -0.76      0.00
    1   -4   30     -0.99      0.00
    2   -4   30     -1.93      0.00
    3   -4   30      1.31      0.00
    4   -4   30     -1.99      0.00
    5   -4   30      0.53      0.00
   -6   -3   30      0.79      0.00
   -5   -3   30     -0.47      0.00
   -4   -3   30      0.63      0.00
   -3   -3   30     -0.04      0.00
   -2   -3   30      1.33      0.00
   -1   -3   30      0.45      0.00
    0   -3   30      0.87      0.00
    1   -3   30      0.22      0.00
    2   -3   30     -0.27      0.00
    3   -3   30      2.18      0.00
    4   -3   30      0.13      0.00
    5   -3   30      1.83      0.00
   -6   -2   30      1.05      0.00
   -5   -2   30     -1.19      0.00
   -4   -2   30      0.74      0.00
   -3   -2   30     -0.40      0.00
   -2   -2   30      1.03      0.00
   -1   -2   30      0.78      0.00
    0   -2   30      0.34      0.00
    1   -2   30      0.09      0.00
    2   -2   30      1.38      0.00
    3   -2   30      1.18      0.00
    4   -2   30      0.36      0.00
    5   -2   30     -0.34      0.00
   -6   -1   30      1.43      0.00
   -5   -1   30     -0.54      0.00
   -4   -1   30      0.16      0.00
   -3   -1   30     -0.18      0.00
   -2   -1   30     -0.13      0.00
   -1   -1   30      0.70      0.00
    0   -1   30      0.08      0.00
    1   -1   30     -1.17      0.00
    2   -1   30     -0.51      0.00
    3   -1   30     -1.28      0.00
    4   -1   30     -0.46      0.00
    5   -1   30     -2.54      0.00
   -6    0   30     -0.31      0.00
   -5    0   30      0.33      0.00
   -4    0   30     -0.77      0.00
   -3    0   30     -0.38      0.00
   -2    0   30     -0.01      0.00
   -1    0   30      0.30      0.00
    0    0   30      0.17      0.00
    1    0   30     -0.99      0.00
    2    0   30     -0.04      0.00
    3    0   30     -0.42      0.00
    4    0   30      1.31      0.00
   -6    1   30     -1.94      0.00
   -5    1   30      0.71      0.00
   -4    1   30     -0.81      0.00
   -3    1   30     -1.16      0.00
   -2    1   30     -0.39      0.00
   -1    1   30     -0.55      0.00
    0    1   30     -0.48      0.00
    1    1   30     -1.99      0.00
    2    1   30      1.37      0.00
    3    1   30      0.01      0.00
    4    1   30      0.75      0.00
   -6    2   30     -0.81      0.00
   -5    2   30      0.11      0.00
   -4    2   30      0.68      0.00
   -3    2   30     -2.55      0.00
   -2    2   30      0.60      0.00
   -1    2   30     -0.06      0.00
    0    2   30      1.68      0.00
    1    2   30     -0.54      0.00
    2    2   30      0.07      0.00
    3    2   30      0.68      0.00
    4    2   30      1.39      0.00
   -6    3   30      0.65      0.00
   -5    3   30      0.12      0.00
   -4    3   30      1.43      0.00
   -3    3   30     -0.71      0.00
   -2    3   30      0.61      0.00
   -1    3   30      1.45      0.00
    0    3   30      0.17      0.00
    1    3   30      0.11      0.00
    2    3   30     -1.62      0.00
    3    3   30     -0.83      0.00
   -6    4   30      0.05      0.00
   -5    4   30     -0.12      0.00
   -4    4   30      2.22      0.00
   -3    4   30      0.22      0.00
   -2    4   30     -0.97      0.00
   -1    4   30      0.49      0.00
    0    4   30     -0.24      0.00
    1    4   30      0.09      0.00
    2    4   30      0.32      0.00
    3    4   30     -0.86      0.00
   -6    5   30     -0.51      0.00
   -5    5   30     -0.36      0.00
   -4    5   30      0.48      0.00
   -3    5   30      0.78      0.00
   -2    5   30     -1.13      0.00
   -1    5   30      0.33      0.00
    0    5   30      0.63      0.00
    1    5   30      0.87      0.00
    2    5   30      1.03      0.00
   -5    6   30     -0.35      0.00
   -4    6   30     -1.62      0.00
   -3    6   30      0.41      0.00
   -2    6   30     -0.50      0.00
   -1    6   30      0.06      0.00
    0    6   30     -0.03      0.00
    1    6   30     -0.85      0.00
   -5    7   30      0.39      0.00
   -4    7   30     -0.76      0.00
   -3    7   30     -0.09      0.00
   -2    7   30     -0.50      0.00
   -1    7   30      0.22      0.00
    0    7   30     -0.04      0.00
   -4    8   30      0.28      0.00
   -3    8   30     -0.14      0.00
   -2    8   30     -0.61      0.00
   -1    8   30     -0.02      0.00
   -1  -10   31      0.49      0.00
    0  -10   31     -0.53      0.00
    1  -10   31      0.90      0.00
    2  -10   31     -1.15      0.00
   -2   -9   31     -0.25      0.00
   -1   -9   31      0.05      0.00
    0   -9   31     -1.95      0.00
    1   -9   31      0.68      0.00
    2   -9   31      0.20      0.00
    3   -9   31      0.46      0.00
   -3   -8   31      0.54      0.00
   -2   -8   31      0.57      0.00
   -1   -8   31      1.06      0.00
    0   -8   31      0.68      0.00
    1   -8   31      0.50      0.00
    2   -8   31      0.37      0.00
    3   -8   31      0.65      0.00
    4   -8   31     -0.22      0.00
   -4   -7   31     -1.46      0.00
   -3   -7   31     -0.36      0.00
   -2   -7   31     -0.78      0.00
   -1   -7   31      1.36      0.00
    0   -7   31      0.40      0.00
    1   -7   31      0.17      0.00
    2   -7   31     -1.26      0.00
    3   -7   31     -1.33      0.00
    4   -7   31     -0.76      0.00
   -4   -6   31     -0.55      0.00
   -3   -6   31      0.22      0.00
   -2   -6   31     -0.72      0.00
   -1   -6   31     -0.25      0.00
    0   -6   31      0.07      0.00
    1   -6   31      0.20      0.00
    2   -6   31      0.43      0.00
    3   -6   31     -0.55      0.00
    4   -6   31     -0.42      0.00
   -5   -5   31      0.48      0.00
   -4   -5   31      0.27      0.00
   -3   -5   31     -0.50      0.00
   -2   -5   31      0.34      0.00
   -1   -5   31     -0.97      0.00
    0   -5   31      0.62      0.00
    1   -5   31      0.75      0.00
    2   -5   31      1.74      0.00
    3   -5   31      1.36      0.00
    4   -5   31     -1.21      0.00
   -5   -4   31     -0.34      0.00
   -4   -4   31     -0.06      0.00
   -3   -4   31     -0.98      0.00
   -2   -4   31     -0.59      0.00
   -1   -4   31     -1.32      0.00
    0   -4   31     -0.15      0.00
    1   -4   31     -1.19      0.00
    2   -4   31     -0.15      0.00
    3   -4   31      0.64      0.00
    4   -4   31     -2.63      0.00
   -5   -3   31      0.47      0.00
   -4   -3   31      0.42      0.00
   -3   -3   31      0.65      0.00
   -2   -3   31      0.31      0.00
   -1   -3   31     -0.59      0.00
    0   -3   31      0.06      0.00
    1   -3   31     -1.11      0.00
    2   -3   31     -0.18      0.00
    3   -3   31      1.63      0.00
    4   -3   31      0.19      0.00
   -6   -2   31     -0.32      0.00
   -5   -2   31     -0.79      0.00
   -4   -2   31      1.00      0.00
   -3   -2   31      0.30      0.00
   -2   -2   31      1.17      0.00
   -1   -2   31     -0.61      0.00
    0   -2   31      1.65      0.00
    1   -2   31     -1.09      0.00
    2   -2   31      0.72      0.00
    3   -2   31      2.23      0.00
    4   -2   31      0.22      0.00
   -6   -1   31      0.71      0.00
   -5   -1   31     -1.40      0.00
   -4   -1   31      0.51      0.00
   -3   -1   31      0.07      0.00
   -2   -1   31      0.96      0.00
   -1   -1   31      0.52      0.00
    0   -1   31      1.03      0.00
    1   -1   31     -0.98      0.00
    2   -1   31      0.64      0.00
    3   -1   31      0.09      0.00
    4   -1   31      0.22      0.00
   -6    0   31      1.26      0.00
   -5    0   31     -1.31      0.00
   -4    0   31     -0.44      0.00
   -3    0   31      1.42      0.00
   -2    0   31     -0.51      0.00
   -1    0   31      0.88      0.00
    0    0   31      0.18      0.00
    1    0   31     -1.91      0.00
    2    0   31     -0.79      0.00
    3    0   31     -1.82      0.00
    4    0   31      0.04      0.00
   -6    1   31     -0.44      0.00
   -5    1   31      0.31      0.00
   -4    1   31     -0.88      0.00
   -3    1   31      0.01      0.00
   -2    1   31     -1.80      0.00
   -1    1   31      0.57      0.00
    0    1   31     -0.60      0.00
    1    1   31     -0.59      0.00
    2    1   31      0.61      0.00
    3    1   31     -0.33      0.00
   -6    2   31     -0.60      0.00
   -5    2   31      0.39      0.00
   -4    2   31     -1.31      0.00
   -3    2   31     -0.25      0.00
   -2    2   31     -1.45      0.00
   -1    2   31      1.40      0.00
    0    2   31      0.44      0.00
    1    2   31     -1.07      0.00
    2    2   31      1.53      0.00
    3    2   31      0.62      0.00
   -6    3   31     -0.27      0.00
   -5    3   31     -0.26      0.00
   -4    3   31      0.87      0.00
   -3    3   31     -0.65      0.00
   -2    3   31     -0.03      0.00
   -1    3   31      0.74      0.00
    0    3   31      1.19      0.00
    1    3   31     -0.17      0.00
    2    3   31      0.06      0.00
    3    3   31     -0.33      0.00
   -6    4   31     -0.37      0.00
   -5    4   31      0.24      0.00
   -4    4   31      1.33      0.00
   -3    4   31     -0.58      0.00
   -2    4   31     -0.20      0.00
   -1    4   31      0.72      0.00
    0    4   31     -1.01      0.00
    1    4   31      0.16      0.00
    2    4   31     -1.42      0.00
   -5    5   31      0.25      0.00
   -4    5   31      1.95      0.00
   -3    5   31     -0.23      0.00
   -2    5   31     -0.92      0.00
   -1    5   31      0.12      0.00
    0    5   31     -0.70      0.00
    1    5   31      0.40      0.00
   -5    6   31     -0.55      0.00
   -4    6   31     -0.11      0.00
   -3    6   31      0.44      0.00
   -2    6   31     -0.07      0.00
   -1    6   31      0.73      0.00
    0    6   31      0.40      0.00
    1    6   31      0.62      0.00
   -4    7   31     -1.61      0.00
   -3    7   31      0.43      0.00
   -2    7   31      0.01      0.00
   -1    7   31      0.55      0.00
   -1   -9   32      0.05      0.00
    0   -9   32     -0.49      0.00
    1   -9   32      0.14      0.00
    2   -9   32     -0.25      0.00
   -2   -8   32     -0.13      0.00
   -1   -8   32     -0.08      0.00
    0   -8   32     -0.67      0.00
    1   -8   32      0.83      0.00
    2   -8   32      1.06      0.00
    3   -8   32      0.77      0.00
   -3   -7   32      0.22      0.00
   -2   -7   32      1.33      0.00
   -1   -7   32      0.74      0.00
    0   -7   32      0.91      0.00
    1   -7   32      0.20      0.00
    2   -7   32     -1.04      0.00
    3   -7   32     -0.32      0.00
   -4   -6   32     -0.93      0.00
   -3   -6   32     -0.04      0.00
   -2   -6   32     -0.50      0.00
   -1   -6   32     -0.11      0.00
    0   -6   32     -0.58      0.00
    1   -6   32      0.30      0.00
    2   -6   32     -1.91      0.00
    3   -6   32     -0.99      0.00
   -4   -5   32     -0.94      0.00
   -3   -5   32      0.29      0.00
   -2   -5   32      0.23      0.00
   -1   -5   32      0.21      0.00
    0   -5   32      0.42      0.00
    1   -5   32      1.34      0.00
    2   -5   32      0.56      0.00
    3   -5   32     -0.51      0.00
    4   -5   32      0.69      0.00
   -5   -4   32      0.23      0.00
   -4   -4   32      0.00      0.00
   -3   -4   32     -1.00      0.00
   -2   -4   32      0.55      0.00
   -1   -4   32     -0.81      0.00
    0   -4   32     -0.34      0.00
    1   -4   32      1.24      0.00
    2   -4   32      0.61      0.00
    3   -4   32     -0.53      0.00
    4   -4   32     -0.60      0.00
   -5   -3   32     -0.39      0.00
   -4   -3   32      0.60      0.00
   -3   -3   32     -1.07      0.00
   -2   -3   32     -0.21      0.00
   -1   -3   32     -0.43      0.00
    0   -3   32     -0.95      0.00
    1   -3   32      0.28      0.00
    2   -3   32      0.19      0.00
    3   -3   32      0.05      0.00
    4   -3   32     -1.01      0.00
   -5   -2   32      0.36      0.00
   -4   -2   32      1.14      0.00
   -3   -2   32     -0.23      0.00
   -2   -2   32     -0.19      0.00
   -1   -2   32     -0.09      0.00
    0   -2   32     -1.17      0.00
    1   -2   32     -0.56      0.00
    2   -2   32      0.77      0.00
    3   -2   32      1.54      0.00
    4   -2   32      0.74      0.00
   -5   -1   32     -0.99      0.00
   -4   -1   32      1.69      0.00
   -3   -1   32     -0.46      0.00
   -2   -1   32      1.33      0.00
   -1   -1   32     -0.72      0.00
    0   -1   32      0.62      0.00
    1   -1   32     -1.14      0.00
    2   -1   32      0.38      0.00
    3   -1   32      1.88      0.00
   -5    0   32     -1.78      0.00
   -4    0   32      1.43      0.00
   -3    0   32      0.41      0.00
   -2    0   32      1.78      0.00
   -1    0   32      0.78      0.00
    0    0   32      1.12      0.00
    1    0   32     -0.83      0.00
    2    0   32     -0.37      0.00
    3    0   32      0.46      0.00
   -5    1   32     -0.85      0.00
   -4    1   32      0.25      0.00
   -3    1   32      0.70      0.00
   -2    1   32     -0.44      0.00
   -1    1   32      0.21      0.00
    0    1   32     -0.37      0.00
    1    1   32     -1.58      0.00
    2    1   32     -0.60      0.00
    3    1   32     -1.51      0.00
   -5    2   32     -0.35      0.00
   -4    2   32     -1.35      0.00
   -3    2   32     -0.76      0.00
   -2    2   32     -1.83      0.00
   -1    2   32      0.46      0.00
    0    2   32     -0.13      0.00
    1    2   32     -0.41      0.00
    2    2   32      0.08      0.00
   -5    3   32      0.13      0.00
   -4    3   32     -1.25      0.00
   -3    3   32      0.89      0.00
   -2    3   32     -0.89      0.00
   -1    3   32      1.92      0.00
    0    3   32      1.32      0.00
    1    3   32     -0.49      0.00
    2    3   32      1.12      0.00
   -5    4   32      0.18      0.00
   -4    4   32      0.13      0.00
   -3    4   32      0.36      0.00
   -2    4   32     -0.82      0.00
   -1    4   32     -0.13      0.00
    0    4   32      0.63      0.00
    1    4   32     -0.22      0.00
   -4    5   32      0.79      0.00
   -3    5   32     -0.04      0.00
   -2    5   32     -0.65      0.00
   -1    5   32      0.14      0.00
    0    5   32     -0.70      0.00
    1    5   32      0.53      0.00
   -3    6   32      0.26      0.00
   -2    6   32     -0.34      0.00
   -1    6   32      0.37      0.00
   -1   -8   33     -0.52      0.00
    0   -8   33      0.48      0.00
    1   -8   33     -0.76      0.00
    2   -8   33      0.79      0.00
   -2   -7   33      0.23      0.00
   -1   -7   33      0.24      0.00
    0   -7   33      0.98      0.00
    1   -7   33      0.16      0.00
    2   -7   33      0.60      0.00
   -3   -6   33      0.67      0.00
   -2   -6   33      0.59      0.00
   -1   -6   33     -0.57      0.00
    0   -6   33      0.72      0.00
    1   -6   33     -0.92      0.00
    2   -6   33     -1.43      0.00
    3   -6   33     -0.33      0.00
   -4   -5   33     -0.32      0.00
   -3   -5   33      0.73      0.00
   -2   -5   33     -0.22      0.00
   -1   -5   33     -0.48      0.00
    0   -5   33      0.34      0.00
    1   -5   33     -0.07      0.00
    2   -5   33     -1.00      0.00
    3   -5   33     -0.13      0.00
   -4   -4   33     -1.31      0.00
   -3   -4   33      0.51      0.00
   -2   -4   33      0.13      0.00
   -1   -4   33     -0.02      0.00
    0   -4   33      0.81      0.00
    1   -4   33      1.48      0.00
    2   -4   33      0.01      0.00
    3   -4   33     -0.91      0.00
   -4   -3   33     -0.62      0.00
   -3   -3   33     -0.30      0.00
   -2   -3   33     -0.23      0.00
   -1   -3   33     -0.18      0.00
    0   -3   33     -1.04      0.00
    1   -3   33      1.30      0.00
    2   -3   33      0.37      0.00
    3   -3   33     -1.08      0.00
   -5   -2   33      0.24      0.00
   -4   -2   33      0.76      0.00
   -3   -2   33     -0.63      0.00
   -2   -2   33     -0.75      0.00
   -1   -2   33      0.16      0.00
    0   -2   33     -1.64      0.00
    1   -2   33      1.12      0.00
    2   -2   33      0.57      0.00
    3   -2   33      0.05      0.00
   -5   -1   33      0.25      0.00
   -4   -1   33      1.15      0.00
   -3   -1   33     -0.99      0.00
   -2   -1   33     -0.93      0.00
   -1   -1   33      0.73      0.00
    0   -1   33     -2.66      0.00
    1   -1   33      0.80      0.00
    2   -1   33      1.35      0.00
    3   -1   33      1.51      0.00
   -5    0   33     -1.15      0.00
   -4    0   33      2.42      0.00
   -3    0   33     -0.12      0.00
   -2    0   33      1.69      0.00
   -1    0   33      0.85      0.00
    0    0   33     -0.65      0.00
    1    0   33     -0.32      0.00
    2    0   33     -0.37      0.00
   -5    1   33     -1.18      0.00
   -4    1   33      2.47      0.00
   -3    1   33     -0.60      0.00
   -2    1   33      1.65      0.00
   -1    1   33      0.96      0.00
    0    1   33     -0.48      0.00
    1    1   33     -0.38      0.00
    2    1   33     -0.86      0.00
   -5    2   33     -1.12      0.00
   -4    2   33      0.06      0.00
   -3    2   33     -1.70      0.00
   -2    2   33      0.04      0.00
   -1    2   33     -0.51      0.00
    0    2   33     -1.11      0.00
    1    2   33     -1.01      0.00
    2    2   33     -0.47      0.00
   -4    3   33     -0.24      0.00
   -3    3   33     -1.41      0.00
   -2    3   33      0.15      0.00
   -1    3   33      0.43      0.00
    0    3   33      0.09      0.00
    1    3   33      0.10      0.00
   -4    4   33     -0.37      0.00
   -3    4   33      0.32      0.00
   -2    4   33      0.65      0.00
   -1    4   33      1.47      0.00
    0    4   33      1.69      0.00
   -3    5   33      0.20      0.00
   -2    5   33     -0.35      0.00
   -1    5   33     -0.67      0.00
   -1   -7   34     -0.34      0.00
    0   -7   34      1.77      0.00
    1   -7   34     -0.75      0.00
   -2   -6   34     -0.35      0.00
   -1   -6   34     -0.31      0.00
    0   -6   34      0.68      0.00
    1   -6   34     -0.83      0.00
    2   -6   34     -0.01      0.00
   -3   -5   34      0.80      0.00
   -2   -5   34     -0.30      0.00
   -1   -5   34     -0.28      0.00
    0   -5   34      0.69      0.00
    1   -5   34     -1.46      0.00
    2   -5   34     -0.04      0.00
   -3   -4   34      0.80      0.00
   -2   -4   34     -0.26      0.00
   -1   -4   34     -0.18      0.00
    0   -4   34      1.23      0.00
    1   -4   34     -1.00      0.00
    2   -4   34     -0.82      0.00
   -4   -3   34     -1.12      0.00
   -3   -3   34      0.40      0.00
   -2   -3   34     -0.35      0.00
   -1   -3   34      0.06      0.00
    0   -3   34      0.67      0.00
    1   -3   34      1.14      0.00
    2   -3   34     -0.39      0.00
   -4   -2   34     -0.51      0.00
   -3   -2   34      0.52      0.00
   -2   -2   34     -1.44      0.00
   -1   -2   34      0.96      0.00
    0   -2   34     -0.55      0.00
    1   -2   34      1.55      0.00
    2   -2   34      0.47      0.00
   -4   -1   34      0.00      0.00
   -3   -1   34     -0.54      0.00
   -2   -1   34     -1.73      0.00
   -1   -1   34      0.04      0.00
    0   -1   34     -1.38      0.00
    1   -1   34      1.20      0.00
    2   -1   34      0.47      0.00
   -4    0   34      0.65      0.00
   -3    0   34      0.29      0.00
   -2    0   34     -1.00      0.00
   -1    0   34      1.27      0.00
    0    0   34     -2.66      0.00
    1    0   34      0.81      0.00
    2    0   34      0.33      0.00
   -4    1   34      2.20      0.00
   -3    1   34      0.73      0.00
   -2    1   34      0.74      0.00
   -1    1   34      1.46      0.00
    0    1   34     -1.13      0.00
    1    1   34      0.43      0.00
   -4    2   34      1.29      0.00
   -3    2   34     -1.06      0.00
   -2    2   34      0.42      0.00
   -1    2   34     -0.05      0.00
    0    2   34     -1.42      0.00
    1    2   34      0.11      0.00
   -3    3   34     -1.54      0.00
   -2    3   34      0.94      0.00
   -1    3   34      0.04      0.00
    0    3   34     -0.94      0.00
   -2    4   34      1.36      0.00
   -1   -5   35     -0.11      0.00
    0   -5   35     -0.84      0.00
    1   -5   35     -0.77      0.00
   -2   -4   35      0.13      0.00
   -1   -4   35      0.91      0.00
    0   -4   35      0.55      0.00
    1   -4   35     -0.69      0.00
   -3   -3   35     -0.50      0.00
   -2   -3   35     -0.04      0.00
   -1   -3   35     -0.04      0.00
    0   -3   35      0.69      0.00
    1   -3   35     -0.64      0.00
   -3   -2   35     -0.37      0.00
   -2   -2   35      0.12      0.00
   -1   -2   35      0.56      0.00
    0   -2   35      0.03      0.00
    1   -2   35      1.21      0.00
   -3   -1   35     -0.23      0.00
   -2   -1   35     -1.67      0.00
   -1   -1   35      1.19      0.00
    0   -1   35     -0.19      0.00
    1   -1   35      1.32      0.00
   -3    0   35     -0.21      0.00
   -2    0   35     -1.02      0.00
   -1    0   35     -0.81      0.00
    0    0   35     -0.59      0.00
   -3    1   35      1.01      0.00
   -2    1   35     -0.48      0.00
   -1    1   35      0.63      0.00
    0    1   35     -1.20      0.00
   -2    2   35      0.13      0.00
   -1    2   35      0.36      0.00
  -11    1    0     -0.65      0.00
   -1    1    0   -101.77      0.00
    0    1    0     92.60      0.00
  -11    8    0      1.83      0.00
    8    9    0      0.38      0.00
  -10   12    0      2.29      0.00
    1   17    0     -0.39      0.00
   -4   18    0     -0.42      0.00
    1  -18    1     -0.44      0.00
   10  -12    1      0.84      0.00
   -8   -9    1     -0.56      0.00
   11   -8    1      1.61      0.00
   11   -2    1     -0.62      0.00
    0   -1    1    -49.46      0.00
    1   -1    1    -94.09      0.00
    0    0    1     85.83      0.00
  -11    1    1     -0.68      0.00
    0    1    1    150.53      0.00
  -11    8    1      0.68      0.00
  -10   12    1      1.31      0.00
    1   17    1     -0.09      0.00
   -4   18    1     -0.71      0.00
   -2   18    1     -0.09      0.00
    1  -18    2      0.45      0.00
   10  -12    2      0.24      0.00
   -7  -11    2      0.65      0.00
   -8   -9    2     -1.26      0.00
   11   -7    2      2.24      0.00
  -10   -4    2     -1.65      0.00
   11   -2    2     -1.62      0.00
    0   -1    2    -67.20      0.00
    0    0    2    -40.80      0.00
  -11    1    2      0.15      0.00
  -11    8    2      0.10      0.00
  -10   12    2     -0.38      0.00
    6   12    2      0.36      0.00
   -4   18    2     -0.54      0.00
   -3   18    2     -0.71      0.00
   -2   18    2      0.40      0.00
    1  -18    3     -1.30      0.00
    9  -14    3      0.42      0.00
   10  -12    3     -1.47      0.00
   -7  -11    3      0.15      0.00
   -9   -7    3      1.23      0.00
   11   -7    3      2.39      0.00
  -10   -4    3     -2.27      0.00
   11   -3    3      1.27      0.00
    0    0    3    -32.85      0.00
  -11    1    3      0.01      0.00
   10    3    3     -0.51      0.00
  -11    8    3      1.06      0.00
  -10   12    3     -0.22      0.00
    6   12    3      1.15      0.00
   -9   14    3     -0.05      0.00
   -3   18    3      0.83      0.00
    1  -18    4     -0.63      0.00
    9  -14    4      0.55      0.00
   -7  -11    4      0.46      0.00
   -9   -7    4      0.47      0.00
   11   -6    4      1.70      0.00
   11   -5    4     -0.25      0.00
  -10   -4    4     -1.56      0.00
   11   -4    4     -0.46      0.00
   11   -3    4      0.90      0.00
  -11    1    4      0.12      0.00
   10    3    4     -0.10      0.00
    9    6    4      0.22      0.00
  -11    7    4     -0.77      0.00
  -11    8    4     -0.03      0.00
  -10   12    4      0.17      0.00
   -9   14    4      0.26      0.00
    2   16    4      1.63      0.00
   -6   17    4     -1.36      0.00
    1  -18    5      1.53      0.00
    9  -14    5      0.07      0.00
   -7  -11    5      0.42      0.00
   -9   -7    5      0.87      0.00
   11   -5    5      0.71      0.00
  -10   -4    5      0.58      0.00
  -11    1    5      0.67      0.00
  -11    7    5     -0.34      0.00
  -11    8    5      0.36      0.00
    7   10    5      1.05      0.00
    5   13    5     -0.16      0.00
   -9   14    5     -0.73      0.00
   -6   17    5     -1.09      0.00
    0   17    5     -0.78      0.00
    1  -18    6      0.55      0.00
    4  -18    6     -0.14      0.00
   -7  -11    6     -0.27      0.00
   -9   -7    6      0.68      0.00
  -10   -4    6      1.76      0.00
  -11    1    6      0.45      0.00
  -11    7    6     -0.22      0.00
    8    8    6      0.42      0.00
    4   14    6      0.25      0.00
    3   15    6     -0.17      0.00
    1  -18    7      0.44      0.00
    4  -18    7     -0.44      0.00
   -7  -11    7      0.40      0.00
   10  -11    7      2.83      0.00
   -9   -7    7      0.19      0.00
  -10   -4    7      0.56      0.00
  -11    1    7     -0.71      0.00
   10    2    7     -0.29      0.00
  -11    7    7     -1.69      0.00
   -8   15    7      0.29      0.00
   -7   16    7     -0.07      0.00
    2  -18    8     -0.01      0.00
    3  -18    8     -0.73      0.00
    4  -18    8     -1.30      0.00
    6  -17    8     -0.20      0.00
    8  -15    8     -0.12      0.00
   -7  -11    8      0.58      0.00
    1  -11    8      7.88      0.00
   -9   -7    8     -1.32      0.00
  -10   -4    8     -0.10      0.00
  -11    1    8     -0.16      0.00
    9    5    8      0.69      0.00
  -11    7    8     -1.69      0.00
    6   11    8      0.85      0.00
   -5   17    8      1.40      0.00
   -1   17    8      0.15      0.00
    2  -18    9     -1.20      0.00
    3  -18    9     -1.00      0.00
   -1  -17    9      1.19      0.00
    6  -17    9     -0.46      0.00
    8  -15    9     -0.82      0.00
   -8   -9    9     -0.43      0.00
   10    1    9      0.05      0.00
  -11    2    9     -0.11      0.00
  -11    6    9      0.97      0.00
  -10   11    9     -0.76      0.00
   -4   17    9      1.53      0.00
   -2   17    9     -0.07      0.00
   -1  -17   10      0.40      0.00
    7  -16   10     -1.19      0.00
    9  -13   10      1.27      0.00
   10  -10   10      2.46      0.00
   -8   -9   10      0.29      0.00
   10    0   10      0.04      0.00
  -11    2   10      0.69      0.00
  -11    3   10      0.51      0.00
  -11    4   10     -1.32      0.00
  -11    5   10     -0.45      0.00
  -11    6   10      0.55      0.00
    5   12   10      0.95      0.00
   -9   13   10     -0.97      0.00
    2   15   10     -0.24      0.00
   -3   17   10      0.28      0.00
   10   -9   11      3.16      0.00
  -11    3   11      0.99      0.00
  -11    4   11      0.11      0.00
    4   13   11      0.39      0.00
    3   14   11     -0.43      0.00
   -6   16   11     -0.31      0.00
    0   16   11     -0.15      0.00
    7  -15   12      0.75      0.00
   10   -8   12      2.15      0.00
    8    6   12      0.08      0.00
  -10   10   12     -0.74      0.00
    6   10   12     -0.13      0.00
   -8   14   12     -1.14      0.00
   -7   15   12      0.17      0.00
    5  -17   13     -0.17      0.00
    8  -14   13      0.33      0.00
   -6  -12   13      0.24      0.00
    9  -12   13      2.33      0.00
   10   -7   13      1.48      0.00
  -10   -3   13      1.14      0.00
   10   -3   13     -0.56      0.00
    1   15   13      0.89      0.00
   -5   16   13     -0.51      0.00
   -1   16   13      0.42      0.00
    0  -17   14     -0.18      0.00
   -2  -16   14      0.01      0.00
    6  -16   14     -2.59      0.00
    7  -15   14     -0.33      0.00
   -9   -6   14      0.58      0.00
    9    2   14      0.15      0.00
  -10    9   14      0.11      0.00
    2   14   14      0.00      0.00
   -4   16   14      0.58      0.00
   -3   16   14      0.41      0.00
   -2   16   14      0.19      0.00
    4  -17   15     -1.22      0.00
   -3  -15   15      0.05      0.00
   -5  -13   15      0.91      0.00
  -10   -2   15     -0.61      0.00
    7    7   15     -0.80      0.00
    6    9   15      0.15      0.00
   -8   13   15     -0.72      0.00
   -6   15   15     -0.88      0.00
    0   15   15      0.95      0.00
    1  -17   16      0.17      0.00
    2  -17   16      0.57      0.00
    3  -17   16     -0.68      0.00
   -4  -14   16     -0.01      0.00
   -7  -10   16     -0.81      0.00
    9  -10   16      2.70      0.00
   -8   -8   16      0.13      0.00
  -10    8   16      1.46      0.00
   -9   11   16      1.43      0.00
   -1  -16   17     -0.02      0.00
    5  -16   17     -0.21      0.00
    7  -14   17      0.65      0.00
    9   -9   17      1.48      0.00
   -9   -5   17     -0.07      0.00
  -10   -1   17      0.26      0.00
  -10    7   17     -0.62      0.00
    4   11   17     -0.08      0.00
   -4   15   17     -0.08      0.00
   -2   15   17      0.43      0.00
    6  -15   18      0.98      0.00
   -6  -11   18      0.77      0.00
    9   -8   18      1.39      0.00
    9   -2   18     -0.76      0.00
  -10    0   18     -0.18      0.00
    8    3   18      0.69      0.00
  -10    6   18      0.38      0.00
   -9   10   18      0.20      0.00
   -8   12   18      0.68      0.00
   -7   13   18     -0.08      0.00
   -6   14   18      0.39      0.00
    0   14   18      0.01      0.00
    0  -16   19     -1.19      0.00
    4  -16   19     -1.54      0.00
   -2  -15   19     -0.29      0.00
    8  -11   19     -0.20      0.00
   -8   -7   19     -0.42      0.00
    9   -6   19     -0.18      0.00
    9   -5   19      1.53      0.00
   -9   -4   19      0.56      0.00
    9   -4   19      0.55      0.00
  -10    1   19     -1.23      0.00
  -10    2   19     -0.32      0.00
    8    2   19      0.16      0.00
  -10    3   19      1.34      0.00
  -10    4   19      1.18      0.00
  -10    5   19      0.07      0.00
    7    5   19      0.69      0.00
   -5   14   19      0.82      0.00
    1  -16   20      0.07      0.00
    3  -16   20     -2.24      0.00
    5  -15   20     -1.05      0.00
   -3  -14   20     -0.36      0.00
    6  -14   20      0.48      0.00
   -5  -12   20     -0.23      0.00
   -8   11   20      2.97      0.00
    3   11   20      0.50      0.00
    2   12   20     -0.10      0.00
   -4   14   20     -0.97      0.00
   -2   14   20      0.02      0.00
    7  -12   21     -0.18      0.00
   -9   -3   21     -0.51      0.00
    8    0   21     -0.31      0.00
    6    6   21      0.85      0.00
   -9    8   21     -0.55      0.00
    5    8   21     -0.47      0.00
    0   13   21     -0.10      0.00
    4  -15   22     -0.55      0.00
   -7   -8   22      0.08      0.00
    8   -8   22     -0.08      0.00
   -9   -2   22     -0.45      0.00
    8   -1   22     -0.15      0.00
    7    3   22      0.88      0.00
   -9    7   22      0.31      0.00
    3   10   22     -0.30      0.00
   -1   13   22      1.05      0.00
    1  -15   23      0.52      0.00
    3  -15   23      1.31      0.00
   -5  -11   23     -0.48      0.00
    8   -6   23     -1.25      0.00
   -8   -5   23      0.89      0.00
    8   -5   23      1.37      0.00
    8   -4   23     -0.29      0.00
   -9   -1   23      0.38      0.00
    7    2   23     -0.52      0.00
   -9    6   23     -0.85      0.00
   -8    9   23      1.36      0.00
    0   12   23      0.01      0.00
    4  -14   24     -0.82      0.00
    6  -12   24      0.21      0.00
   -6   -9   24      0.81      0.00
   -7   -7   24     -0.54      0.00
   -9    1   24     -0.67      0.00
    7    1   24     -0.48      0.00
   -9    2   24     -1.48      0.00
   -9    3   24      0.81      0.00
   -9    4   24     -0.05      0.00
    6    4   24      0.04      0.00
    5    6   24     -0.16      0.00
   -8    8   24     -0.40      0.00
    3    9   24     -0.50      0.00
   -7   10   24     -0.48      0.00
   -6   11   24      0.93      0.00
    1   11   24     -0.35      0.00
   -1   12   24     -0.17      0.00
    3  -14   25     -0.17      0.00
    6  -11   25     -0.29      0.00
    7   -8   25      0.65      0.00
    6    3   25      0.21      0.00
   -8    7   25      0.37      0.00
    4    7   25      0.43      0.00
    0   11   25     -0.80      0.00
    4  -13   26     -0.68      0.00
   -3  -12   26      0.23      0.00
    5  -12   26     -0.06      0.00
   -4  -11   26     -0.32      0.00
    6  -10   26      0.18      0.00
   -6   -8   26     -0.62      0.00
    7   -6   26     -0.21      0.00
    7   -5   26     -0.24      0.00
    7   -4   26      0.76      0.00
    7   -3   26      0.26      0.00
    6    2   26     -1.52      0.00
   -8    6   26      0.18      0.00
    2    9   26     -1.41      0.00
   -4   11   26      0.73      0.00
   -1   11   26     -0.46      0.00
    3  -13   27      0.03      0.00
    5  -11   27     -1.08      0.00
   -5   -9   27      0.21      0.00
    6   -9   27      0.96      0.00
   -7   -5   27      0.16      0.00
   -8   -1   27      0.27      0.00
   -8    4   27      0.79      0.00
   -6    9   27     -0.19      0.00
   -5   10   27     -1.67      0.00
    0   10   27      0.01      0.00
   -3  -11   28     -0.78      0.00
    5  -10   28     -1.37      0.00
    6   -7   28      0.22      0.00
   -7   -4   28     -0.67      0.00
    6   -4   28      1.48      0.00
    6   -1   28     -0.78      0.00
   -3   10   28      0.87      0.00
   -2   10   28      0.32      0.00
    2  -12   29     -0.65      0.00
    5   -9   29     -0.39      0.00
   -7    5   29      0.30      0.00
   -4    9   29      1.77      0.00
   -1    9   29     -0.91      0.00
   -5   -7   30      0.25      0.00
    5   -7   30     -0.25      0.00
   -7    0   30     -0.56      0.00
   -7    1   30      0.55      0.00
   -7    2   30      1.29      0.00
   -7    3   30      1.32      0.00
   -6    6   30     -0.71      0.00
    2    6   30      0.97      0.00
    1    7   30     -1.51      0.00
   -3   -9   31      0.78      0.00
   -5   -6   31      1.00      0.00
   -6   -3   31     -0.04      0.00
    4    1   31      0.49      0.00
    2    5   31      0.99      0.00
    0    7   31     -0.41      0.00
    0  -10   32      0.09      0.00
    1  -10   32      0.14      0.00
   -2   -9   32     -0.13      0.00
   -3   -8   32      0.85      0.00
    4   -6   32      0.03      0.00
   -5   -5   32      0.70      0.00
   -6   -1   32     -0.60      0.00
    4   -1   32     -0.44      0.00
   -6    0   32      0.25      0.00
   -6    1   32      1.25      0.00
   -6    2   32     -0.03      0.00
    3    2   32      0.08      0.00
    2    4   32     -0.13      0.00
   -5    5   32      1.12      0.00
   -4    6   32      0.91      0.00
    0    6   32     -0.42      0.00
    0   -9   33     -0.41      0.00
    1   -9   33     -0.36      0.00
   -2   -8   33     -0.27      0.00
   -3   -7   33      0.75      0.00
    3   -7   33      0.60      0.00
   -5   -3   33      0.30      0.00
    3    0   33      1.64      0.00
   -5    3   33     -0.70      0.00
    1    4   33      0.03      0.00
   -4    5   33     -0.53      0.00
    0    5   33      0.40      0.00
   -2   -7   34      0.36      0.00
   -4   -4   34     -0.19      0.00
    2    1   34     -0.46      0.00
   -4    3   34      0.17      0.00
   -3    4   34     -1.14      0.00
   -1    4   34      0.76      0.00
   -1   -6   35     -0.40      0.00
    0   -6   35      1.26      0.00
   -2   -5   35     -0.46      0.00
   -3   -4   35      0.51      0.00
    1    0   35      0.38      0.00
   -3    2   35      1.17      0.00
    0    2   35     -0.12      0.00
    0    0    0      0.00      0.00
# SQUEEZE RESULTS (Version =  50315)
# Note: Data are Listed for all Voids in the P1 Unit Cell
# i.e. Centre of Gravity, Solvent Accessible Volume,
# Recovered number of Electrons in the Void and
# Details about the Squeezed Material
loop_
  _platon_squeeze_void_nr
  _platon_squeeze_void_average_x
  _platon_squeeze_void_average_y
  _platon_squeeze_void_average_z
  _platon_squeeze_void_volume
  _platon_squeeze_void_count_electrons
  _platon_squeeze_void_content
   1  0.458  0.958  0.042      1182       183 ' '
   2  0.024  0.243  0.232        24        -1 ' '
   3 -0.025  0.757  0.768        24        -1 ' '
# Missing Reflections Below sin(th)/lambda = 0.25
loop_
  _platon_missing_refln_index_h
  _platon_missing_refln_index_k
  _platon_missing_refln_index_l
  _platon_missing_refln_theta
   -1    1    0     5.066
    0    1    0     3.032
    0   -1    1     3.208
    1   -1    1     5.337
    0    0    1     1.489
    0    1    1     3.541
    0   -1    2     3.980
    0    0    2     2.980
    0    0    3     4.472
_platon_squeeze_void_probe_radius                  1.20
_platon_squeeze_details
)
TITL exp_19_1_sP -1         R = 0.20
CELL    9.3496   15.1615   30.0085     95.63     95.06    104.33
SPGR P-1
# Solvent Accessible Volume =    1261.0
# Electrons Found in S.A.V. =     182.5
# Note: Atoms in Void as Cxxx and Qxxx all others
C101 0.079 0.824 0.163 !       6.01 eA-3
C102 0.992 0.731 0.149 !       3.90 eA-3
C103 1.014 0.721 0.092 !       3.14 eA-3
C104 0.219 0.839 0.257 !       3.01 eA-3
C105 0.021 0.675 0.173 !       2.81 eA-3
C106 0.202 0.924 0.080 !       2.63 eA-3
Q107 0.218 0.956 0.028 !       2.23 eA-3
C108 0.344 0.973 0.101 !       2.20 eA-3
C109 0.445 0.856 0.306 !       2.17 eA-3
C110 0.424 0.943 0.260 !       2.14 eA-3
Q111 0.069 0.791 0.338 !       2.09 eA-3
C112 0.355 0.863 0.259 !       2.07 eA-3
C113 0.454 0.986 0.042 !       1.66 eA-3
C114 0.360 0.970 0.018 !       1.58 eA-3
C115 0.461 1.000 0.088 !       1.42 eA-3
Q116 0.950 0.860 0.017 !       1.17 eA-3
C117 0.161 0.795 0.191 !       1.16 eA-3
Q118 0.983 0.033 0.007 !       1.13 eA-3
C119 0.923 0.753 0.055 !       1.11 eA-3
Q120 0.998 0.824 0.057 !       1.07 eA-3
C121 0.333 0.911 0.126 !       1.05 eA-3
Q122 0.950 0.420 0.084 !       1.04 eA-3
C123 0.578 0.866 0.315 !       1.02 eA-3
Q124 0.596 0.439 0.451 !       1.02 eA-3
Q125 0.643 0.735 0.412 !       1.00 eA-3
C126 0.175 0.841 0.114 !       0.98 eA-3
Q127 0.971 0.715 0.283 !       0.96 eA-3
Q128 0.021 0.995 0.025 !       0.95 eA-3
Q129 0.179 0.029 0.057 !       0.95 eA-3
Q130 0.800 0.880 0.374 !       0.94 eA-3
Q131 0.849 0.331 0.006 !       0.89 eA-3
Q132 0.035 0.735 0.240 !       0.89 eA-3
Q133 0.357 0.109 0.101 !       0.88 eA-3
Q134 0.071 0.863 0.357 !       0.88 eA-3
C135 0.158 0.713 0.163 !       0.87 eA-3
Q136 0.835 0.606 0.238 !       0.86 eA-3
Q137 0.814 0.714 0.025 !       0.85 eA-3
Q138 0.544 0.248 0.189 !       0.84 eA-3
Q139 0.847 0.653 0.271 !       0.84 eA-3
C140 0.515 0.917 0.229 !       0.84 eA-3
Q141 0.543 0.207 0.260 !       0.84 eA-3
Q142 0.435 0.629 0.494 !       0.79 eA-3
Q143 0.178 0.202 0.007 !       0.78 eA-3
Q144 0.218 0.887 0.314 !       0.78 eA-3
C145 0.421 1.002 0.296 !       0.78 eA-3
Q146 0.284 0.103 0.071 !       0.76 eA-3
Q147 0.785 0.319 0.230 !       0.75 eA-3
Q148 0.389 0.371 0.416 !       0.75 eA-3
C149 0.400 0.852 0.205 !       0.74 eA-3
Q150 0.970 0.776 0.352 !       0.73 eA-3
C151 0.443 0.913 0.151 !       0.73 eA-3
Q152 0.543 0.424 0.420 !       0.71 eA-3
Q153 0.878 0.250 0.038 !       0.70 eA-3
Q154 0.826 0.255 0.089 !       0.69 eA-3
Q155 0.293 0.486 0.122 !       0.68 eA-3
C156 0.220 0.772 0.119 !       0.67 eA-3
Q157 0.314 0.971 0.329 !       0.67 eA-3
Q158 0.275 0.254 0.118 !       0.66 eA-3
Q159 0.716 0.813 0.398 !       0.62 eA-3
Q160 0.284 0.515 0.057 !       0.62 eA-3
Q161 0.730 0.477 0.095 !       0.62 eA-3
Q162 0.738 0.501 0.082 !       0.62 eA-3
Q163 0.576 0.214 0.037 !       0.61 eA-3
Q164 0.450 0.345 0.489 !       0.60 eA-3
Q165 0.365 0.640 0.069 !       0.60 eA-3
Q166 0.090 0.347 0.242 !       0.60 eA-3
Q167 0.250 0.028 0.452 !       0.59 eA-3
Q168 0.750 0.297 0.431 !       0.59 eA-3
Q169 0.862 0.140 0.357 !       0.59 eA-3
Q170 0.387 0.327 0.045 !       0.58 eA-3
Q171 0.058 0.180 0.153 !       0.58 eA-3
Q172 0.937 0.988 0.182 !       0.58 eA-3
Q173 0.102 0.927 0.397 !       0.58 eA-3
Q174 0.212 0.434 0.272 !       0.58 eA-3
Q175 0.355 0.550 0.150 !       0.57 eA-3
Q176 0.930 0.911 0.441 !       0.56 eA-3
Q177 0.579 0.454 0.079 !       0.56 eA-3
Q178 0.571 0.858 0.415 !       0.55 eA-3
Q179 0.870 0.762 0.371 !       0.55 eA-3
Q180 0.990 0.862 0.353 !       0.55 eA-3
Q181 0.833 0.842 0.450 !       0.55 eA-3
Q182 0.056 0.097 0.256 !       0.54 eA-3
Q183 0.681 0.609 0.131 !       0.54 eA-3
Q184 0.566 0.703 0.382 !       0.54 eA-3
Q185 0.466 0.092 0.382 !       0.54 eA-3
C186 0.350 0.971 0.202 !       0.54 eA-3
Q187 0.749 0.449 0.272 !       0.53 eA-3
Q188 0.099 0.406 0.330 !       0.51 eA-3
Q189 0.467 0.590 0.304 !       0.51 eA-3
Q190 0.568 0.346 0.251 !       0.51 eA-3
Q191 0.874 0.221 0.383 !       0.51 eA-3
Q192 0.298 0.193 0.414 !       0.51 eA-3
Q193 0.139 0.966 0.471 !       0.50 eA-3
)
;
_shelx_shelxl_version_number     2014/7
_olex2_submission_special_instructions 'No special instructions were received'
loop_
_space_group_symop_operation_xyz
'x, y, z'
'-x, -y, -z'
loop_
_atom_site_label
_atom_site_type_symbol
_atom_site_fract_x
_atom_site_fract_y
_atom_site_fract_z
_atom_site_U_iso_or_equiv
_atom_site_adp_type
_atom_site_occupancy
_atom_site_site_symmetry_order
_atom_site_calc_flag
_atom_site_refinement_flags_posn
_atom_site_refinement_flags_adp
_atom_site_refinement_flags_occupancy
Zn1 Zn 0.00888(13) 0.82098(6) 0.35190(3) 0.0832(4) Uani 1 1 d . . .
Zn3 Zn 0.0000 1.0000 0.0000 0.0734(4) Uani 1 2 d S T P
C1 C 0.6068(6) 1.6069(4) 0.1144(2) 0.0609(16) Uani 1 1 d . . .
H1A H 0.5813 1.6615 0.1261 0.091 Uiso 1 1 calc GR . .
H1B H 0.6651 1.6197 0.0899 0.091 Uiso 1 1 calc GR . .
H1C H 0.6631 1.5866 0.1377 0.091 Uiso 1 1 calc GR . .
C4 C -0.3443(7) 0.4553(4) 0.2719(2) 0.0614(16) Uani 1 1 d . . .
H4 H -0.2467 0.4518 0.2711 0.074 Uiso 1 1 calc R . .
C5BA C 0.4796(11) 1.3514(6) 0.4420(5) 0.133(5) Uani 1 1 d . . .
C1BA C 0.3756(7) 1.5150(4) 0.1379(3) 0.074(2) Uani 1 1 d . . .
H1BA H 0.4291 1.4895 0.1598 0.111 Uiso 1 1 calc GR . .
H1BB H 0.2805 1.4730 0.1279 0.111 Uiso 1 1 calc GR . .
H1BC H 0.3618 1.5721 0.1512 0.111 Uiso 1 1 calc GR . .
C2BA C 0.9235(11) 1.2398(9) 0.3750(4) 0.142(5) Uani 1 1 d . . .
H2BA H 0.8831 1.2211 0.3440 0.213 Uiso 1 1 calc GR . .
H2BB H 1.0283 1.2447 0.3780 0.213 Uiso 1 1 calc GR . .
H2BC H 0.9067 1.2982 0.3848 0.213 Uiso 1 1 calc GR . .
N0AA N -0.0990(6) 0.9537(3) 0.18090(18) 0.0631(14) Uani 1 1 d . . .
H0AA H -0.0604 0.9096 0.1726 0.076 Uiso 1 1 calc R . .
N13 N 0.1906(10) 0.8551(5) 0.3999(2) 0.105(3) Uani 1 1 d . . .
N16 N 0.0647(5) 1.0924(3) 0.05720(19) 0.0577(13) Uani 1 1 d . . .
C18 C 0.6691(6) 1.3488(4) 0.0615(2) 0.0510(13) Uani 1 1 d . . .
C20 C -0.1004(7) 1.0091(4) 0.1073(2) 0.0611(16) Uani 1 1 d . . .
C21 C 0.5127(8) 1.2606(5) 0.4279(3) 0.080(2) Uani 1 1 d . . .
C23 C -0.4616(8) 0.3774(4) 0.2562(2) 0.0693(18) Uani 1 1 d . . .
C25 C 0.6913(8) 1.1736(5) 0.4070(2) 0.0735(19) Uani 1 1 d . . .
C28 C -0.1355(7) 1.0118(4) 0.1537(3) 0.0660(17) Uani 1 1 d . . .
C30 C -0.1923(11) 1.0714(6) 0.1803(3) 0.099(3) Uani 1 1 d . . .
H30 H -0.2260 1.1201 0.1708 0.119 Uiso 1 1 calc R . .
C32 C 0.4644(5) 1.5317(3) 0.0974(2) 0.0516(14) Uani 1 1 d . . .
C36 C -0.6034(8) 0.3844(6) 0.2581(3) 0.089(3) Uani 1 1 d . . .
H36 H -0.6814 0.3328 0.2482 0.107 Uiso 1 1 calc R . .
C38 C 0.3769(6) 1.5653(4) 0.0605(3) 0.0668(19) Uani 1 1 d . . .
H38A H 0.3597 1.6229 0.0717 0.100 Uiso 1 1 calc GR . .
H38B H 0.2834 1.5211 0.0514 0.100 Uiso 1 1 calc GR . .
H38C H 0.4325 1.5733 0.0351 0.100 Uiso 1 1 calc GR . .
N39 N 0.0900(7) 0.9460(4) 0.3297(2) 0.0749(17) Uani 1 1 d . . .
C41 C 0.5465(6) 1.2752(3) 0.0460(2) 0.0522(14) Uani 1 1 d . . .
H41 H 0.5617 1.2191 0.0351 0.063 Uiso 1 1 calc R . .
C44 C 0.4023(6) 1.2839(3) 0.0466(2) 0.0536(15) Uani 1 1 d . . .
C46 C 0.6395(5) 1.4317(3) 0.07778(19) 0.0469(13) Uani 1 1 d . . .
H46 H 0.7195 1.4819 0.0881 0.056 Uiso 1 1 calc R . .
C48 C 0.4969(6) 1.4425(3) 0.0793(2) 0.0510(14) Uani 1 1 d . . .
C49 C -0.0879(9) 0.9254(5) 0.2617(2) 0.075(2) Uani 1 1 d . . .
C51 C -0.3714(7) 0.5358(4) 0.2883(2) 0.0661(17) Uani 1 1 d . . .
C55 C 0.6590(8) 1.2531(5) 0.4228(2) 0.0730(19) Uani 1 1 d . . .
H55 H 0.7372 1.3054 0.4306 0.088 Uiso 1 1 calc R . .
N57 N -0.1349(7) 0.7802(4) 0.2932(2) 0.0783(18) Uani 1 1 d . . .
C60 C 0.3351(15) 0.8508(8) 0.4642(3) 0.140(5) Uani 1 1 d . . .
H60 H 0.3742 0.8303 0.4896 0.168 Uiso 1 1 calc R . .
C62 C -0.1323(9) 0.9747(5) 0.2242(2) 0.075(2) Uani 1 1 d . . .
C63 C 0.1376(13) 0.7088(7) 0.4308(3) 0.122(4) Uani 1 1 d . . .
H63 H 0.1640 0.6794 0.4548 0.147 Uiso 1 1 calc R . .
C65 C 0.5711(8) 1.0949(5) 0.3967(2) 0.0757(19) Uani 1 1 d . . .
H65 H 0.5890 1.0391 0.3865 0.091 Uiso 1 1 calc R . .
C68 C 0.0141(7) 1.0830(4) 0.0980(2) 0.0562(15) Uani 1 1 d . . .
N70 N -0.0368(9) 0.6861(4) 0.3636(2) 0.095(2) Uani 1 1 d . . .
C71 C 0.3777(6) 1.3660(3) 0.0626(2) 0.0527(14) Uani 1 1 d . . .
H71 H 0.2807 1.3713 0.0625 0.063 Uiso 1 1 calc R . .
C73 C -0.1905(12) 1.0461(6) 0.2238(3) 0.103(3) Uani 1 1 d . . .
H73 H -0.2242 1.0743 0.2482 0.124 Uiso 1 1 calc R . .
C75 C -0.1778(7) 0.9340(4) 0.0768(2) 0.0639(17) Uani 1 1 d . . .
C77 C -0.4288(9) 0.2891(5) 0.2373(3) 0.081(2) Uani 1 1 d . . .
C1CA C 0.2224(9) 1.0925(5) 0.3226(3) 0.085(2) Uani 1 1 d . . .
H1CA H 0.2940 1.1483 0.3286 0.102 Uiso 1 1 calc R . .
C4CA C 0.0996(7) 1.1554(4) 0.1306(2) 0.0639(16) Uani 1 1 d . . .
H4CA H 0.0853 1.1650 0.1607 0.077 Uiso 1 1 calc R . .
N6 N 0.1528(6) 1.0818(3) -0.03260(19) 0.0604(13) Uani 1 1 d . . .
C0CA C 0.4027(8) 1.1791(5) 0.4170(3) 0.082(2) Uani 1 1 d . . .
H0CA H 0.3054 1.1799 0.4208 0.098 Uiso 1 1 calc R . .
C9AA C 0.8292(6) 1.3407(4) 0.0609(2) 0.0603(16) Uani 1 1 d . . .
C2CA C 0.3805(13) 0.9358(7) 0.4516(3) 0.122(4) Uani 1 1 d . . .
H2CA H 0.4578 0.9835 0.4665 0.146 Uiso 1 1 calc R . .
C3CA C 0.8518(10) 1.1726(7) 0.4024(3) 0.094(3) Uani 1 1 d . . .
C5AA C 0.9135(8) 1.4126(7) 0.0355(4) 0.110(4) Uani 1 1 d . . .
H5AA H 0.8916 1.3924 0.0037 0.165 Uiso 1 1 calc GR . .
H5AB H 1.0181 1.4230 0.0443 0.165 Uiso 1 1 calc GR . .
H5AC H 0.8847 1.4686 0.0422 0.165 Uiso 1 1 calc GR . .
C19 C -0.5760(13) 0.2110(6) 0.2252(4) 0.136(4) Uani 1 1 d . . .
H19A H -0.6392 0.2136 0.2486 0.205 Uiso 1 1 calc GR . .
H19B H -0.5530 0.1525 0.2225 0.205 Uiso 1 1 calc GR . .
H19C H -0.6261 0.2189 0.1971 0.205 Uiso 1 1 calc GR . .
C22 C -0.2823(9) 0.7826(5) 0.2292(3) 0.080(2) Uani 1 1 d . . .
H22 H -0.3221 0.8036 0.2040 0.096 Uiso 1 1 calc R . .
C24 C 0.1842(7) 1.1696(4) 0.0632(2) 0.0606(16) Uani 1 1 d . . .
C26 C 0.4281(8) 1.0991(5) 0.4014(3) 0.079(2) Uani 1 1 d . . .
C2AA C -0.1645(9) 0.8340(5) 0.2616(3) 0.077(2) Uani 1 1 d . . .
C29 C -0.5178(9) 0.5392(6) 0.2893(3) 0.090(3) Uani 1 1 d . . .
H29 H -0.5372 0.5937 0.3008 0.108 Uiso 1 1 calc R . .
C6AA C 0.2045(7) 1.2072(4) 0.1099(2) 0.0691(18) Uani 1 1 d . . .
H6AA H 0.2777 1.2586 0.1233 0.083 Uiso 1 1 calc R . .
C33 C 0.2975(8) 1.1382(4) -0.0872(3) 0.074(2) Uani 1 1 d . . .
H33 H 0.3351 1.1434 -0.1148 0.089 Uiso 1 1 calc R . .
C7AA C 0.2875(12) 0.9397(6) 0.4107(3) 0.104(3) Uani 1 1 d . . .
C8AA C 0.2174(13) 0.7987(6) 0.4317(3) 0.114(4) Uani 1 1 d . . .
C45 C 0.0304(8) 0.9762(5) 0.2930(3) 0.073(2) Uani 1 1 d . . .
C0BA C 0.1168(9) 1.0682(5) 0.2884(3) 0.078(2) Uani 1 1 d . . .
H0BA H 0.1005 1.1032 0.2656 0.094 Uiso 1 1 calc R . .
C1AA C -0.1574(12) 0.5360(6) 0.3663(3) 0.106(3) Uani 1 1 d . . .
H1AA H -0.2231 0.4782 0.3590 0.127 Uiso 1 1 calc R . .
C52 C -0.0514(14) 0.5610(7) 0.4012(3) 0.123(4) Uani 1 1 d . . .
H52 H -0.0298 0.5245 0.4226 0.148 Uiso 1 1 calc R . .
C53 C 0.0233(13) 0.6557(6) 0.3992(3) 0.115(4) Uani 1 1 d . . .
C56 C 0.3015(9) 1.0135(5) 0.3869(3) 0.080(2) Uani 1 1 d . . .
C57 C -0.3684(16) 0.3033(7) 0.1949(5) 0.152(5) Uani 1 1 d . . .
H57A H -0.4102 0.3466 0.1806 0.229 Uiso 1 1 calc GR . .
H57B H -0.3927 0.2460 0.1756 0.229 Uiso 1 1 calc GR . .
H57C H -0.2624 0.3265 0.2005 0.229 Uiso 1 1 calc GR . .
C0AA C -0.6361(8) 0.4644(7) 0.2739(3) 0.092(3) Uani 1 1 d . . .
C3AA C 0.3486(19) 1.3399(8) 0.4659(7) 0.265(13) Uani 1 1 d . . .
H3AA H 0.2649 1.2994 0.4472 0.398 Uiso 1 1 calc GR . .
H3AB H 0.3285 1.3984 0.4731 0.398 Uiso 1 1 calc GR . .
H3AC H 0.3661 1.3142 0.4933 0.398 Uiso 1 1 calc GR . .
C3BA C 0.9090(9) 1.3628(8) 0.1085(4) 0.117(4) Uani 1 1 d . . .
H3BA H 0.9193 1.4262 0.1191 0.175 Uiso 1 1 calc GR . .
H3BB H 1.0056 1.3516 0.1085 0.175 Uiso 1 1 calc GR . .
H3BC H 0.8526 1.3247 0.1279 0.175 Uiso 1 1 calc GR . .
C4AA C 0.2732(6) 1.2013(3) 0.0312(2) 0.0514(14) Uani 1 1 d . . .
C69 C 0.6146(17) 1.4237(10) 0.4615(8) 0.267(13) Uani 1 1 d . . .
H69A H 0.6324 1.4211 0.4933 0.401 Uiso 1 1 calc GR . .
H69B H 0.6007 1.4828 0.4566 0.401 Uiso 1 1 calc GR . .
H69C H 0.6984 1.4141 0.4472 0.401 Uiso 1 1 calc GR . .
C74 C 0.2070(9) 1.0168(5) 0.3490(3) 0.076(2) Uani 1 1 d . . .
C76 C 0.3446(7) 1.1974(4) -0.0486(3) 0.0731(19) Uani 1 1 d . . .
H76 H 0.4207 1.2512 -0.0451 0.088 Uiso 1 1 calc R . .
C78 C -0.2461(8) 0.6194(4) 0.3047(2) 0.0690(19) Uani 1 1 d . . .
C84 C 0.8358(9) 1.2465(6) 0.0448(5) 0.153(6) Uani 1 1 d . . .
H84A H 0.7998 1.2061 0.0664 0.229 Uiso 1 1 calc GR . .
H84B H 0.9367 1.2463 0.0412 0.229 Uiso 1 1 calc GR . .
H84C H 0.7752 1.2259 0.0163 0.229 Uiso 1 1 calc GR . .
C85 C -0.8058(18) 0.5650(14) 0.2954(7) 0.226(8) Uani 1 1 d . U .
H85A H -0.7579 0.5755 0.3258 0.338 Uiso 1 1 calc GR . .
H85B H -0.9070 0.5683 0.2956 0.338 Uiso 1 1 calc GR . .
H85C H -0.7544 0.6108 0.2784 0.338 Uiso 1 1 calc GR . .
C88 C -0.2349(8) 0.6933(5) 0.2814(3) 0.075(2) Uani 1 1 d . . .
C90 C -0.3267(9) 0.6967(5) 0.2414(3) 0.082(2) Uani 1 1 d . . .
H90 H -0.4034 0.6488 0.2264 0.098 Uiso 1 1 calc R . .
C94 C -0.3442(16) 0.2582(7) 0.2733(5) 0.169(6) Uani 1 1 d . . .
H94A H -0.2401 0.2771 0.2702 0.253 Uiso 1 1 calc GR . .
H94B H -0.3753 0.1926 0.2714 0.253 Uiso 1 1 calc GR . .
H94C H -0.3617 0.2848 0.3021 0.253 Uiso 1 1 calc GR . .
C95 C -0.1527(10) 0.6149(5) 0.3416(3) 0.084(2) Uani 1 1 d . . .
C98 C 0.2561(7) 1.1624(4) -0.0144(2) 0.0606(16) Uani 1 1 d . . .
C8BA C -0.8029(11) 0.4668(9) 0.2730(5) 0.127(4) Uani 1 1 d . . .
C9BA C -0.8679(11) 0.4131(11) 0.3084(5) 0.170(6) Uani 1 1 d . . .
H9BA H -0.9098 0.3503 0.2957 0.255 Uiso 1 1 calc GR . .
H9BB H -0.9444 0.4380 0.3197 0.255 Uiso 1 1 calc GR . .
H9BC H -0.7917 0.4162 0.3325 0.255 Uiso 1 1 calc GR . .
C6BA C -0.8744(13) 0.4602(13) 0.2306(6) 0.201(9) Uani 1 1 d . . .
H6BA H -0.8075 0.4938 0.2120 0.301 Uiso 1 1 calc GR . .
H6BB H -0.9589 0.4852 0.2320 0.301 Uiso 1 1 calc GR . .
H6BC H -0.9068 0.3969 0.2179 0.301 Uiso 1 1 calc GR . .
C4BA C 0.445(3) 1.3939(14) 0.4004(8) 0.306(18) Uani 1 1 d . . .
H4BA H 0.4852 1.3677 0.3755 0.458 Uiso 1 1 calc GR . .
H4BB H 0.4887 1.4589 0.4057 0.458 Uiso 1 1 calc GR . .
H4BC H 0.3393 1.3822 0.3936 0.458 Uiso 1 1 calc GR . .
C5CA C 0.8503(14) 1.0710(11) 0.3793(7) 0.213(9) Uani 1 1 d . . .
H5CA H 0.8016 1.0609 0.3490 0.319 Uiso 1 1 calc GR . .
H5CB H 0.7978 1.0258 0.3964 0.319 Uiso 1 1 calc GR . .
H5CC H 0.9506 1.0661 0.3788 0.319 Uiso 1 1 calc GR . .
C7BA C 0.9324(12) 1.1856(14) 0.4469(4) 0.189(8) Uani 1 1 d . . .
H7BA H 1.0371 1.1982 0.4445 0.284 Uiso 1 1 calc GR . .
H7BB H 0.9017 1.1310 0.4611 0.284 Uiso 1 1 calc GR . .
H7BC H 0.9120 1.2363 0.4647 0.284 Uiso 1 1 calc GR . .
N2 N -0.1355(15) 0.8508(6) 0.3997(4) 0.145(4) Uani 1 1 d . . .
C6 C -0.268(2) 0.8248(14) 0.3887(6) 0.217(11) Uani 1 1 d . . .
H6 H -0.3089 0.8023 0.3592 0.261 Uiso 1 1 calc R . .
C8 C -0.349(2) 0.8307(12) 0.4212(5) 0.216(9) Uani 1 1 d . . .
H8 H -0.4492 0.8026 0.4135 0.260 Uiso 1 1 calc R . .
C10 C -0.162(2) 0.8970(11) 0.4724(5) 0.158(5) Uani 1 1 d . . .
H10 H -0.1188 0.9270 0.5008 0.190 Uiso 1 1 calc R . .
C11 C -0.074(2) 0.8838(11) 0.4439(3) 0.184(8) Uani 1 1 d . . .
H11 H 0.0282 0.8958 0.4523 0.221 Uiso 1 1 calc R . .
C13 C -0.311(2) 0.8713(12) 0.4651(6) 0.180(7) Uani 1 1 d . . .
H13 H -0.3767 0.8795 0.4858 0.216 Uiso 1 1 calc R . .
loop_
_atom_site_aniso_label
_atom_site_aniso_U_11
_atom_site_aniso_U_22
_atom_site_aniso_U_33
_atom_site_aniso_U_23
_atom_site_aniso_U_13
_atom_site_aniso_U_12
Zn1 0.1175(9) 0.0479(5) 0.0611(6) -0.0034(4) 0.0160(5) -0.0200(5)
Zn3 0.0823(9) 0.0373(6) 0.0709(8) -0.0033(5) 0.0005(6) -0.0333(6)
C1 0.049(3) 0.028(2) 0.087(4) -0.011(3) -0.004(3) -0.012(2)
C4 0.047(3) 0.047(3) 0.080(4) 0.010(3) 0.001(3) -0.006(3)
C5BA 0.095(6) 0.060(5) 0.220(13) -0.048(7) 0.069(8) -0.019(5)
C1BA 0.058(4) 0.043(3) 0.107(6) -0.015(3) 0.019(4) -0.008(3)
C2BA 0.083(6) 0.186(12) 0.190(12) 0.110(10) 0.064(7) 0.047(7)
N0AA 0.072(3) 0.039(2) 0.069(3) -0.004(2) 0.013(3) 0.000(2)
N13 0.157(7) 0.071(4) 0.052(3) 0.001(3) 0.017(4) -0.031(4)
N16 0.051(3) 0.029(2) 0.082(4) 0.002(2) -0.004(3) -0.003(2)
C18 0.038(3) 0.039(3) 0.072(4) 0.005(3) 0.002(3) 0.005(2)
C20 0.056(3) 0.040(3) 0.080(4) 0.005(3) 0.000(3) 0.004(3)
C21 0.069(4) 0.058(4) 0.094(5) -0.008(4) 0.015(4) -0.013(3)
C23 0.063(4) 0.046(3) 0.085(5) 0.014(3) -0.009(3) -0.009(3)
C25 0.071(4) 0.081(5) 0.065(4) 0.012(4) 0.017(3) 0.008(4)
C28 0.067(4) 0.037(3) 0.085(5) 0.000(3) 0.006(3) 0.001(3)
C30 0.125(8) 0.060(5) 0.121(7) 0.006(5) 0.031(6) 0.037(5)
C32 0.029(2) 0.030(2) 0.085(4) -0.003(2) 0.002(2) -0.008(2)
C36 0.053(4) 0.077(5) 0.124(7) 0.034(5) 0.007(4) -0.016(4)
C38 0.042(3) 0.033(3) 0.115(6) -0.008(3) -0.011(3) 0.004(2)
N39 0.095(4) 0.048(3) 0.067(3) -0.003(3) 0.021(3) -0.008(3)
C41 0.040(3) 0.028(2) 0.083(4) -0.001(2) -0.002(3) 0.005(2)
C44 0.036(3) 0.027(2) 0.087(4) -0.003(3) 0.000(3) -0.006(2)
C46 0.023(2) 0.038(3) 0.070(3) 0.002(2) -0.008(2) -0.0053(19)
C48 0.034(3) 0.028(2) 0.079(4) -0.001(2) -0.003(3) -0.008(2)
C49 0.096(5) 0.049(3) 0.071(4) -0.017(3) 0.027(4) 0.004(3)
C51 0.051(3) 0.052(4) 0.085(5) 0.007(3) 0.017(3) -0.007(3)
C55 0.059(4) 0.066(4) 0.079(4) -0.005(3) 0.010(3) -0.008(3)
N57 0.103(5) 0.049(3) 0.070(4) -0.007(3) 0.032(3) -0.007(3)
C60 0.197(12) 0.113(8) 0.059(5) 0.006(5) -0.001(6) -0.046(8)
C62 0.094(5) 0.048(4) 0.072(4) -0.009(3) 0.024(4) -0.004(3)
C63 0.168(10) 0.090(6) 0.079(6) 0.018(5) 0.009(6) -0.023(6)
C65 0.083(5) 0.070(4) 0.068(4) -0.002(3) 0.017(4) 0.010(4)
C68 0.059(3) 0.033(3) 0.071(4) 0.006(3) -0.001(3) 0.004(2)
N70 0.132(6) 0.064(4) 0.064(4) 0.005(3) 0.017(4) -0.021(4)
C71 0.028(2) 0.034(3) 0.084(4) -0.002(3) -0.004(3) -0.006(2)
C73 0.153(9) 0.072(5) 0.093(6) -0.003(5) 0.044(6) 0.038(6)
C75 0.064(4) 0.035(3) 0.080(4) 0.001(3) 0.001(3) -0.007(3)
C77 0.086(5) 0.043(3) 0.094(5) 0.005(3) -0.016(4) -0.010(3)
C1CA 0.096(6) 0.051(4) 0.093(5) -0.007(4) 0.029(5) -0.011(4)
C4CA 0.064(4) 0.041(3) 0.075(4) 0.002(3) -0.005(3) -0.003(3)
N6 0.058(3) 0.027(2) 0.084(4) 0.003(2) -0.004(3) -0.005(2)
C0CA 0.057(4) 0.060(4) 0.112(6) -0.013(4) 0.019(4) -0.010(3)
C9AA 0.029(3) 0.055(3) 0.094(5) 0.004(3) -0.002(3) 0.013(2)
C2CA 0.162(10) 0.091(6) 0.071(5) -0.009(5) 0.013(6) -0.036(6)
C3CA 0.084(5) 0.122(8) 0.083(5) 0.019(5) 0.037(5) 0.029(5)
C5AA 0.048(4) 0.096(6) 0.192(11) 0.042(7) 0.026(5) 0.016(4)
C19 0.145(9) 0.070(6) 0.150(10) 0.006(6) -0.029(8) -0.038(6)
C22 0.103(6) 0.049(4) 0.073(4) -0.011(3) 0.022(4) -0.008(4)
C24 0.054(3) 0.036(3) 0.080(4) -0.002(3) -0.014(3) 0.001(3)
C26 0.075(5) 0.070(4) 0.078(5) -0.018(4) 0.021(4) -0.003(4)
C2AA 0.098(5) 0.048(3) 0.073(4) -0.003(3) 0.031(4) -0.007(4)
C29 0.090(6) 0.071(5) 0.117(7) 0.027(5) 0.052(5) 0.017(4)
C6AA 0.061(4) 0.040(3) 0.088(5) 0.000(3) -0.002(3) -0.014(3)
C33 0.075(4) 0.043(3) 0.090(5) 0.006(3) 0.011(4) -0.011(3)
C7AA 0.144(8) 0.081(5) 0.054(4) -0.007(4) 0.023(5) -0.029(5)
C8AA 0.158(9) 0.080(6) 0.066(5) -0.009(4) 0.006(5) -0.031(6)
C45 0.081(5) 0.056(4) 0.072(4) -0.010(3) 0.029(4) -0.004(3)
C0BA 0.094(5) 0.050(4) 0.075(4) -0.006(3) 0.024(4) -0.009(4)
C1AA 0.143(8) 0.063(5) 0.089(6) 0.011(4) 0.018(6) -0.016(5)
C52 0.169(11) 0.087(6) 0.087(6) 0.028(5) 0.005(7) -0.018(7)
C53 0.163(10) 0.077(5) 0.069(5) 0.010(4) 0.000(6) -0.030(6)
C56 0.094(5) 0.053(4) 0.077(5) -0.010(3) 0.013(4) -0.008(4)
C57 0.189(13) 0.076(6) 0.199(14) -0.003(7) 0.094(11) 0.028(7)
C0AA 0.045(4) 0.118(7) 0.117(7) 0.054(6) 0.021(4) 0.008(4)
C3AA 0.29(2) 0.080(8) 0.42(3) -0.061(12) 0.27(2) -0.003(10)
C3BA 0.069(5) 0.150(10) 0.128(8) -0.021(7) -0.017(5) 0.047(6)
C4AA 0.035(3) 0.027(2) 0.083(4) 0.003(2) 0.000(3) -0.005(2)
C69 0.144(12) 0.146(12) 0.44(3) -0.188(17) -0.044(16) 0.019(10)
C74 0.093(5) 0.051(4) 0.072(4) -0.002(3) 0.029(4) -0.006(3)
C76 0.065(4) 0.043(3) 0.091(5) 0.003(3) 0.000(4) -0.019(3)
C78 0.085(5) 0.041(3) 0.069(4) -0.004(3) 0.025(4) -0.006(3)
C84 0.045(4) 0.072(6) 0.343(19) 0.003(8) -0.002(7) 0.034(4)
C85 0.156(11) 0.263(17) 0.288(17) 0.035(13) 0.113(12) 0.080(12)
C88 0.084(5) 0.052(4) 0.075(4) -0.009(3) 0.029(4) -0.010(3)
C90 0.098(5) 0.053(4) 0.079(5) -0.010(3) 0.024(4) -0.009(4)
C94 0.206(13) 0.084(7) 0.211(15) -0.022(8) -0.080(11) 0.077(8)
C95 0.096(6) 0.051(4) 0.096(6) 0.005(4) 0.040(5) -0.009(4)
C98 0.054(3) 0.035(3) 0.080(4) 0.011(3) -0.003(3) -0.010(2)
C8BA 0.067(6) 0.142(10) 0.181(12) 0.066(9) 0.042(7) 0.015(6)
C9BA 0.074(6) 0.264(18) 0.195(14) 0.119(13) 0.065(8) 0.031(8)
C6BA 0.088(8) 0.37(3) 0.208(16) 0.160(17) 0.049(9) 0.115(12)
C4BA 0.46(4) 0.19(2) 0.39(4) 0.15(2) 0.25(3) 0.21(3)
C5CA 0.108(9) 0.213(18) 0.35(3) 0.056(17) 0.122(13) 0.060(11)
C7BA 0.086(7) 0.37(2) 0.132(11) 0.113(14) 0.036(7) 0.064(11)
N2 0.197(11) 0.094(6) 0.120(8) -0.022(5) 0.087(8) -0.015(7)
C6 0.191(16) 0.27(2) 0.178(16) -0.130(15) -0.092(14) 0.127(16)
C8 0.30(2) 0.206(17) 0.099(9) -0.064(11) 0.025(12) 0.014(16)
C10 0.167(14) 0.189(15) 0.118(11) 0.039(10) 0.024(10) 0.033(12)
C11 0.31(2) 0.215(16) 0.054(5) -0.032(7) 0.010(9) 0.144(15)
C13 0.166(14) 0.189(16) 0.166(14) -0.031(12) 0.060(12) 0.016(12)
loop_
_atom_type_symbol
_atom_type_description
_atom_type_scat_dispersion_real
_atom_type_scat_dispersion_imag
_atom_type_scat_source
C C 0.0181 0.0091 'International Tables Vol C Tables 4.2.6.8 and 6.1.1.4'
H H 0.0000 0.0000 'International Tables Vol C Tables 4.2.6.8 and 6.1.1.4'
N N 0.0311 0.0180 'International Tables Vol C Tables 4.2.6.8 and 6.1.1.4'
Zn Zn -1.5491 0.6778 'International Tables Vol C Tables 4.2.6.8 and 6.1.1.4'
loop_
_geom_angle_atom_site_label_1
_geom_angle_atom_site_label_2
_geom_angle_atom_site_label_3
_geom_angle
_geom_angle_site_symmetry_1
_geom_angle_site_symmetry_3
N13 Zn1 N39 87.5(3) . .
N13 Zn1 N57 165.5(3) . .
N13 Zn1 N70 91.2(3) . .
N13 Zn1 N2 92.5(4) . .
N39 Zn1 N57 89.2(2) . .
N39 Zn1 N2 102.9(3) . .
N57 Zn1 N2 102.0(4) . .
N70 Zn1 N39 165.6(3) . .
N70 Zn1 N57 88.4(3) . .
N70 Zn1 N2 91.4(3) . .
N16 Zn3 N16 180.0(3) 2_575 .
N6 Zn3 N16 90.0(2) 2_575 2_575
N6 Zn3 N16 90.0(2) 2_575 .
N6 Zn3 N16 90.0(2) . .
N6 Zn3 N16 90.0(2) . 2_575
N6 Zn3 N6 180.0 2_575 .
C51 C4 C23 121.1(6) . .
C3AA C5BA C21 111.9(9) . .
C3AA C5BA C69 118.1(13) . .
C3AA C5BA C4BA 106.2(15) . .
C69 C5BA C21 112.7(10) . .
C69 C5BA C4BA 97.5(15) . .
C4BA C5BA C21 108.9(12) . .
C28 N0AA C62 110.4(6) . .
C7AA N13 Zn1 126.1(7) . .
C7AA N13 C8AA 109.3(8) . .
C8AA N13 Zn1 123.7(6) . .
C68 N16 Zn3 126.7(4) . .
C68 N16 C24 106.9(5) . .
C24 N16 Zn3 125.8(5) . .
C41 C18 C46 116.8(5) . .
C41 C18 C9AA 122.2(5) . .
C46 C18 C9AA 121.0(5) . .
C68 C20 C28 116.1(5) . .
C75 C20 C28 117.9(6) . .
C75 C20 C68 126.0(7) . .
C55 C21 C5BA 122.3(6) . .
C0CA C21 C5BA 122.9(7) . .
C0CA C21 C55 114.7(7) . .
C4 C23 C77 120.1(7) . .
C36 C23 C4 118.2(7) . .
C36 C23 C77 121.7(6) . .
C55 C25 C65 116.9(7) . .
C55 C25 C3CA 119.9(7) . .
C65 C25 C3CA 123.2(8) . .
N0AA C28 C20 121.1(6) . .
N0AA C28 C30 106.0(7) . .
C30 C28 C20 132.5(7) . .
C28 C30 C73 108.2(8) . .
C1 C32 C1BA 106.9(5) . .
C38 C32 C1 108.6(5) . .
C38 C32 C1BA 110.6(5) . .
C48 C32 C1 112.1(5) . .
C48 C32 C1BA 108.8(5) . .
C48 C32 C38 109.7(5) . .
C23 C36 C0AA 122.8(7) . .
C45 N39 Zn1 125.6(5) . .
C45 N39 C74 105.9(6) . .
C74 N39 Zn1 128.4(6) . .
C44 C41 C18 121.4(5) . .
C41 C44 C4AA 119.5(5) . .
C71 C44 C41 120.1(5) . .
C71 C44 C4AA 120.4(5) . .
C48 C46 C18 123.2(4) . .
C46 C48 C32 123.4(4) . .
C46 C48 C71 117.2(5) . .
C71 C48 C32 119.4(5) . .
C2AA C49 C62 117.8(7) . .
C2AA C49 C45 126.4(8) . .
C45 C49 C62 115.8(6) . .
C4 C51 C29 118.3(6) . .
C4 C51 C78 121.1(6) . .
C29 C51 C78 120.6(7) . .
C25 C55 C21 123.7(6) . .
C2AA N57 Zn1 127.1(5) . .
C2AA N57 C88 107.1(7) . .
C88 N57 Zn1 125.4(5) . .
C2CA C60 C8AA 107.8(10) . .
N0AA C62 C49 120.4(7) . .
C73 C62 N0AA 107.3(7) . .
C73 C62 C49 132.0(7) . .
C8AA C63 C53 129.5(10) . .
C26 C65 C25 121.2(7) . .
N16 C68 C20 125.1(5) . .
N16 C68 C4CA 109.8(5) . .
C20 C68 C4CA 125.0(6) . .
C53 N70 Zn1 124.8(5) . .
C53 N70 C95 108.0(7) . .
C95 N70 Zn1 126.2(6) . .
C44 C71 C48 121.1(5) . .
C62 C73 C30 108.0(7) . .
C20 C75 C33 124.2(7) . 2_575
N6 C75 C20 125.4(6) 2_575 .
N6 C75 C33 110.4(5) 2_575 2_575
C23 C77 C19 110.5(8) . .
C57 C77 C23 108.3(7) . .
C57 C77 C19 105.5(9) . .
C57 C77 C94 119.7(11) . .
C94 C77 C23 107.8(7) . .
C94 C77 C19 104.8(8) . .
C0BA C1CA C74 107.5(7) . .
C6AA C4CA C68 107.5(6) . .
C75 N6 Zn3 126.7(4) 2_575 .
C75 N6 C98 106.2(5) 2_575 .
C98 N6 Zn3 127.0(5) . .
C26 C0CA C21 124.0(7) . .
C5AA C9AA C18 109.7(5) . .
C5AA C9AA C3BA 104.8(7) . .
C3BA C9AA C18 109.6(6) . .
C84 C9AA C18 112.4(5) . .
C84 C9AA C5AA 113.8(8) . .
C84 C9AA C3BA 106.2(8) . .
C60 C2CA C7AA 108.2(8) . .
C2BA C3CA C25 113.0(8) . .
C2BA C3CA C5CA 109.1(10) . .
C2BA C3CA C7BA 111.3(11) . .
C25 C3CA C5CA 107.4(8) . .
C7BA C3CA C25 108.8(7) . .
C7BA C3CA C5CA 107.0(12) . .
C90 C22 C2AA 107.6(8) . .
N16 C24 C6AA 107.8(6) . .
C4AA C24 N16 126.3(6) . .
C4AA C24 C6AA 125.8(5) . .
C65 C26 C56 119.0(7) . .
C0CA C26 C65 119.4(7) . .
C0CA C26 C56 121.5(7) . .
C49 C2AA C22 126.0(8) . .
N57 C2AA C49 124.3(7) . .
N57 C2AA C22 109.7(6) . .
C0AA C29 C51 122.4(8) . .
C4CA C6AA C24 108.0(5) . .
C76 C33 C75 106.3(7) . 2_575
N13 C7AA C2CA 106.7(8) . .
N13 C7AA C56 127.5(8) . .
C56 C7AA C2CA 125.8(8) . .
N13 C8AA C60 108.0(8) . .
C63 C8AA N13 123.9(9) . .
C63 C8AA C60 128.2(10) . .
N39 C45 C49 126.3(7) . .
N39 C45 C0BA 109.8(7) . .
C49 C45 C0BA 123.8(8) . .
C1CA C0BA C45 107.0(8) . .
C52 C1AA C95 108.3(8) . .
C1AA C52 C53 106.8(9) . .
C63 C53 C52 124.9(10) . .
N70 C53 C63 124.8(9) . .
N70 C53 C52 110.3(8) . .
C7AA C56 C26 119.9(8) . .
C7AA C56 C74 124.5(7) . .
C74 C56 C26 115.6(7) . .
C36 C0AA C29 117.2(7) . .
C36 C0AA C8BA 119.1(9) . .
C29 C0AA C8BA 123.7(10) . .
C24 C4AA C44 116.5(6) . .
C24 C4AA C98 125.8(5) . .
C98 C4AA C44 117.7(5) . .
N39 C74 C1CA 109.7(7) . .
N39 C74 C56 124.7(7) . .
C56 C74 C1CA 125.5(7) . .
C33 C76 C98 108.0(5) . .
C88 C78 C51 117.4(7) . .
C88 C78 C95 125.5(7) . .
C95 C78 C51 117.2(6) . .
N57 C88 C90 107.8(7) . .
C78 C88 N57 126.4(8) . .
C78 C88 C90 125.8(6) . .
C22 C90 C88 107.8(7) . .
N70 C95 C1AA 106.6(8) . .
C78 C95 N70 126.2(7) . .
C78 C95 C1AA 127.1(7) . .
N6 C98 C4AA 124.7(6) . .
N6 C98 C76 109.1(6) . .
C4AA C98 C76 126.2(5) . .
C0AA C8BA C85 107.6(11) . .
C9BA C8BA C0AA 108.1(9) . .
C9BA C8BA C85 98.0(13) . .
C6BA C8BA C0AA 113.8(11) . .
C6BA C8BA C85 103.7(13) . .
C6BA C8BA C9BA 123.2(12) . .
C6 N2 Zn1 118.0(12) . .
C6 N2 C11 122.9(15) . .
C11 N2 Zn1 118.1(11) . .
N2 C6 C8 114.8(16) . .
C6 C8 C13 131(2) . .
C11 C10 C13 125.8(18) . .
C10 C11 N2 117.4(18) . .
C10 C13 C8 106.7(16) . .
loop_
_geom_bond_atom_site_label_1
_geom_bond_atom_site_label_2
_geom_bond_distance
_geom_bond_site_symmetry_2
Zn1 N13 2.053(8) .
Zn1 N39 2.059(6) .
Zn1 N57 2.061(7) .
Zn1 N70 2.056(7) .
Zn1 N2 2.145(9) .
Zn3 N16 2.050(5) .
Zn3 N16 2.050(5) 2_575
Zn3 N6 2.035(5) 2_575
Zn3 N6 2.035(5) .
C1 C32 1.532(6) .
C4 C23 1.407(8) .
C4 C51 1.361(9) .
C5BA C21 1.514(12) .
C5BA C3AA 1.455(14) .
C5BA C69 1.482(14) .
C5BA C4BA 1.51(2) .
C1BA C32 1.538(9) .
C2BA C3CA 1.444(12) .
N0AA C28 1.341(9) .
N0AA C62 1.388(8) .
N13 C7AA 1.365(10) .
N13 C8AA 1.390(12) .
N16 C68 1.360(8) .
N16 C24 1.387(7) .
C18 C41 1.395(7) .
C18 C46 1.404(8) .
C18 C9AA 1.533(7) .
C20 C28 1.458(10) .
C20 C68 1.413(8) .
C20 C75 1.390(8) .
C21 C55 1.420(10) .
C21 C0CA 1.387(9) .
C23 C36 1.361(11) .
C23 C77 1.514(10) .
C25 C55 1.365(10) .
C25 C65 1.409(10) .
C25 C3CA 1.522(11) .
C28 C30 1.380(10) .
C30 C73 1.398(12) .
C32 C38 1.521(9) .
C32 C48 1.518(8) .
C36 C0AA 1.374(12) .
N39 C45 1.359(10) .
N39 C74 1.367(9) .
C41 C44 1.388(8) .
C44 C71 1.370(8) .
C44 C4AA 1.510(6) .
C46 C48 1.387(7) .
C48 C71 1.409(6) .
C49 C62 1.492(11) .
C49 C2AA 1.393(9) .
C49 C45 1.398(10) .
C51 C29 1.386(10) .
C51 C78 1.503(8) .
N57 C2AA 1.363(10) .
N57 C88 1.406(8) .
C60 C2CA 1.356(13) .
C60 C8AA 1.420(13) .
C62 C73 1.327(11) .
C63 C8AA 1.378(12) .
C63 C53 1.391(13) .
C65 C26 1.373(10) .
C68 C4CA 1.419(8) .
N70 C53 1.337(12) .
N70 C95 1.391(10) .
C75 N6 1.374(9) 2_575
C75 C33 1.439(8) 2_575
C77 C19 1.565(10) .
C77 C57 1.450(14) .
C77 C94 1.465(13) .
C1CA C0BA 1.315(11) .
C1CA C74 1.444(11) .
C4CA C6AA 1.337(9) .
N6 C75 1.374(9) 2_575
N6 C98 1.385(7) .
C0CA C26 1.340(10) .
C9AA C5AA 1.496(11) .
C9AA C3BA 1.517(11) .
C9AA C84 1.481(11) .
C2CA C7AA 1.456(14) .
C3CA C5CA 1.622(18) .
C3CA C7BA 1.445(14) .
C22 C2AA 1.417(10) .
C22 C90 1.363(10) .
C24 C6AA 1.436(9) .
C24 C4AA 1.373(9) .
C26 C56 1.521(9) .
C29 C0AA 1.382(12) .
C33 C75 1.439(8) 2_575
C33 C76 1.359(10) .
C7AA C56 1.370(12) .
C45 C0BA 1.454(9) .
C1AA C52 1.332(13) .
C1AA C95 1.463(12) .
C52 C53 1.442(12) .
C56 C74 1.389(11) .
C0AA C8BA 1.567(12) .
C4AA C98 1.414(9) .
C76 C98 1.436(9) .
C78 C88 1.365(10) .
C78 C95 1.366(12) .
C85 C8BA 1.58(2) .
C88 C90 1.424(11) .
C8BA C9BA 1.481(14) .
C8BA C6BA 1.369(17) .
N2 C6 1.208(17) .
N2 C11 1.392(15) .
C6 C8 1.29(2) .
C8 C13 1.376(18) .
C10 C11 1.272(18) .
C10 C13 1.349(19) .
