#------------------------------------------------------------------------------
#$Date: 2019-11-17 06:00:04 +0200 (Sun, 17 Nov 2019) $
#$Revision: 228273 $
#$URL: file:///home/coder/svn-repositories/cod/cif/7/12/21/7122133.cif $
#------------------------------------------------------------------------------
#
# This file is available in the Crystallography Open Database (COD),
# http://www.crystallography.net/
#
# All data on this site have been placed in the public domain by the
# contributors.
#
data_7122133
loop_
_publ_author_name
'Patra, Bratati'
'Sobottka, Sebastian'
'Mondal, Sruti'
'Sarkar, Biprajit'
'Kar, Sanjib'
_publ_section_title
;
 Metal coordination induced ring contraction of porphyrin derivatives.
;
_journal_issue                   71
_journal_name_full
'Chemical communications (Cambridge, England)'
_journal_page_first              9945
_journal_page_last               9948
_journal_paper_doi               10.1039/c8cc04670k
_journal_volume                  54
_journal_year                    2018
_chemical_formula_moiety         '3(C43 H25 Ag Fe N6)'
_chemical_formula_sum            'C129 H75 Ag3 Fe3 N18'
_chemical_formula_weight         2368.23
_space_group_crystal_system      triclinic
_space_group_IT_number           2
_space_group_name_Hall           '-P 1'
_space_group_name_H-M_alt        'P -1'
_symmetry_space_group_name_Hall  '-P 1'
_symmetry_space_group_name_H-M   'P -1'
_atom_sites_solution_hydrogens   geom
_atom_sites_solution_primary     dual
_audit_creation_date             2018-01-23
_audit_creation_method
;
Olex2 1.2-ac3
(compiled 2017.02.24 svn.r3390 for Rigaku Oxford Diffraction, GUI svn.r5318)
;
_audit_update_record
;
2018-05-10 deposited with the CCDC.
2018-08-09 downloaded from the CCDC.
;
_cell_angle_alpha                99.222(2)
_cell_angle_beta                 104.379(2)
_cell_angle_gamma                117.221(4)
_cell_formula_units_Z            2
_cell_length_a                   18.4767(6)
_cell_length_b                   18.7775(7)
_cell_length_c                   19.6170(5)
_cell_measurement_reflns_used    34265
_cell_measurement_temperature    298(2)
_cell_measurement_theta_max      77.1110
_cell_measurement_theta_min      2.7650
_cell_volume                     5558.5(4)
_computing_molecular_graphics    'Olex2 (Dolomanov et al., 2009)'
_computing_publication_material  'Olex2 (Dolomanov et al., 2009)'
_computing_structure_refinement  'ShelXL (Sheldrick, 2015)'
_computing_structure_solution    'ShelXT (Sheldrick, 2015)'
_diffrn_ambient_temperature      298(2)
_diffrn_detector                 'CCD plate'
_diffrn_detector_type            'Pilatus 200K'
_diffrn_measured_fraction_theta_full 0.999
_diffrn_measured_fraction_theta_max 0.999
_diffrn_measurement_details
;
List of Runs (angles in degrees, time in seconds):

  # Type    Start    End  Width  t~exp~   \w     \q     \k     \f   Frames
#--------------------------------------------------------------------------
  1  \w    -42.00  30.00   0.50    4.00    --  -38.50  29.00  98.00  144
  2  \w   -101.00 -58.00   0.50    4.00    --  -38.50 -29.00 -61.00   86
  3  \w    -17.00  35.00   0.50    4.00    --   49.06 -29.00 -61.00  104
  4  \w     64.00 109.00   0.50    4.00    --   49.06  29.00  98.00   90
  5  \w     38.00 108.00   0.50   16.00    --  106.38 -29.00 -61.00  140
  6  \w    104.00 173.00   0.50   16.00    --  106.38  29.00  98.00  138
  7  \w   -100.00 -32.00   0.50    4.00    --  -38.50 -57.00 -90.00  136
  8  \w   -105.00 -38.00   0.50    4.00    --  -38.50 -19.00 -30.00  134
  9  \w    -77.00  -6.00   0.50    4.00    --  -38.50 125.00  30.00  142
 10  \w     56.00 100.00   0.50    4.00    --   49.06-125.00   0.00   88
 11  \w     26.00  97.00   0.50    4.00    --   49.06-125.00-150.00  142
 12  \w      2.00  49.00   0.50    4.00    --   49.06 -37.00-150.00   94
 13  \w     48.00 130.00   0.50   16.00    --  106.38 -77.00-180.00  164
 14  \w     45.00 113.00   0.50   16.00    --  106.38 -61.00  30.00  136
 15  \w    136.00 170.00   0.50   16.00    --  106.38 125.00   0.00   68
 16  \w     44.00  91.00   0.50   16.00    --  106.38 -61.00 -90.00   94
 17  \w    112.00 154.00   0.50   16.00    --  106.38  45.00 120.00   84
 18  \w     46.00  73.00   0.50   16.00    --  106.38 -30.00-150.00   54
 19  \w     66.00 122.00   0.50   16.00    --  106.38-125.00 -60.00  112
 20  \w     81.00 109.00   0.50   16.00    --  106.38 -94.00  60.00   56
 21  \w     45.00  72.00   0.50   16.00    --  106.38 -94.00-180.00   54
 22  \w     49.00 102.00   0.50   16.00    --  106.38 -94.00 -30.00  106
 23  \w     43.00 111.00   0.50   16.00    --  106.38 -45.00 -60.00  136
 24  \w     43.00 111.00   0.50   16.00    --  106.38 -45.00-180.00  136
 25  \w    118.00 145.00   0.50   16.00    --  106.38  30.00  60.00   54
 26  \w     45.00 111.00   0.50   16.00    --  106.38 -45.00  30.00  132
 27  \w     38.00 115.00   0.50   16.00    --  106.38 -15.00  90.00  154
 28  \w     50.00  94.00   0.50   16.00    --  106.38 -77.00 -30.00   88
 29  \w     41.00 105.00   0.50   16.00    --  106.38 -30.00  90.00  128
 30  \w    103.00 171.00   0.50   16.00    --  106.38  45.00  60.00  136
 31  \w    105.00 135.00   0.50   16.00    --  106.38  45.00 -30.00   60
 32  \w     84.00 109.00   0.50   16.00    --  106.38 -30.00-150.00   50
 33  \w     42.00 119.00   0.50   16.00    --  106.38-125.00-120.00  154
 34  \w     96.00 134.00   0.50   16.00    --  106.38 125.00   0.00   76
 35  \w     76.00 103.00   0.50   16.00    --  106.38 -45.00 150.00   54
 36  \w     87.00 119.00   0.50   16.00    --  106.38-125.00  60.00   64
 37  \w     77.00 104.00   0.50   16.00    --  106.38 -94.00 120.00   54
;
_diffrn_measurement_device       'four-circle diffractometer'
_diffrn_orient_matrix_type
'CrysAlisPro convention (1999,Acta A55,543-557)'
_diffrn_orient_matrix_UB_11      0.0741563000
_diffrn_orient_matrix_UB_12      0.0345284000
_diffrn_orient_matrix_UB_13      -0.0304721000
_diffrn_orient_matrix_UB_21      -0.0168437000
_diffrn_orient_matrix_UB_22      0.0712668000
_diffrn_orient_matrix_UB_23      -0.0109202000
_diffrn_orient_matrix_UB_31      0.0661233000
_diffrn_orient_matrix_UB_32      0.0565514000
_diffrn_orient_matrix_UB_33      0.0791444000
_diffrn_radiation_monochromator  mirror
_diffrn_radiation_probe          x-ray
_diffrn_radiation_type           CuK\a
_diffrn_radiation_wavelength     1.54184
_diffrn_reflns_av_R_equivalents  0.0584
_diffrn_reflns_av_unetI/netI     0.0508
_diffrn_reflns_Laue_measured_fraction_full 0.999
_diffrn_reflns_Laue_measured_fraction_max 0.999
_diffrn_reflns_limit_h_max       21
_diffrn_reflns_limit_h_min       -22
_diffrn_reflns_limit_k_max       22
_diffrn_reflns_limit_k_min       -22
_diffrn_reflns_limit_l_max       23
_diffrn_reflns_limit_l_min       -14
_diffrn_reflns_number            63640
_diffrn_reflns_point_group_measured_fraction_full 0.999
_diffrn_reflns_point_group_measured_fraction_max 0.999
_diffrn_reflns_theta_full        66.999
_diffrn_reflns_theta_max         66.999
_diffrn_reflns_theta_min         2.452
_diffrn_source_type              'SuperNova (Cu) X-ray Source'
_exptl_absorpt_coefficient_mu    7.677
_exptl_absorpt_correction_T_max  1.00000
_exptl_absorpt_correction_T_min  0.32705
_exptl_absorpt_correction_type   multi-scan
_exptl_crystal_colour            violet
_exptl_crystal_colour_primary    violet
_exptl_crystal_density_diffrn    1.415
_exptl_crystal_description       needle
_exptl_crystal_F_000             2388
_exptl_crystal_size_max          0.2
_exptl_crystal_size_mid          0.15
_exptl_crystal_size_min          0.12
_refine_diff_density_max         2.510
_refine_diff_density_min         -1.320
_refine_diff_density_rms         0.094
_refine_ls_extinction_method     none
_refine_ls_goodness_of_fit_ref   1.169
_refine_ls_hydrogen_treatment    constr
_refine_ls_matrix_type           full
_refine_ls_number_parameters     1378
_refine_ls_number_reflns         19796
_refine_ls_number_restraints     0
_refine_ls_restrained_S_all      1.169
_refine_ls_R_factor_all          0.0604
_refine_ls_R_factor_gt           0.0533
_refine_ls_shift/su_max          0.002
_refine_ls_shift/su_mean         0.000
_refine_ls_structure_factor_coef Fsqd
_refine_ls_weighting_details
'w=1/[\s^2^(Fo^2^)+(0.1000P)^2^] where P=(Fo^2^+2Fc^2^)/3'
_refine_ls_weighting_scheme      calc
_refine_ls_wR_factor_gt          0.1551
_refine_ls_wR_factor_ref         0.1585
_reflns_Friedel_coverage         0.000
_reflns_number_gt                16557
_reflns_number_total             19796
_reflns_threshold_expression     'I > 2\s(I)'
_cod_data_source_file            c8cc04670k2.cif
_cod_data_source_block           skar_fer_ag1
_cod_depositor_comments
'Adding full bibliography for 7122132--7122133.cif.'
_cod_database_code               7122133
_shelx_shelxl_version_number     2014/7
_chemical_oxdiff_formula         'C246 H172 Ag6 Fe6 N62 '
_shelx_space_group_comment
;
The symmetry employed for this shelxl refinement is uniquely defined
by the following loop, which should always be used as a source of
symmetry information in preference to the above space-group names.
They are only intended as comments.
;
_diffrn_oxdiff_ac3_digest_frames
;
01cadc4385ce8e85668056279266ee080d00026fea7
;
_diffrn_oxdiff_ac3_digest_hkl
;
0137b3052fe83395b2a64bef27b17d7484f2af
;
_reflns_odcompleteness_completeness 99.95
_reflns_odcompleteness_iscentric 1
_reflns_odcompleteness_theta     66.97
_olex2_refinement_description
;
1. Fixed Uiso
 At 1.2 times of:
  All C(H) groups
2.a Aromatic/amide H refined with riding coordinates:
 C3A(H3A), C12(H12), C13(H13), C17(H17), C12B(H12B), C42(H42), C2A(H2A),
 C17B(H17B), C3(H3), C2(H2), C3B(H3B), C28B(H28B), C18A(H18A), C17A(H17A),
 C8(H8), C8B(H8B), C18(H18), C38(H38), C7A(H7A), C8A(H8A), C38B(H38B),
 C28A(H28A), C7B(H7B), C25(H25), C13A(H13A), C41(H41), C42A(H42A), C13B(H13B),
 C39(H39), C7(H7), C31A(H31A), C42B(H42B), C21A(H21A), C39A(H39A), C41A(H41A),
 C41B(H41B), C24A(H24A), C25A(H25A), C2B(H2B), C28(H28), C31B(H31B), C24(H24),
 C18B(H18B), C25B(H25B), C38A(H38A), C12A(H12A), C30A(H30A), C22A(H22A),
 C29B(H29B), C39B(H39B), C31(H31), C35B(H35B), C34B(H34B), C33B(H33B),
 C29A(H29A), C36B(H36B), C24B(H24B), C21B(H21B), C29(H29), C32B(H32B), C21(H21),
  C34(H34), C22B(H22B), C30(H30), C30B(H30B), C36(H36), C22(H22), C33(H33),
 C35A(H35A), C35(H35), C32(H32), C32A(H32A), C34A(H34A), C33A(H33A), C36A(H36A)
;
_shelx_res_file
;
    skar_fer_ag1.res created by SHELXL-2014/7

TITL skar_fer_ag1_a.res in P-1
REM Old TITL
REM SHELXT solution in P-1
REM R1 0.120, Rweak 0.007, Alpha 0.133, Orientation as input
REM Formula found by SHELXT: C130 Ag3 Fe3 N18 O5 B
CELL 1.54184 18.4767 18.7775 19.617 99.222 104.379 117.221
ZERR 2 0.0006 0.0007 0.0005 0.002 0.002 0.004
LATT 1
SFAC C H Ag Fe N
UNIT 258 150 6 6 36

L.S. 10
PLAN  5
BOND $H
list 4
ABIN
fmap 2
acta
OMIT 0 134
OMIT 4 10 5
OMIT -1 3 2
OMIT -6 -3 6
OMIT -2 -13 8
OMIT 5 13 6
OMIT 1 15 0
OMIT 1 3 1
OMIT -2 -5 10
OMIT 7 2 3
REM <olex2.extras>
REM <HklSrc "%.\\SKAR_FER_AG1.hkl">
REM </olex2.extras>

WGHT    0.100000
FVAR       0.12042
AG1A  3    0.677219    0.334480    0.717708    11.00000    0.04367    0.04016 =
         0.04176    0.01589    0.01576    0.02250
AG1   3    0.900769    0.394881    0.923761    11.00000    0.04552    0.03784 =
         0.03862    0.01618    0.01676    0.02371
AG1B  3    0.599459    0.078667    0.594937    11.00000    0.05397    0.04312 =
         0.03867    0.01547    0.01678    0.02536
FE1B  4    0.433644   -0.129475    0.806927    11.00000    0.06432    0.05425 =
         0.04480    0.02444    0.02227    0.03362
FE1A  4    0.508772    0.572160    0.682376    11.00000    0.05371    0.05007 =
         0.06658    0.01967    0.02366    0.03155
FE1   4    1.180508    0.412492    0.774609    11.00000    0.06177    0.06710 =
         0.05829    0.02242    0.02955    0.03800
N1    5    0.827354    0.308940    0.958601    11.00000    0.05065    0.03569 =
         0.04573    0.02401    0.02290    0.02262
N3A   5    0.570540    0.331616    0.719929    11.00000    0.04584    0.04336 =
         0.04329    0.01884    0.01747    0.02552
N4A   5    0.659599    0.250535    0.768104    11.00000    0.05016    0.04204 =
         0.04460    0.01643    0.01667    0.02408
N3    5    0.957977    0.480339    0.879337    11.00000    0.05066    0.03794 =
         0.03714    0.01714    0.01650    0.02408
N3B   5    0.492885    0.060646    0.610623    11.00000    0.05946    0.04916 =
         0.04058    0.02015    0.01729    0.03384
N2    5    0.982148    0.353041    0.929783    11.00000    0.04611    0.04292 =
         0.03890    0.01358    0.01132    0.02463
N1A   5    0.771552    0.316433    0.711633    11.00000    0.04837    0.05234 =
         0.04813    0.01941    0.01858    0.02863
N2B   5    0.613619    0.002014    0.646517    11.00000    0.05214    0.03806 =
         0.04111    0.01239    0.01680    0.02338
N2A   5    0.716779    0.427205    0.675739    11.00000    0.04444    0.04221 =
         0.03995    0.01581    0.01544    0.02102
N4    5    0.818700    0.430722    0.932067    11.00000    0.05100    0.04759 =
         0.04405    0.01704    0.01985    0.02954
N4B   5    0.595198    0.151194    0.535281    11.00000    0.06135    0.05144 =
         0.04206    0.02187    0.02077    0.02676
N1B   5    0.709600    0.113952    0.580239    11.00000    0.07023    0.05982 =
         0.04875    0.02180    0.02482    0.03573
C4    1    0.834786    0.245026    0.979368    11.00000    0.04770    0.04192 =
         0.03996    0.01343    0.01242    0.02053
C9    1    1.045943    0.379263    0.900964    11.00000    0.04482    0.04728 =
         0.03432    0.01602    0.00807    0.02659
C9B   1    0.558665   -0.041014    0.679633    11.00000    0.06141    0.04352 =
         0.04075    0.01389    0.01948    0.03428
C16   1    0.802515    0.485034    0.901865    11.00000    0.05235    0.04341 =
         0.03935    0.01423    0.01713    0.02898
C16A  1    0.591318    0.204973    0.787647    11.00000    0.05049    0.04295 =
         0.04225    0.01903    0.01626    0.02380
C11B  1    0.445072   -0.003504    0.635986    11.00000    0.05041    0.04131 =
         0.03368    0.01153    0.01058    0.02329
C5A   1    0.844374    0.422940    0.658894    11.00000    0.04718    0.04940 =
         0.03567    0.00844    0.01495    0.02392
C10   1    1.073178    0.449938    0.873420    11.00000    0.04388    0.04436 =
         0.03412    0.01072    0.01029    0.02010
C3A   1    0.897384    0.329960    0.713656    11.00000    0.04303    0.05212 =
         0.04902    0.01272    0.01647    0.02707
AFIX  43
H3A   2    0.949852    0.347143    0.706188    11.00000   -1.20000
AFIX   0
C15A  1    0.524572    0.223176    0.784960    11.00000    0.04435    0.04323 =
         0.03848    0.01225    0.01326    0.01860
C10A  1    0.591607    0.448111    0.666965    11.00000    0.04790    0.04193 =
         0.04125    0.01381    0.01573    0.02427

C12   1    1.067973    0.580843    0.858007    11.00000    0.04862    0.04342 =
         0.04137    0.01625    0.01533    0.01994
AFIX  43
H12   2    1.120071    0.610843    0.850588    11.00000   -1.20000
AFIX   0

C9A   1    0.665673    0.459750    0.649573    11.00000    0.05031    0.03833 =
         0.03768    0.01015    0.01379    0.02074
C13   1    1.009972    0.605795    0.858736    11.00000    0.05377    0.04113 =
         0.04614    0.01749    0.01587    0.02437
AFIX  43
H13   2    1.016200    0.655983    0.852180    11.00000   -1.20000
AFIX   0

C20A  1    0.918858    0.460384    0.633506    11.00000    0.04480    0.04927 =
         0.04505    0.01416    0.01384    0.02375
C15   1    0.863183    0.542966    0.875983    11.00000    0.05513    0.04240 =
         0.03945    0.01346    0.01615    0.02820
C11A  1    0.551359    0.391888    0.704924    11.00000    0.04646    0.04064 =
         0.03723    0.00694    0.01122    0.02103
C1    1    0.760663    0.314083    0.972190    11.00000    0.04483    0.05067 =
         0.04160    0.01898    0.01657    0.02393
C6A   1    0.781193    0.447598    0.646688    11.00000    0.04978    0.04387 =
         0.03924    0.01623    0.01562    0.02250
C14A  1    0.521119    0.287400    0.757285    11.00000    0.04422    0.04497 =
         0.04093    0.01195    0.01535    0.02012
C27A  1    0.549249    0.494043    0.638151    11.00000    0.06104    0.05141 =
         0.04599    0.02013    0.02181    0.03286
C14   1    0.937667    0.543093    0.871138    11.00000    0.05364    0.03863 =
         0.03453    0.01435    0.01475    0.02641
C4A   1    0.840841    0.361063    0.692606    11.00000    0.04547    0.04575 =
         0.04396    0.00973    0.01664    0.02276
C16B  1    0.544068    0.184729    0.525602    11.00000    0.06253    0.04415 =
         0.03644    0.01427    0.00871    0.02557
C37   1    0.846039    0.607109    0.853837    11.00000    0.04509    0.03526 =
         0.04009    0.00733    0.00717    0.02128
C20   1    0.898419    0.153351    0.985323    11.00000    0.05128    0.04152 =
         0.05014    0.02094    0.01816    0.02492
C5    1    0.900449    0.230630    0.969876    11.00000    0.05485    0.04239 =
         0.04471    0.01713    0.01635    0.02803
C27   1    1.148358    0.475580    0.849212    11.00000    0.04656    0.04805 =
         0.05056    0.01637    0.01816    0.02362
C37A  1    0.459007    0.173871    0.814470    11.00000    0.04988    0.05156 =
         0.04743    0.02184    0.02061    0.02881
C11   1    1.036205    0.501237    0.870445    11.00000    0.04619    0.03705 =
         0.04205    0.01389    0.01808    0.01668
C14B  1    0.441113    0.088798    0.575958    11.00000    0.06199    0.04784 =
         0.03553    0.01385    0.01507    0.03319
C17   1    0.719001    0.466971    0.902938    11.00000    0.05526    0.05271 =
         0.05039    0.01977    0.01924    0.03553
AFIX  43
H17   2    0.690208    0.494118    0.886268    11.00000   -1.20000
AFIX   0
C6    1    0.965681    0.279442    0.944413    11.00000    0.05239    0.04420 =
         0.03721    0.01395    0.01176    0.03025

C10B  1    0.476992   -0.047943    0.673456    11.00000    0.05758    0.04438 =
         0.02818    0.00830    0.01043    0.02766
C19   1    0.750805    0.378961    0.949950    11.00000    0.05207    0.04760 =
         0.04534    0.01612    0.02045    0.02606
C12B  1    0.360165   -0.014246    0.617492    11.00000    0.04839    0.04605 =
         0.04244    0.01560    0.01201    0.02178
AFIX  43
H12B  2    0.314165   -0.052688    0.628263    11.00000   -1.20000
AFIX   0

C42   1    0.853821    0.624775    0.788398    11.00000    0.05739    0.04620 =
         0.04334    0.01046    0.00979    0.03052
AFIX  43
H42   2    0.868045    0.594159    0.757842    11.00000   -1.20000
AFIX   0

C19A  1    0.713595    0.219659    0.772321    11.00000    0.05399    0.04308 =
         0.04543    0.01174    0.01445    0.02838
C2A   1    0.861687    0.270588    0.746698    11.00000    0.04903    0.05253 =
         0.04045    0.01043    0.00898    0.02996
AFIX  43
H2A   2    0.886116    0.241120    0.766061    11.00000   -1.20000
AFIX   0

C6B   1    0.691508    0.002890    0.669980    11.00000    0.06056    0.04293 =
         0.04427    0.00825    0.01543    0.03075
C27B  1    0.418775   -0.105861    0.705136    11.00000    0.05277    0.04846 =
         0.04254    0.02000    0.01536    0.02561
C17B  1    0.588403    0.254629    0.499627    11.00000    0.07437    0.04602 =
         0.04931    0.02383    0.01603    0.02822
AFIX  43
H17B  2    0.568835    0.290202    0.487275    11.00000   -1.20000
AFIX   0

C3    1    0.767081    0.206799    1.006528    11.00000    0.05448    0.04672 =
         0.05276    0.02397    0.01834    0.02337
AFIX  43
H3    2    0.755008    0.161057    1.024136    11.00000   -1.20000
AFIX   0

C37B  1    0.407699    0.183668    0.517731    11.00000    0.06228    0.04081 =
         0.03961    0.01360    0.00569    0.02153
C2    1    0.721932    0.248355    1.002653    11.00000    0.05241    0.05256 =
         0.05283    0.02562    0.02467    0.02429
AFIX  43
H2    2    0.674485    0.235778    1.017327    11.00000   -1.20000
AFIX   0

C1A   1    0.781134    0.261565    0.746439    11.00000    0.05337    0.04012 =
         0.04166    0.00661    0.01298    0.02679
C3B   1    0.833361    0.133034    0.569857    11.00000    0.05794    0.05494 =
         0.05823    0.00576    0.01745    0.02529
AFIX  43
H3B   2    0.882696    0.129350    0.574021    11.00000   -1.20000
AFIX   0

C40   1    0.818974    0.731280    0.813810    11.00000    0.05549    0.04485 =
         0.05450    0.01454    0.00576    0.02824
C5B   1    0.761188    0.039542    0.646309    11.00000    0.05750    0.04917 =
         0.04494    0.00610    0.01517    0.02876
C4B   1    0.769941    0.091804    0.601187    11.00000    0.05687    0.05796 =
         0.04249    0.00967    0.01766    0.03305
C15B  1    0.467896    0.152991    0.541339    11.00000    0.06203    0.04701 =
         0.03909    0.01452    0.01158    0.03137
C28B  1    0.393218   -0.191736    0.695157    11.00000    0.07432    0.04869 =
         0.04530    0.01366    0.01583    0.02716
AFIX  43
H28B  2    0.416451   -0.220012    0.673994    11.00000   -1.20000
AFIX   0

C18A  1    0.679737    0.150507    0.800032    11.00000    0.06071    0.03869 =
         0.04475    0.01524    0.01455    0.02860
AFIX  43
H18A  2    0.704043    0.117761    0.809906    11.00000   -1.20000
AFIX   0
C17A  1    0.605380    0.140608    0.809594    11.00000    0.05729    0.04022 =
         0.04817    0.01847    0.02122    0.02253
AFIX  43
H17A  2    0.570037    0.099951    0.827034    11.00000   -1.20000
AFIX   0

C8    1    1.075303    0.321672    0.900350    11.00000    0.05546    0.06024 =
         0.04605    0.02104    0.02058    0.03616
AFIX  43
H8    2    1.119851    0.324727    0.884606    11.00000   -1.20000
AFIX   0

C8B   1    0.601617   -0.074752    0.724256    11.00000    0.06776    0.04603 =
         0.05162    0.02070    0.02380    0.03562
AFIX  43
H8B   2    0.578792   -0.108607    0.752239    11.00000   -1.20000
AFIX   0

C18   1    0.688330    0.402591    0.932815    11.00000    0.04925    0.05598 =
         0.05558    0.01934    0.02477    0.02974
AFIX  43
H18   2    0.635582    0.378954    0.940313    11.00000   -1.20000
AFIX   0
C38   1    0.822335    0.652252    0.897958    11.00000    0.05860    0.04740 =
         0.04836    0.01637    0.01521    0.03106
AFIX  43
H38   2    0.815506    0.640766    0.941087    11.00000   -1.20000
AFIX   0

C7A   1    0.772122    0.497792    0.601128    11.00000    0.05945    0.05311 =
         0.04242    0.02004    0.02276    0.02809
AFIX  43
H7A   2    0.807548    0.521165    0.574822    11.00000   -1.20000
AFIX   0

C19B  1    0.669831    0.194978    0.519777    11.00000    0.06672    0.05220 =
         0.03882    0.01582    0.02019    0.02588
C8A   1    0.703400    0.505287    0.602974    11.00000    0.06235    0.05255 =
         0.04710    0.02304    0.02134    0.03463
AFIX  43
H8A   2    0.683618    0.534972    0.578231    11.00000   -1.20000
AFIX   0

C38B  1    0.385676    0.188271    0.445588    11.00000    0.07263    0.05711 =
         0.04406    0.02291    0.00987    0.02966
AFIX  43
H38B  2    0.409768    0.172843    0.413947    11.00000   -1.20000
AFIX   0

C28A  1    0.589929    0.574413    0.627787    11.00000    0.07078    0.05992 =
         0.07909    0.03591    0.04112    0.04344
AFIX  43
H28A  2    0.649883    0.612707    0.645511    11.00000   -1.20000
AFIX   0

C7B   1    0.680047   -0.048958    0.718486    11.00000    0.06820    0.06171 =
         0.04880    0.02353    0.02055    0.04387
AFIX  43
H7B   2    0.720463   -0.062182    0.741800    11.00000   -1.20000
AFIX   0
C20B  1    0.837363    0.029270    0.675803    11.00000    0.05071    0.04838 =
         0.06469    0.01455    0.02100    0.02463

C25   1    0.955054    0.160312    1.049741    11.00000    0.06549    0.04169 =
         0.06119    0.01580    0.00612    0.02442
AFIX  43
H25   2    0.995061    0.213292    1.084825    11.00000   -1.20000
AFIX   0
C23   1    0.893827    0.011387    1.011965    11.00000    0.06893    0.04697 =
         0.06492    0.02443    0.02483    0.03631

C13A  1    0.464609    0.319486    0.762997    11.00000    0.05729    0.06276 =
         0.05896    0.02619    0.03082    0.03511
AFIX  43
H13A  2    0.422419    0.300638    0.784319    11.00000   -1.20000
AFIX   0

C41   1    0.841024    0.686082    0.768101    11.00000    0.06000    0.04931 =
         0.04742    0.02141    0.01336    0.02977
AFIX  43
H41   2    0.846965    0.697223    0.724653    11.00000   -1.20000
AFIX   0

C42A  1    0.369811    0.125295    0.771623    11.00000    0.05520    0.06246 =
         0.04467    0.02616    0.02102    0.03229
AFIX  43
H42A  2    0.349861    0.129773    0.725003    11.00000   -1.20000
AFIX   0

C13B  1    0.357975    0.041005    0.581627    11.00000    0.05206    0.05843 =
         0.04259    0.01800    0.00931    0.03180
AFIX  43
H13B  2    0.310108    0.046845    0.563632    11.00000   -1.20000
AFIX   0

C39   1    0.808925    0.713987    0.877966    11.00000    0.06820    0.05357 =
         0.05524    0.00821    0.01287    0.04190
AFIX  43
H39   2    0.793183    0.743787    0.907628    11.00000   -1.20000
AFIX   0
C7    1    1.027333    0.261361    0.926641    11.00000    0.06323    0.05343 =
         0.04837    0.02080    0.01994    0.04046
AFIX  43
H7    2    1.033393    0.215888    0.932215    11.00000   -1.20000
AFIX   0

C31A  1    0.457795    0.458933    0.603334    11.00000    0.05759    0.05118 =
         0.05355    0.00934    0.00668    0.02813
AFIX  43
H31A  2    0.414187    0.406691    0.601572    11.00000   -1.20000
AFIX   0

C42B  1    0.370555    0.207505    0.563738    11.00000    0.06512    0.04903 =
         0.05208    0.01537    0.00861    0.02953
AFIX  43
H42B  2    0.384611    0.205419    0.612014    11.00000   -1.20000
AFIX   0

C40A  1    0.339902    0.064066    0.866431    11.00000    0.06360    0.07236 =
         0.07547    0.04543    0.04250    0.04486
C21A  1    0.934657    0.408724    0.588008    11.00000    0.06454    0.05303 =
         0.05999    0.01128    0.02862    0.02773
AFIX  43
H21A  2    0.894173    0.350945    0.569324    11.00000   -1.20000
AFIX   0
C39A  1    0.426893    0.114403    0.911341    11.00000    0.07263    0.09200 =
         0.05358    0.04044    0.03234    0.05260
AFIX  43
H39A  2    0.445945    0.112082    0.959041    11.00000   -1.20000
AFIX   0
C41A  1    0.310937    0.071065    0.796852    11.00000    0.05274    0.06929 =
         0.06571    0.03178    0.02285    0.03298
AFIX  43
H41A  2    0.251736    0.039054    0.767399    11.00000   -1.20000
AFIX   0

C41B  1    0.313634    0.234010    0.539285    11.00000    0.06330    0.05229 =
         0.07499    0.01802    0.01496    0.03046
AFIX  43
H41B  2    0.289632    0.249776    0.570828    11.00000   -1.20000
AFIX   0

C24A  1    1.053860    0.579585    0.641213    11.00000    0.06462    0.05110 =
         0.06654    0.02137    0.02836    0.01814
AFIX  43
H24A  2    1.093811    0.637476    0.658623    11.00000   -1.20000
AFIX   0
C25A  1    0.979860    0.547354    0.657913    11.00000    0.06474    0.04742 =
         0.05478    0.01611    0.02712    0.02782
AFIX  43
H25A  2    0.969783    0.584110    0.686191    11.00000   -1.20000
AFIX   0

C2B   1    0.808994    0.179251    0.532367    11.00000    0.06959    0.05162 =
         0.05877    0.00961    0.03406    0.01922
AFIX  43
H2B   2    0.839215    0.212535    0.507124    11.00000   -1.20000
AFIX   0

C23A  1    1.069089    0.525300    0.598017    11.00000    0.05811    0.06775 =
         0.05264    0.02937    0.02733    0.02778
C40B  1    0.292193    0.237117    0.467362    11.00000    0.06350    0.05873 =
         0.09226    0.04405    0.00819    0.02683
C28   1    1.230787    0.484811    0.883891    11.00000    0.04681    0.07052 =
         0.05876    0.01163    0.01515    0.03075
AFIX  43
H28   2    1.244937    0.468112    0.924889    11.00000   -1.20000
AFIX   0

C31B  1    0.367865   -0.088247    0.741208    11.00000    0.06831    0.07869 =
         0.06108    0.04030    0.02870    0.04632
AFIX  43
H31B  2    0.372314   -0.036288    0.755533    11.00000   -1.20000
AFIX   0

N6    5    0.795337    0.848200    0.778926    11.00000    0.12295    0.07655 =
         0.11107    0.04127    0.02140    0.06969
C24   1    0.953752    0.090069    1.063455    11.00000    0.06511    0.05012 =
         0.06995    0.02443    0.00680    0.02946
AFIX  43
H24   2    0.993063    0.095752    1.107176    11.00000   -1.20000
AFIX   0

C18B  1    0.663667    0.260064    0.496129    11.00000    0.06582    0.05071 =
         0.05120    0.02116    0.01650    0.01791
AFIX  43
H18B  2    0.703727    0.299524    0.480912    11.00000   -1.20000
AFIX   0
C25B  1    0.888272    0.065099    0.751001    11.00000    0.08095    0.07275 =
         0.06675    0.01333    0.01547    0.05026
AFIX  43
H25B  2    0.874701    0.095237    0.782727    11.00000   -1.20000
AFIX   0

N5    5    0.893298   -0.118984    1.038784    11.00000    0.13584    0.06595 =
         0.09477    0.03130    0.02642    0.06492
C38A  1    0.485338    0.167978    0.885461    11.00000    0.05404    0.07014 =
         0.04553    0.02353    0.01701    0.02740
AFIX  43
H38A  2    0.544118    0.201309    0.915994    11.00000   -1.20000
AFIX   0

C1B   1    0.730225    0.167351    0.538894    11.00000    0.06359    0.05047 =
         0.04619    0.01207    0.02246    0.02054
C12A  1    0.483921    0.382072    0.731734    11.00000    0.06278    0.06232 =
         0.06133    0.03214    0.03082    0.04292
AFIX  43
H12A  2    0.457110    0.413604    0.728412    11.00000   -1.20000
AFIX   0
C30A  1    0.443960    0.516113    0.571945    11.00000    0.07979    0.08558 =
         0.06245    0.02524    0.01005    0.05599
AFIX  43
H30A  2    0.389913    0.508098    0.545948    11.00000   -1.20000
AFIX   0
C22A  1    1.008294    0.440080    0.569535    11.00000    0.06874    0.06651 =
         0.05903    0.02038    0.03279    0.03672
AFIX  43
H22A  2    1.016625    0.404094    0.538306    11.00000   -1.20000
AFIX   0

C29B  1    0.325127   -0.226476    0.723745    11.00000    0.07487    0.06113 =
         0.06337    0.02866    0.01424    0.01151
AFIX  43
H29B  2    0.295918   -0.281964    0.723952    11.00000   -1.20000
AFIX   0
C39B  1    0.329430    0.215003    0.420649    11.00000    0.07498    0.06997 =
         0.06408    0.03469    0.00711    0.03437
AFIX  43
H39B  2    0.316177    0.218367    0.372775    11.00000   -1.20000
AFIX   0

C31   1    1.156295    0.507824    0.788499    11.00000    0.07411    0.06160 =
         0.06652    0.03276    0.04262    0.03927
AFIX  43
H31   2    1.111990    0.508884    0.754415    11.00000   -1.20000
AFIX   0
C43   1    0.806381    0.796929    0.793773    11.00000    0.07857    0.05669 =
         0.07402    0.02453    0.01205    0.04239

C35B  1    0.437087   -0.114608    0.913001    11.00000    0.10906    0.10446 =
         0.05795    0.04139    0.04752    0.06540
AFIX  43
H35B  2    0.391491   -0.119652    0.928028    11.00000   -1.20000
AFIX   0
C34B  1    0.504685   -0.040184    0.910084    11.00000    0.10215    0.08065 =
         0.04274    0.01443    0.01848    0.05191
AFIX  43
H34B  2    0.511673    0.013035    0.923328    11.00000   -1.20000
AFIX   0
C33B  1    0.558960   -0.059145    0.884321    11.00000    0.07323    0.08860 =
         0.04910    0.01590    0.01357    0.03659
AFIX  43
H33B  2    0.608285   -0.021218    0.876868    11.00000   -1.20000
AFIX   0

C26   1    0.892609   -0.061972    1.027128    11.00000    0.09387    0.05287 =
         0.07710    0.02170    0.02289    0.04407
C29A  1    0.525343    0.586829    0.586599    11.00000    0.09374    0.08473 =
         0.08929    0.05480    0.04350    0.06266
AFIX  43
H29A  2    0.535101    0.633969    0.571682    11.00000   -1.20000
AFIX   0

C36B  1    0.451617   -0.179876    0.888872    11.00000    0.11814    0.07906 =
         0.06435    0.04265    0.03225    0.05188
AFIX  43
H36B  2    0.417117   -0.236147    0.885230    11.00000   -1.20000
AFIX   0
C24B  1    0.958648    0.056260    0.778813    11.00000    0.07707    0.08845 =
         0.07815    0.02593    0.01590    0.04769
AFIX  43
H24B  2    0.993024    0.080913    0.829121    11.00000   -1.20000
AFIX   0
C21B  1    0.856937   -0.016924    0.628221    11.00000    0.06507    0.06585 =
         0.07108    0.01643    0.03033    0.03775
AFIX  43
H21B  2    0.822531   -0.041556    0.577920    11.00000   -1.20000
AFIX   0
C23B  1    0.978123    0.010650    0.731800    11.00000    0.06019    0.09361 =
         0.11236    0.05365    0.03926    0.04932

C29   1    1.288124    0.522771    0.847565    11.00000    0.05154    0.08076 =
         0.09064    0.01179    0.03002    0.02930
AFIX  43
H29   2    1.345643    0.535608    0.860086    11.00000   -1.20000
AFIX   0

C32B  1    0.526455   -0.145862    0.871373    11.00000    0.10953    0.10462 =
         0.04729    0.02999    0.02209    0.07979
AFIX  43
H32B  2    0.550715   -0.175369    0.854122    11.00000   -1.20000
AFIX   0

N5A   5    1.213995    0.580228    0.574308    11.00000    0.08494    0.10524 =
         0.09393    0.02896    0.05341    0.03222
C43B  1    0.232541    0.264839    0.441022    11.00000    0.07655    0.10569 =
         0.12041    0.07149    0.02873    0.05344
C21   1    0.836926    0.074023    0.935585    11.00000    0.10181    0.04737 =
         0.05839    0.01274   -0.00729    0.03767
AFIX  43
H21   2    0.796083    0.068196    0.892858    11.00000   -1.20000
AFIX   0

C26A  1    1.150717    0.557458    0.585255    11.00000    0.06493    0.08464 =
         0.06442    0.02724    0.03549    0.03022
C34   1    1.182409    0.359725    0.675846    11.00000    0.12008    0.09789 =
         0.07849    0.03228    0.06480    0.06144
AFIX  43
H34   2    1.206469    0.389285    0.645719    11.00000   -1.20000
AFIX   0

C43A  1    0.282489    0.000634    0.891415    11.00000    0.08071    0.10127 =
         0.09689    0.06536    0.05646    0.05870
C22B  1    0.927398   -0.025885    0.656048    11.00000    0.08223    0.10147 =
         0.09656    0.03631    0.04531    0.06221
AFIX  43
H22B  2    0.941114   -0.056105    0.624553    11.00000   -1.20000
AFIX   0

C30   1    1.240997    0.537639    0.788062    11.00000    0.08889    0.07980 =
         0.10293    0.04995    0.06693    0.04646
AFIX  43
H30   2    1.262517    0.562721    0.754702    11.00000   -1.20000
AFIX   0

C30B  1    0.309386   -0.163472    0.751455    11.00000    0.06302    0.10294 =
         0.08743    0.05706    0.03482    0.04136
AFIX  43
H30B  2    0.267966   -0.169932    0.772746    11.00000   -1.20000
AFIX   0

C36   1    1.085054    0.286683    0.727501    11.00000    0.08777    0.06666 =
         0.08226    0.01772    0.04105    0.03972
AFIX  43
H36   2    1.034428    0.259634    0.737751    11.00000   -1.20000
AFIX   0
C22   1    0.834984    0.002927    0.948201    11.00000    0.11221    0.04596 =
         0.06076    0.00451   -0.00455    0.03656
AFIX  43
H22   2    0.794051   -0.050204    0.913666    11.00000   -1.20000
AFIX   0
C33   1    1.225783    0.340714    0.732910    11.00000    0.08675    0.09626 =
         0.10246    0.01715    0.04575    0.05926
AFIX  43
H33   2    1.283945    0.355336    0.746955    11.00000   -1.20000
AFIX   0

N6B   5    0.185328    0.285719    0.418300    11.00000    0.12282    0.18508 =
         0.19640    0.13498    0.06040    0.11028
C35A  1    0.445509    0.560067    0.755412    11.00000    0.10489    0.08615 =
         0.11339    0.02775    0.07587    0.04709
AFIX  43
H35A  2    0.400185    0.510017    0.755438    11.00000   -1.20000
AFIX   0
N6A   5    0.240992   -0.049478    0.913376    11.00000    0.10271    0.16092 =
         0.18509    0.13302    0.08997    0.07613

C35   1    1.094120    0.325121    0.672614    11.00000    0.10893    0.10543 =
         0.06045    0.00903    0.02033    0.06864
AFIX  43
H35   2    1.050404    0.327875    0.639531    11.00000   -1.20000
AFIX   0
C32   1    1.167122    0.296100    0.765258    11.00000    0.10353    0.07887 =
         0.08072    0.01991    0.03597    0.06141
AFIX  43
H32   2    1.179474    0.276161    0.804392    11.00000   -1.20000
AFIX   0

C32A  1    0.579104    0.668829    0.779727    11.00000    0.07702    0.08983 =
         0.09906   -0.01261    0.02324    0.03611
AFIX  43
H32A  2    0.639440    0.705521    0.799084    11.00000   -1.20000
AFIX   0
C34A  1    0.435256    0.612910    0.717807    11.00000    0.08596    0.10738 =
         0.12324    0.03032    0.05417    0.06649
AFIX  43
H34A  2    0.382500    0.604875    0.688323    11.00000   -1.20000
AFIX   0
C33A  1    0.518810    0.680817    0.732173    11.00000    0.11808    0.06083 =
         0.13433    0.02501    0.06289    0.05526
AFIX  43
H33A  2    0.531777    0.725801    0.713401    11.00000   -1.20000
AFIX   0

C26B  1    1.050070   -0.001302    0.759204    11.00000    0.08500    0.15684 =
         0.15206    0.09211    0.06976    0.08453
C36A  1    0.534673    0.593392    0.793545    11.00000    0.15277    0.11580 =
         0.07723    0.02347    0.04757    0.09691
AFIX  43
H36A  2    0.559255    0.569639    0.822434    11.00000   -1.20000
AFIX   0

N5B   5    1.108075   -0.007738    0.784740    11.00000    0.12663    0.28827 =
         0.20837    0.15292    0.09480    0.15836
HKLF 4

REM  skar_fer_ag1_a.res in P-1
REM R1 =  0.0533 for   16557 Fo > 4sig(Fo)  and  0.0604 for all   19796 data
REM   1378 parameters refined using      0 restraints

END

WGHT      0.1071      0.0000

REM Highest difference peak  2.510,  deepest hole -1.320,  1-sigma level  0.094
Q1    1   0.7261  0.3530  0.6954  11.00000  0.05    2.51
Q2    1   0.6435  0.0965  0.5731  11.00000  0.05    2.41
Q3    1   0.8571  0.3782  0.9468  11.00000  0.05    2.41
Q4    1   0.9445  0.4122  0.9006  11.00000  0.05    2.34
Q5    1   0.6267  0.3119  0.7362  11.00000  0.05    2.30
;
_shelx_res_checksum              58051
_shelx_fab_file
;
-22 9 6 -1.3438 0.0000
-22 9 7 -0.1585 0.0000
-22 10 5 0.9252 0.0000
-22 10 6 -0.1571 0.0000
-22 10 7 0.8822 0.0000
-22 11 5 -1.2685 0.0000
-22 11 6 1.2681 0.0000
-21 4 6 -0.9720 0.0000
-21 4 7 1.1202 0.0000
-21 4 8 0.8415 0.0000
-21 4 9 0.6538 0.0000
-21 5 4 0.6313 0.0000
-21 5 5 -1.1159 0.0000
-21 5 6 1.3180 0.0000
-21 5 7 0.6261 0.0000
-21 5 8 -0.1128 0.0000
-21 5 9 -0.1040 0.0000
-21 5 10 -0.4032 0.0000
-21 5 11 -1.3361 0.0000
-21 6 2 0.6262 0.0000
-21 6 3 -0.4383 0.0000
-21 6 4 -0.1061 0.0000
-21 6 5 -0.3215 0.0000
-21 6 6 0.1063 0.0000
-21 6 7 0.1256 0.0000
-21 6 8 -1.7233 0.0000
-21 6 9 0.5563 0.0000
-21 6 10 2.0512 0.0000
-21 6 11 0.0674 0.0000
-21 6 12 2.9370 0.0000
-21 7 1 0.4423 0.0000
-21 7 2 0.5038 0.0000
-21 7 3 -0.0821 0.0000
-21 7 4 0.7639 0.0000
-21 7 5 1.0699 0.0000
-21 7 6 -0.8950 0.0000
-21 7 7 0.4056 0.0000
-21 7 8 -1.9590 0.0000
-21 7 9 -0.1423 0.0000
-21 7 10 -1.0486 0.0000
-21 7 11 -0.9909 0.0000
-21 7 12 0.6301 0.0000
-21 8 1 0.4442 0.0000
-21 8 2 -0.9152 0.0000
-21 8 3 -0.5430 0.0000
-21 8 4 -0.9765 0.0000
-21 8 5 -1.2021 0.0000
-21 8 6 -1.1265 0.0000
-21 8 7 -0.7195 0.0000
-21 8 8 1.0796 0.0000
-21 8 9 -0.6280 0.0000
-21 8 10 0.8180 0.0000
-21 8 11 0.8411 0.0000
-21 8 12 0.2117 0.0000
-21 9 1 -0.5212 0.0000
-21 9 2 -1.1727 0.0000
-21 9 3 2.1693 0.0000
-21 9 4 -0.7987 0.0000
-21 9 5 2.3615 0.0000
-21 9 6 0.8209 0.0000
-21 9 7 0.9727 0.0000
-21 9 8 0.8919 0.0000
-21 9 9 -1.2782 0.0000
-21 9 10 0.7401 0.0000
-21 9 11 -0.0585 0.0000
-21 9 12 -1.0318 0.0000
-21 10 1 -0.1223 0.0000
-21 10 2 -0.4587 0.0000
-21 10 3 0.0065 0.0000
-21 10 4 -0.1814 0.0000
-21 10 5 0.1622 0.0000
-21 10 6 -0.2303 0.0000
-21 10 7 -0.2405 0.0000
-21 10 8 0.4602 0.0000
-21 10 9 -0.1297 0.0000
-21 10 10 0.9820 0.0000
-21 10 11 -1.2957 0.0000
-21 10 12 0.4548 0.0000
-21 11 1 1.1147 0.0000
-21 11 2 -0.2475 0.0000
-21 11 3 -0.4453 0.0000
-21 11 4 1.3505 0.0000
-21 11 5 -1.8478 0.0000
-21 11 6 -0.2793 0.0000
-21 11 7 -1.2331 0.0000
-21 11 8 0.0621 0.0000
-21 11 9 0.0179 0.0000
-21 11 10 -0.4642 0.0000
-21 11 11 -0.9306 0.0000
-21 12 1 0.5734 0.0000
-21 12 2 -0.4690 0.0000
-21 12 3 0.3100 0.0000
-21 12 4 -0.5055 0.0000
-21 12 5 -0.5935 0.0000
-21 12 6 0.8651 0.0000
-21 12 7 -0.0641 0.0000
-21 12 8 -0.1238 0.0000
-21 12 9 0.7594 0.0000
-21 12 10 0.1282 0.0000
-21 13 1 -0.4449 0.0000
-21 13 2 1.5118 0.0000
-21 13 3 -0.0060 0.0000
-21 13 4 -0.9732 0.0000
-21 13 5 0.8164 0.0000
-21 13 6 1.7106 0.0000
-21 13 7 -0.7611 0.0000
-21 13 8 0.5746 0.0000
-21 13 9 -0.9202 0.0000
-21 14 1 -0.9281 0.0000
-21 14 2 0.5508 0.0000
-21 14 3 -0.7785 0.0000
-21 14 4 -0.3471 0.0000
-21 14 5 1.6210 0.0000
-21 14 6 0.0215 0.0000
-21 14 7 0.2495 0.0000
-21 14 8 1.4216 0.0000
-21 15 1 0.9557 0.0000
-21 15 2 0.9299 0.0000
-21 15 3 -0.4075 0.0000
-21 15 4 0.3675 0.0000
-21 15 5 -0.0178 0.0000
-21 15 6 -1.7223 0.0000
-21 15 7 0.2182 0.0000
-20 1 7 1.2725 0.0000
-20 1 8 0.0064 0.0000
-20 1 9 0.1161 0.0000
-20 2 4 0.0381 0.0000
-20 2 5 0.4239 0.0000
-20 2 6 -1.4816 0.0000
-20 2 7 0.3275 0.0000
-20 2 8 1.2590 0.0000
-20 2 9 -0.0232 0.0000
-20 2 10 -0.6913 0.0000
-20 2 11 -0.3817 0.0000
-20 2 12 -1.7374 0.0000
-20 3 2 0.8413 0.0000
-20 3 3 0.3137 0.0000
-20 3 4 -0.7746 0.0000
-20 3 5 1.5659 0.0000
-20 3 6 -0.3671 0.0000
-20 3 7 -0.1750 0.0000
-20 3 8 1.3639 0.0000
-20 3 9 0.1450 0.0000
-20 3 10 -0.2369 0.0000
-20 3 11 1.1976 0.0000
-20 3 12 -0.4514 0.0000
-20 3 13 -0.2204 0.0000
-20 4 1 0.0644 0.0000
-20 4 2 0.7882 0.0000
-20 4 3 0.4477 0.0000
-20 4 4 -0.3251 0.0000
-20 4 5 0.1877 0.0000
-20 4 6 -0.3094 0.0000
-20 4 7 -0.9617 0.0000
-20 4 8 0.0257 0.0000
-20 4 9 -0.6386 0.0000
-20 4 10 -0.8425 0.0000
-20 4 11 0.8625 0.0000
-20 4 12 -1.5583 0.0000
-20 4 13 0.6544 0.0000
-20 4 14 -0.1495 0.0000
-20 5 1 -1.2036 0.0000
-20 5 2 0.4997 0.0000
-20 5 3 -0.8364 0.0000
-20 5 4 0.3226 0.0000
-20 5 5 -1.6240 0.0000
-20 5 6 -0.0190 0.0000
-20 5 7 0.2621 0.0000
-20 5 8 0.2372 0.0000
-20 5 9 -0.1467 0.0000
-20 5 10 2.0941 0.0000
-20 5 11 0.3726 0.0000
-20 5 12 0.5878 0.0000
-20 5 13 1.2167 0.0000
-20 5 14 -0.1582 0.0000
-20 6 1 0.0590 0.0000
-20 6 2 0.6653 0.0000
-20 6 3 -0.3657 0.0000
-20 6 4 -0.2070 0.0000
-20 6 5 0.3661 0.0000
-20 6 6 -0.2883 0.0000
-20 6 7 1.3524 0.0000
-20 6 8 -1.4567 0.0000
-20 6 9 -1.2756 0.0000
-20 6 10 0.0338 0.0000
-20 6 11 -2.9791 0.0000
-20 6 12 0.5015 0.0000
-20 6 13 -0.5150 0.0000
-20 6 14 -1.1305 0.0000
-20 7 1 -0.2926 0.0000
-20 7 2 0.1026 0.0000
-20 7 3 -0.9227 0.0000
-20 7 4 -0.2317 0.0000
-20 7 5 0.4384 0.0000
-20 7 6 -1.2602 0.0000
-20 7 7 -0.1522 0.0000
-20 7 8 -0.7437 0.0000
-20 7 9 0.6062 0.0000
-20 7 10 0.6893 0.0000
-20 7 11 0.4104 0.0000
-20 7 12 3.1052 0.0000
-20 7 13 0.0930 0.0000
-20 7 14 0.3561 0.0000
-20 8 1 -0.3883 0.0000
-20 8 2 -1.2787 0.0000
-20 8 3 1.1334 0.0000
-20 8 4 1.1281 0.0000
-20 8 5 1.4886 0.0000
-20 8 6 1.6254 0.0000
-20 8 7 0.2603 0.0000
-20 8 8 1.8457 0.0000
-20 8 9 -0.9655 0.0000
-20 8 10 -0.5982 0.0000
-20 8 11 0.2545 0.0000
-20 8 12 -0.2799 0.0000
-20 8 13 -1.1353 0.0000
-20 8 14 -0.4709 0.0000
-20 9 1 1.5037 0.0000
-20 9 2 -1.3677 0.0000
-20 9 3 1.9955 0.0000
-20 9 4 -1.9177 0.0000
-20 9 5 -0.3977 0.0000
-20 9 6 -0.7764 0.0000
-20 9 7 -0.4019 0.0000
-20 9 8 0.6663 0.0000
-20 9 9 -0.7022 0.0000
-20 9 10 0.5017 0.0000
-20 9 11 0.5813 0.0000
-20 9 12 -0.8695 0.0000
-20 9 13 0.2024 0.0000
-20 9 14 1.8079 0.0000
-20 10 1 1.3139 0.0000
-20 10 2 0.3797 0.0000
-20 10 3 -0.5373 0.0000
-20 10 4 0.2491 0.0000
-20 10 5 -0.7360 0.0000
-20 10 6 0.4786 0.0000
-20 10 7 -1.6759 0.0000
-20 10 8 0.7106 0.0000
-20 10 9 -0.5185 0.0000
-20 10 10 1.3658 0.0000
-20 10 11 -0.7405 0.0000
-20 10 12 -0.7938 0.0000
-20 10 13 0.2418 0.0000
-20 10 14 1.0637 0.0000
-20 11 1 -0.2810 0.0000
-20 11 2 -0.6245 0.0000
-20 11 3 -1.8396 0.0000
-20 11 4 0.7500 0.0000
-20 11 5 -0.4586 0.0000
-20 11 6 0.2529 0.0000
-20 11 7 -0.1856 0.0000
-20 11 8 -0.0064 0.0000
-20 11 9 0.2713 0.0000
-20 11 10 -0.0424 0.0000
-20 11 11 -0.0296 0.0000
-20 11 12 0.5948 0.0000
-20 11 13 -0.7604 0.0000
-20 12 1 -0.5655 0.0000
-20 12 2 0.6045 0.0000
-20 12 3 1.0382 0.0000
-20 12 4 0.8618 0.0000
-20 12 5 -0.2011 0.0000
-20 12 6 1.2889 0.0000
-20 12 7 1.3874 0.0000
-20 12 8 -0.1217 0.0000
-20 12 9 -0.1307 0.0000
-20 12 10 -1.6260 0.0000
-20 12 11 -0.4829 0.0000
-20 12 12 0.5338 0.0000
-20 13 1 -1.6689 0.0000
-20 13 2 0.9998 0.0000
-20 13 3 0.9702 0.0000
-20 13 4 -0.5908 0.0000
-20 13 5 -0.6485 0.0000
-20 13 6 1.2574 0.0000
-20 13 7 -0.7002 0.0000
-20 13 8 0.2295 0.0000
-20 13 9 0.8147 0.0000
-20 13 10 0.4287 0.0000
-20 13 11 0.6225 0.0000
-20 13 12 -0.6193 0.0000
-20 14 1 0.5792 0.0000
-20 14 2 1.2071 0.0000
-20 14 3 0.2192 0.0000
-20 14 4 -1.8841 0.0000
-20 14 5 0.3923 0.0000
-20 14 6 -0.8656 0.0000
-20 14 7 -1.5594 0.0000
-20 14 8 -0.6334 0.0000
-20 14 9 -0.4159 0.0000
-20 14 10 0.3785 0.0000
-20 14 11 -0.7652 0.0000
-20 15 1 -0.3432 0.0000
-20 15 2 -0.4048 0.0000
-20 15 3 -0.3620 0.0000
-20 15 4 -0.1942 0.0000
-20 15 5 0.8450 0.0000
-20 15 6 -0.8210 0.0000
-20 15 7 0.0153 0.0000
-20 15 8 0.2876 0.0000
-20 15 9 0.1321 0.0000
-20 16 1 0.1310 0.0000
-20 16 2 -1.3712 0.0000
-20 16 3 -0.4002 0.0000
-20 16 4 0.1881 0.0000
-20 16 5 0.0878 0.0000
-20 16 6 -0.9819 0.0000
-20 16 7 0.5416 0.0000
-20 16 8 -0.7439 0.0000
-20 17 1 0.4962 0.0000
-20 17 2 -0.5501 0.0000
-20 17 3 0.4326 0.0000
-20 17 4 0.1543 0.0000
-20 17 5 0.7292 0.0000
-20 17 6 -0.3202 0.0000
-19 -1 6 0.8021 0.0000
-19 -1 7 1.5085 0.0000
-19 -1 8 -1.1544 0.0000
-19 -1 9 -0.1828 0.0000
-19 -1 10 -0.3774 0.0000
-19 -1 11 1.1247 0.0000
-19 0 3 -0.7951 0.0000
-19 0 4 0.4758 0.0000
-19 0 5 1.5416 0.0000
-19 0 6 -0.4648 0.0000
-19 0 7 1.3989 0.0000
-19 0 8 -1.1938 0.0000
-19 0 9 0.1117 0.0000
-19 0 10 0.3328 0.0000
-19 0 11 0.3644 0.0000
-19 0 12 -0.9705 0.0000
-19 0 13 0.0428 0.0000
-19 1 1 0.6321 0.0000
-19 1 2 -0.7877 0.0000
-19 1 3 -0.9605 0.0000
-19 1 4 -0.2437 0.0000
-19 1 5 1.3936 0.0000
-19 1 6 -2.0539 0.0000
-19 1 7 -0.2274 0.0000
-19 1 8 0.6223 0.0000
-19 1 9 0.3743 0.0000
-19 1 10 0.3510 0.0000
-19 1 11 -1.4099 0.0000
-19 1 12 -1.8062 0.0000
-19 1 13 -1.6747 0.0000
-19 1 14 -0.6329 0.0000
-19 2 1 0.0540 0.0000
-19 2 2 0.1925 0.0000
-19 2 3 0.3789 0.0000
-19 2 4 -0.1282 0.0000
-19 2 5 1.3295 0.0000
-19 2 6 -0.4906 0.0000
-19 2 7 -0.9460 0.0000
-19 2 8 0.5262 0.0000
-19 2 9 0.8829 0.0000
-19 2 10 -0.0644 0.0000
-19 2 11 0.8082 0.0000
-19 2 12 1.5640 0.0000
-19 2 13 -0.2589 0.0000
-19 2 14 1.3464 0.0000
-19 2 15 0.3721 0.0000
-19 3 1 -0.4149 0.0000
-19 3 2 0.2251 0.0000
-19 3 3 1.0717 0.0000
-19 3 4 -1.2750 0.0000
-19 3 5 -0.5139 0.0000
-19 3 6 0.4274 0.0000
-19 3 7 -2.1288 0.0000
-19 3 8 0.1325 0.0000
-19 3 9 -0.0427 0.0000
-19 3 10 -1.6939 0.0000
-19 3 11 0.9417 0.0000
-19 3 12 0.6951 0.0000
-19 3 13 -0.5878 0.0000
-19 3 14 1.0319 0.0000
-19 3 15 0.4381 0.0000
-19 3 16 0.0244 0.0000
-19 4 1 -0.9718 0.0000
-19 4 2 0.1052 0.0000
-19 4 3 -0.0281 0.0000
-19 4 4 -0.0696 0.0000
-19 4 5 -0.8471 0.0000
-19 4 6 1.0326 0.0000
-19 4 7 -0.4554 0.0000
-19 4 8 1.0494 0.0000
-19 4 9 0.5584 0.0000
-19 4 10 -1.0183 0.0000
-19 4 11 2.3638 0.0000
-19 4 12 -1.1346 0.0000
-19 4 13 0.2330 0.0000
-19 4 14 -0.1099 0.0000
-19 4 15 0.2227 0.0000
-19 4 16 0.3536 0.0000
-19 5 1 -0.2684 0.0000
-19 5 2 0.6068 0.0000
-19 5 3 -0.6208 0.0000
-19 5 4 0.4947 0.0000
-19 5 5 -0.5163 0.0000
-19 5 6 0.2174 0.0000
-19 5 7 0.2966 0.0000
-19 5 8 0.4545 0.0000
-19 5 9 -1.7941 0.0000
-19 5 10 0.5775 0.0000
-19 5 11 -0.3518 0.0000
-19 5 12 -1.7608 0.0000
-19 5 13 0.6327 0.0000
-19 5 14 -1.3525 0.0000
-19 5 15 0.0956 0.0000
-19 5 16 -1.3025 0.0000
-19 6 1 -0.2471 0.0000
-19 6 2 0.4896 0.0000
-19 6 3 0.1778 0.0000
-19 6 4 -0.2031 0.0000
-19 6 5 0.7860 0.0000
-19 6 6 -1.1804 0.0000
-19 6 7 0.7297 0.0000
-19 6 8 -1.0269 0.0000
-19 6 9 0.3150 0.0000
-19 6 10 2.1264 0.0000
-19 6 11 -0.7055 0.0000
-19 6 12 1.6349 0.0000
-19 6 13 2.0390 0.0000
-19 6 14 0.5680 0.0000
-19 6 15 0.4498 0.0000
-19 6 16 0.0362 0.0000
-19 7 1 -0.4932 0.0000
-19 7 2 -0.2748 0.0000
-19 7 3 -0.5098 0.0000
-19 7 4 0.8469 0.0000
-19 7 5 1.6642 0.0000
-19 7 6 1.5285 0.0000
-19 7 7 0.9292 0.0000
-19 7 8 0.5772 0.0000
-19 7 9 -0.0045 0.0000
-19 7 10 -0.8678 0.0000
-19 7 11 -2.7577 0.0000
-19 7 12 0.9816 0.0000
-19 7 13 -0.7133 0.0000
-19 7 14 -0.9524 0.0000
-19 7 15 -0.6509 0.0000
-19 7 16 0.1110 0.0000
-19 8 1 1.4103 0.0000
-19 8 2 -0.7085 0.0000
-19 8 3 0.4330 0.0000
-19 8 4 -0.3905 0.0000
-19 8 5 -1.1298 0.0000
-19 8 6 -1.3078 0.0000
-19 8 7 -1.0554 0.0000
-19 8 8 0.3476 0.0000
-19 8 9 -0.0989 0.0000
-19 8 10 -0.7747 0.0000
-19 8 11 0.9814 0.0000
-19 8 12 0.9001 0.0000
-19 8 13 -0.0666 0.0000
-19 8 14 -0.0050 0.0000
-19 8 15 0.7230 0.0000
-19 8 16 -0.0822 0.0000
-19 9 1 1.2158 0.0000
-19 9 2 -1.1741 0.0000
-19 9 3 0.8692 0.0000
-19 9 4 -0.4182 0.0000
-19 9 5 -0.4473 0.0000
-19 9 6 -0.0161 0.0000
-19 9 7 -0.3241 0.0000
-19 9 8 0.4263 0.0000
-19 9 9 -0.2327 0.0000
-19 9 10 0.7991 0.0000
-19 9 11 0.6493 0.0000
-19 9 12 -0.9788 0.0000
-19 9 13 -1.8575 0.0000
-19 9 14 1.2792 0.0000
-19 9 15 -0.2375 0.0000
-19 10 1 -0.8785 0.0000
-19 10 2 0.6364 0.0000
-19 10 3 -1.7534 0.0000
-19 10 4 0.2768 0.0000
-19 10 5 -1.0082 0.0000
-19 10 6 1.8597 0.0000
-19 10 7 -1.3643 0.0000
-19 10 8 0.1438 0.0000
-19 10 9 -0.5970 0.0000
-19 10 10 -0.1978 0.0000
-19 10 11 0.2212 0.0000
-19 10 12 -1.3582 0.0000
-19 10 13 -0.2679 0.0000
-19 10 14 0.4700 0.0000
-19 10 15 -0.9664 0.0000
-19 11 1 0.2254 0.0000
-19 11 2 0.9434 0.0000
-19 11 3 0.2449 0.0000
-19 11 4 0.8157 0.0000
-19 11 5 0.9620 0.0000
-19 11 6 0.6313 0.0000
-19 11 7 0.6480 0.0000
-19 11 8 0.8688 0.0000
-19 11 9 0.2864 0.0000
-19 11 10 -0.6804 0.0000
-19 11 11 -0.7022 0.0000
-19 11 12 0.9997 0.0000
-19 11 13 0.3099 0.0000
-19 11 14 0.3147 0.0000
-19 12 1 -0.9900 0.0000
-19 12 2 -0.2352 0.0000
-19 12 3 0.6174 0.0000
-19 12 4 0.7284 0.0000
-19 12 5 -0.8080 0.0000
-19 12 6 -1.1694 0.0000
-19 12 7 0.2059 0.0000
-19 12 8 -0.1156 0.0000
-19 12 9 0.4748 0.0000
-19 12 10 0.1802 0.0000
-19 12 11 -0.0008 0.0000
-19 12 12 0.9364 0.0000
-19 12 13 -0.8526 0.0000
-19 12 14 -0.7072 0.0000
-19 13 1 -0.6154 0.0000
-19 13 2 -0.0615 0.0000
-19 13 3 0.7820 0.0000
-19 13 4 -0.7343 0.0000
-19 13 5 -1.4945 0.0000
-19 13 6 -0.2919 0.0000
-19 13 7 -0.2898 0.0000
-19 13 8 -1.5052 0.0000
-19 13 9 -0.5637 0.0000
-19 13 10 -0.0985 0.0000
-19 13 11 0.0958 0.0000
-19 13 12 0.1605 0.0000
-19 13 13 -0.3436 0.0000
-19 14 1 -0.8630 0.0000
-19 14 2 -0.6877 0.0000
-19 14 3 0.8010 0.0000
-19 14 4 -1.0595 0.0000
-19 14 5 0.2123 0.0000
-19 14 6 1.0195 0.0000
-19 14 7 -0.3130 0.0000
-19 14 8 0.4389 0.0000
-19 14 9 0.0097 0.0000
-19 14 10 1.7634 0.0000
-19 14 11 -0.1475 0.0000
-19 14 12 -0.0044 0.0000
-19 15 1 0.6496 0.0000
-19 15 2 -0.7767 0.0000
-19 15 3 -0.2349 0.0000
-19 15 4 -0.3265 0.0000
-19 15 5 0.5477 0.0000
-19 15 6 0.4700 0.0000
-19 15 7 -0.0839 0.0000
-19 15 8 0.1999 0.0000
-19 15 9 -0.1882 0.0000
-19 15 10 0.1091 0.0000
-19 15 11 0.3148 0.0000
-19 16 1 1.0413 0.0000
-19 16 2 -0.3258 0.0000
-19 16 3 0.2878 0.0000
-19 16 4 0.6342 0.0000
-19 16 5 0.8175 0.0000
-19 16 6 -0.1403 0.0000
-19 16 7 1.2353 0.0000
-19 16 8 0.5719 0.0000
-19 16 9 0.4659 0.0000
-19 16 10 -0.8894 0.0000
-19 17 1 0.2940 0.0000
-19 17 2 0.3206 0.0000
-19 17 3 0.4105 0.0000
-19 17 4 0.2327 0.0000
-19 17 5 0.2090 0.0000
-19 17 6 -0.3739 0.0000
-19 17 7 -0.3219 0.0000
-19 17 8 0.0242 0.0000
-19 18 1 0.2922 0.0000
-19 18 2 0.7758 0.0000
-19 18 3 -0.0006 0.0000
-19 18 4 -2.0065 0.0000
-19 18 5 0.6755 0.0000
-19 18 6 -0.8377 0.0000
-18 -3 7 -0.6208 0.0000
-18 -3 8 0.2738 0.0000
-18 -3 9 1.0564 0.0000
-18 -3 10 1.0377 0.0000
-18 -2 4 0.7554 0.0000
-18 -2 5 -0.4989 0.0000
-18 -2 6 0.3465 0.0000
-18 -2 7 0.3019 0.0000
-18 -2 8 0.5317 0.0000
-18 -2 9 -0.1491 0.0000
-18 -2 10 -0.7359 0.0000
-18 -2 11 -0.9112 0.0000
-18 -2 12 0.2360 0.0000
-18 -2 13 1.0749 0.0000
-18 -1 1 -0.0290 0.0000
-18 -1 2 0.2508 0.0000
-18 -1 3 0.9933 0.0000
-18 -1 4 -0.2381 0.0000
-18 -1 5 -0.2405 0.0000
-18 -1 6 -0.4262 0.0000
-18 -1 7 1.3394 0.0000
-18 -1 8 0.0288 0.0000
-18 -1 9 -0.2306 0.0000
-18 -1 10 -1.3057 0.0000
-18 -1 11 1.2607 0.0000
-18 -1 12 -1.9820 0.0000
-18 -1 13 0.0202 0.0000
-18 -1 14 -1.0970 0.0000
-18 -1 15 -0.2576 0.0000
-18 0 1 0.0837 0.0000
-18 0 2 0.6916 0.0000
-18 0 3 -1.0629 0.0000
-18 0 4 -1.8809 0.0000
-18 0 5 0.9362 0.0000
-18 0 6 -1.2407 0.0000
-18 0 7 -0.1059 0.0000
-18 0 8 0.1601 0.0000
-18 0 9 -0.7901 0.0000
-18 0 10 0.6395 0.0000
-18 0 11 0.5821 0.0000
-18 0 12 -1.8992 0.0000
-18 0 13 -0.4949 0.0000
-18 0 14 0.0722 0.0000
-18 0 15 0.1870 0.0000
-18 0 16 1.2349 0.0000
-18 1 1 0.3335 0.0000
-18 1 2 0.1173 0.0000
-18 1 3 -0.3008 0.0000
-18 1 4 -0.8421 0.0000
-18 1 5 2.5378 0.0000
-18 1 6 -0.2939 0.0000
-18 1 7 -0.7941 0.0000
-18 1 8 -0.4367 0.0000
-18 1 9 0.0338 0.0000
-18 1 10 1.5432 0.0000
-18 1 11 0.9300 0.0000
-18 1 12 1.1350 0.0000
-18 1 13 1.1032 0.0000
-18 1 14 0.6254 0.0000
-18 1 15 0.2852 0.0000
-18 1 16 -0.5454 0.0000
-18 2 1 -0.2316 0.0000
-18 2 2 -0.4138 0.0000
-18 2 3 0.0784 0.0000
-18 2 4 -0.7019 0.0000
-18 2 5 -0.1780 0.0000
-18 2 6 0.2894 0.0000
-18 2 7 -0.8411 0.0000
-18 2 8 -0.7487 0.0000
-18 2 9 0.3537 0.0000
-18 2 10 0.0505 0.0000
-18 2 11 -1.5032 0.0000
-18 2 12 1.9700 0.0000
-18 2 13 -0.7263 0.0000
-18 2 14 -0.0071 0.0000
-18 2 15 0.6279 0.0000
-18 2 16 -0.9406 0.0000
-18 2 17 1.1443 0.0000
-18 3 1 -0.6345 0.0000
-18 3 2 -0.5119 0.0000
-18 3 3 1.0329 0.0000
-18 3 4 1.3408 0.0000
-18 3 5 -1.1187 0.0000
-18 3 6 2.0444 0.0000
-18 3 7 -0.6728 0.0000
-18 3 8 -0.1170 0.0000
-18 3 9 1.7541 0.0000
-18 3 10 -1.8892 0.0000
-18 3 11 -0.2912 0.0000
-18 3 12 1.0825 0.0000
-18 3 13 -1.4832 0.0000
-18 3 14 0.0995 0.0000
-18 3 15 0.4499 0.0000
-18 3 16 -0.3027 0.0000
-18 3 17 1.7954 0.0000
-18 4 1 -0.8683 0.0000
-18 4 2 0.2331 0.0000
-18 4 3 -0.0822 0.0000
-18 4 4 0.7280 0.0000
-18 4 5 -1.3075 0.0000
-18 4 6 0.8647 0.0000
-18 4 7 -0.3779 0.0000
-18 4 8 0.7885 0.0000
-18 4 9 1.1107 0.0000
-18 4 10 -1.9836 0.0000
-18 4 11 1.9506 0.0000
-18 4 12 -0.3441 0.0000
-18 4 13 -0.8873 0.0000
-18 4 14 -0.2866 0.0000
-18 4 15 -0.4022 0.0000
-18 4 16 -0.6400 0.0000
-18 4 17 -0.7284 0.0000
-18 5 1 0.2597 0.0000
-18 5 2 1.5209 0.0000
-18 5 3 0.3743 0.0000
-18 5 4 0.4002 0.0000
-18 5 5 -0.2382 0.0000
-18 5 6 -0.3059 0.0000
-18 5 7 0.2752 0.0000
-18 5 8 0.0653 0.0000
-18 5 9 -0.7496 0.0000
-18 5 10 0.1676 0.0000
-18 5 11 2.0468 0.0000
-18 5 12 -1.4144 0.0000
-18 5 13 2.1141 0.0000
-18 5 14 0.0941 0.0000
-18 5 15 1.6675 0.0000
-18 5 16 -0.3814 0.0000
-18 5 17 -0.5462 0.0000
-18 6 1 0.5874 0.0000
-18 6 2 -0.6403 0.0000
-18 6 3 -0.7739 0.0000
-18 6 4 -0.9244 0.0000
-18 6 5 1.3593 0.0000
-18 6 6 0.3685 0.0000
-18 6 7 1.6187 0.0000
-18 6 8 -1.1339 0.0000
-18 6 9 -0.9491 0.0000
-18 6 10 1.0737 0.0000
-18 6 11 -2.6364 0.0000
-18 6 12 -1.1204 0.0000
-18 6 13 0.3828 0.0000
-18 6 14 -0.4549 0.0000
-18 6 15 -0.5921 0.0000
-18 6 16 -0.4201 0.0000
-18 6 17 -0.4219 0.0000
-18 7 1 0.2893 0.0000
-18 7 2 0.2074 0.0000
-18 7 3 -1.2461 0.0000
-18 7 4 0.1532 0.0000
-18 7 5 -0.6789 0.0000
-18 7 6 -1.1297 0.0000
-18 7 7 -1.2382 0.0000
-18 7 8 -0.3917 0.0000
-18 7 9 0.6621 0.0000
-18 7 10 0.7952 0.0000
-18 7 11 -1.8995 0.0000
-18 7 12 0.8876 0.0000
-18 7 13 0.8312 0.0000
-18 7 14 -0.7115 0.0000
-18 7 15 -0.6494 0.0000
-18 7 16 0.8092 0.0000
-18 7 17 -0.1750 0.0000
-18 8 1 0.1822 0.0000
-18 8 2 -0.9456 0.0000
-18 8 3 0.0171 0.0000
-18 8 4 0.1176 0.0000
-18 8 5 0.8633 0.0000
-18 8 6 -1.1242 0.0000
-18 8 7 0.7288 0.0000
-18 8 8 0.8053 0.0000
-18 8 9 0.5732 0.0000
-18 8 10 -0.3064 0.0000
-18 8 11 -0.2069 0.0000
-18 8 12 0.5749 0.0000
-18 8 13 -1.2567 0.0000
-18 8 14 -0.0347 0.0000
-18 8 15 0.6024 0.0000
-18 8 16 1.1467 0.0000
-18 8 17 -0.4558 0.0000
-18 9 1 -0.6393 0.0000
-18 9 2 0.4632 0.0000
-18 9 3 -0.1924 0.0000
-18 9 4 0.1368 0.0000
-18 9 5 -0.8560 0.0000
-18 9 6 0.4926 0.0000
-18 9 7 0.0741 0.0000
-18 9 8 -0.4501 0.0000
-18 9 9 -1.3262 0.0000
-18 9 10 -0.1002 0.0000
-18 9 11 1.1527 0.0000
-18 9 12 0.4032 0.0000
-18 9 13 -1.4259 0.0000
-18 9 14 1.1804 0.0000
-18 9 15 0.2867 0.0000
-18 9 16 -0.7847 0.0000
-18 10 1 -0.8212 0.0000
-18 10 2 1.9458 0.0000
-18 10 3 0.0875 0.0000
-18 10 4 0.9361 0.0000
-18 10 5 -0.6814 0.0000
-18 10 6 2.2287 0.0000
-18 10 7 0.2627 0.0000
-18 10 8 0.0168 0.0000
-18 10 9 1.4311 0.0000
-18 10 10 -0.5002 0.0000
-18 10 11 0.8062 0.0000
-18 10 12 -0.5140 0.0000
-18 10 13 -0.1688 0.0000
-18 10 14 1.1892 0.0000
-18 10 15 -1.5540 0.0000
-18 10 16 -1.1900 0.0000
-18 11 1 1.0462 0.0000
-18 11 2 -0.2163 0.0000
-18 11 3 0.4091 0.0000
-18 11 4 -0.1396 0.0000
-18 11 5 0.0748 0.0000
-18 11 6 -0.3228 0.0000
-18 11 7 -1.7645 0.0000
-18 11 8 0.2342 0.0000
-18 11 9 0.6748 0.0000
-18 11 10 -0.0872 0.0000
-18 11 11 -0.8621 0.0000
-18 11 12 0.3750 0.0000
-18 11 13 0.0957 0.0000
-18 11 14 -0.2893 0.0000
-18 11 15 -0.4484 0.0000
-18 12 1 0.0652 0.0000
-18 12 2 -1.4546 0.0000
-18 12 3 -0.4441 0.0000
-18 12 4 -0.4253 0.0000
-18 12 5 0.1636 0.0000
-18 12 6 -1.8485 0.0000
-18 12 7 -0.3002 0.0000
-18 12 8 -0.2842 0.0000
-18 12 9 -0.4407 0.0000
-18 12 10 -0.4114 0.0000
-18 12 11 -0.1716 0.0000
-18 12 12 1.0334 0.0000
-18 12 13 0.6568 0.0000
-18 12 14 -1.1315 0.0000
-18 12 15 0.9558 0.0000
-18 13 1 -1.5099 0.0000
-18 13 2 -1.6085 0.0000
-18 13 3 0.3476 0.0000
-18 13 4 0.4670 0.0000
-18 13 5 0.1687 0.0000
-18 13 6 -0.1733 0.0000
-18 13 7 1.7596 0.0000
-18 13 8 0.8155 0.0000
-18 13 9 -0.0614 0.0000
-18 13 10 1.4564 0.0000
-18 13 11 0.3377 0.0000
-18 13 12 1.0235 0.0000
-18 13 13 -0.3063 0.0000
-18 13 14 -0.3350 0.0000
-18 14 1 0.9359 0.0000
-18 14 2 -0.1569 0.0000
-18 14 3 0.5051 0.0000
-18 14 4 0.5678 0.0000
-18 14 5 -0.6222 0.0000
-18 14 6 1.6194 0.0000
-18 14 7 0.2500 0.0000
-18 14 8 0.2946 0.0000
-18 14 9 -1.5977 0.0000
-18 14 10 0.6217 0.0000
-18 14 11 -0.0468 0.0000
-18 14 12 -0.2190 0.0000
-18 14 13 -0.6055 0.0000
-18 15 1 1.5647 0.0000
-18 15 2 0.1755 0.0000
-18 15 3 0.2376 0.0000
-18 15 4 0.4175 0.0000
-18 15 5 -0.0839 0.0000
-18 15 6 0.0182 0.0000
-18 15 7 -0.1071 0.0000
-18 15 8 -0.2937 0.0000
-18 15 9 0.0338 0.0000
-18 15 10 -0.5248 0.0000
-18 15 11 0.1372 0.0000
-18 15 12 -1.2937 0.0000
-18 16 1 0.3303 0.0000
-18 16 2 0.3183 0.0000
-18 16 3 -0.2985 0.0000
-18 16 4 0.6685 0.0000
-18 16 5 -0.3033 0.0000
-18 16 6 -1.0562 0.0000
-18 16 7 -0.5125 0.0000
-18 16 8 -0.8413 0.0000
-18 16 9 0.7855 0.0000
-18 16 10 -1.2020 0.0000
-18 16 11 -0.0893 0.0000
-18 17 1 -0.5276 0.0000
-18 17 2 0.5770 0.0000
-18 17 3 -0.1604 0.0000
-18 17 4 -0.2037 0.0000
-18 17 5 -0.7126 0.0000
-18 17 6 0.7427 0.0000
-18 17 7 0.0275 0.0000
-18 17 8 0.1966 0.0000
-18 17 9 1.1918 0.0000
-18 18 1 -0.4612 0.0000
-18 18 2 -0.9519 0.0000
-18 18 3 0.8423 0.0000
-18 18 4 -3.1099 0.0000
-18 18 5 0.2357 0.0000
-18 18 6 -0.2854 0.0000
-18 18 7 -0.9516 0.0000
-18 18 8 -0.9670 0.0000
-18 19 1 0.3939 0.0000
-18 19 2 0.6658 0.0000
-18 19 3 0.6923 0.0000
-18 19 4 -0.0967 0.0000
-18 19 5 1.5479 0.0000
-17 -4 4 0.1857 0.0000
-17 -4 5 -1.0392 0.0000
-17 -4 6 0.0094 0.0000
-17 -4 7 -0.0756 0.0000
-17 -4 8 -0.1063 0.0000
-17 -4 9 0.0718 0.0000
-17 -4 10 1.2145 0.0000
-17 -4 11 0.5205 0.0000
-17 -4 12 1.2040 0.0000
-17 -4 13 1.2171 0.0000
-17 -3 2 0.5083 0.0000
-17 -3 3 -0.0808 0.0000
-17 -3 4 1.3810 0.0000
-17 -3 5 -0.6974 0.0000
-17 -3 6 0.2667 0.0000
-17 -3 7 -0.1659 0.0000
-17 -3 8 -0.8056 0.0000
-17 -3 9 0.0748 0.0000
-17 -3 10 0.6188 0.0000
-17 -3 11 -2.7591 0.0000
-17 -3 12 -1.1331 0.0000
-17 -3 13 -0.0231 0.0000
-17 -3 14 -0.4384 0.0000
-17 -3 15 -0.7651 0.0000
-17 -2 1 1.4461 0.0000
-17 -2 2 -0.9638 0.0000
-17 -2 3 0.3114 0.0000
-17 -2 4 1.0382 0.0000
-17 -2 5 -0.9783 0.0000
-17 -2 6 -0.3925 0.0000
-17 -2 7 -0.3757 0.0000
-17 -2 8 0.2286 0.0000
-17 -2 9 1.3587 0.0000
-17 -2 10 -1.0166 0.0000
-17 -2 11 -0.3449 0.0000
-17 -2 12 -0.6952 0.0000
-17 -2 13 0.6433 0.0000
-17 -2 14 -0.0416 0.0000
-17 -2 15 -0.1244 0.0000
-17 -2 16 1.1989 0.0000
-17 -1 1 0.4288 0.0000
-17 -1 2 -0.1833 0.0000
-17 -1 3 -0.2220 0.0000
-17 -1 4 -0.3258 0.0000
-17 -1 5 -0.3251 0.0000
-17 -1 6 -0.6333 0.0000
-17 -1 7 -0.0812 0.0000
-17 -1 8 0.2222 0.0000
-17 -1 9 0.6139 0.0000
-17 -1 10 -1.8124 0.0000
-17 -1 11 2.4344 0.0000
-17 -1 12 0.2955 0.0000
-17 -1 13 -0.0686 0.0000
-17 -1 14 0.3845 0.0000
-17 -1 15 -0.7452 0.0000
-17 -1 16 0.6815 0.0000
-17 -1 17 0.3271 0.0000
-17 0 1 -0.4972 0.0000
-17 0 2 0.1319 0.0000
-17 0 3 1.0172 0.0000
-17 0 4 -0.6103 0.0000
-17 0 5 1.1553 0.0000
-17 0 6 1.2208 0.0000
-17 0 7 -0.8819 0.0000
-17 0 8 0.4886 0.0000
-17 0 9 -0.7020 0.0000
-17 0 10 0.1684 0.0000
-17 0 11 2.9851 0.0000
-17 0 12 -0.3536 0.0000
-17 0 13 -0.3060 0.0000
-17 0 14 0.0708 0.0000
-17 0 15 -0.7719 0.0000
-17 0 16 0.8380 0.0000
-17 0 17 -1.7129 0.0000
-17 0 18 -1.3323 0.0000
-17 1 1 -0.3082 0.0000
-17 1 2 0.1826 0.0000
-17 1 3 0.3265 0.0000
-17 1 4 -2.3673 0.0000
-17 1 5 0.6050 0.0000
-17 1 6 0.0873 0.0000
-17 1 7 0.2245 0.0000
-17 1 8 0.1542 0.0000
-17 1 9 -0.9378 0.0000
-17 1 10 0.8810 0.0000
-17 1 11 -0.7077 0.0000
-17 1 12 -0.6310 0.0000
-17 1 13 -0.0636 0.0000
-17 1 14 0.7801 0.0000
-17 1 15 -0.0970 0.0000
-17 1 16 1.0425 0.0000
-17 1 17 -1.6963 0.0000
-17 1 18 0.8041 0.0000
-17 2 1 -0.2052 0.0000
-17 2 2 0.6185 0.0000
-17 2 3 -0.0447 0.0000
-17 2 4 1.2637 0.0000
-17 2 5 0.1286 0.0000
-17 2 6 0.8788 0.0000
-17 2 7 0.4562 0.0000
-17 2 8 -0.8742 0.0000
-17 2 9 -0.3846 0.0000
-17 2 10 0.5364 0.0000
-17 2 11 -2.7157 0.0000
-17 2 12 0.6978 0.0000
-17 2 13 0.7417 0.0000
-17 2 14 -0.2569 0.0000
-17 2 15 0.8037 0.0000
-17 2 16 -1.3875 0.0000
-17 2 17 0.3347 0.0000
-17 2 18 0.9756 0.0000
-17 3 1 -0.6165 0.0000
-17 3 2 -0.7694 0.0000
-17 3 3 -1.4457 0.0000
-17 3 4 1.7390 0.0000
-17 3 5 -1.1953 0.0000
-17 3 6 1.1520 0.0000
-17 3 7 0.3654 0.0000
-17 3 8 -0.7523 0.0000
-17 3 9 2.3558 0.0000
-17 3 10 -0.1248 0.0000
-17 3 11 -1.1382 0.0000
-17 3 12 2.6968 0.0000
-17 3 13 -1.0705 0.0000
-17 3 14 -1.1431 0.0000
-17 3 15 -0.4819 0.0000
-17 3 16 -2.0045 0.0000
-17 3 17 1.4790 0.0000
-17 3 18 -0.5605 0.0000
-17 4 1 -0.3618 0.0000
-17 4 2 1.0123 0.0000
-17 4 3 0.6138 0.0000
-17 4 4 1.6192 0.0000
-17 4 5 -0.9667 0.0000
-17 4 6 -0.4971 0.0000
-17 4 7 -0.5516 0.0000
-17 4 8 -0.7325 0.0000
-17 4 9 1.5299 0.0000
-17 4 10 -2.2706 0.0000
-17 4 11 1.0914 0.0000
-17 4 12 0.7623 0.0000
-17 4 13 -0.7365 0.0000
-17 4 14 -0.1595 0.0000
-17 4 15 1.5084 0.0000
-17 4 16 0.7092 0.0000
-17 4 17 0.9926 0.0000
-17 4 18 -0.3922 0.0000
-17 5 1 -0.3163 0.0000
-17 5 2 0.0639 0.0000
-17 5 3 -0.2186 0.0000
-17 5 4 -1.2188 0.0000
-17 5 5 -0.7261 0.0000
-17 5 6 -1.2832 0.0000
-17 5 7 1.2782 0.0000
-17 5 8 -0.9564 0.0000
-17 5 9 -0.7208 0.0000
-17 5 10 -1.7183 0.0000
-17 5 11 1.3136 0.0000
-17 5 12 -2.5090 0.0000
-17 5 13 -0.0422 0.0000
-17 5 14 -0.1611 0.0000
-17 5 15 0.8763 0.0000
-17 5 16 0.4653 0.0000
-17 5 17 -1.8743 0.0000
-17 5 18 0.1144 0.0000
-17 6 1 1.3197 0.0000
-17 6 2 0.6544 0.0000
-17 6 3 -0.5181 0.0000
-17 6 4 -1.2849 0.0000
-17 6 5 -0.0553 0.0000
-17 6 6 -0.2890 0.0000
-17 6 7 0.8329 0.0000
-17 6 8 -0.2401 0.0000
-17 6 9 -1.1879 0.0000
-17 6 10 2.3975 0.0000
-17 6 11 -0.9964 0.0000
-17 6 12 -1.5053 0.0000
-17 6 13 0.8416 0.0000
-17 6 14 0.2155 0.0000
-17 6 15 -0.8590 0.0000
-17 6 16 -0.4041 0.0000
-17 6 17 -0.6293 0.0000
-17 6 18 0.8873 0.0000
-17 7 1 -0.2381 0.0000
-17 7 2 0.1513 0.0000
-17 7 3 -1.9094 0.0000
-17 7 4 0.0406 0.0000
-17 7 5 2.1334 0.0000
-17 7 6 0.3527 0.0000
-17 7 7 0.2777 0.0000
-17 7 8 0.5551 0.0000
-17 7 9 1.0210 0.0000
-17 7 10 2.1614 0.0000
-17 7 11 -0.8855 0.0000
-17 7 12 0.4953 0.0000
-17 7 13 1.2276 0.0000
-17 7 14 0.4730 0.0000
-17 7 15 -0.7813 0.0000
-17 7 16 1.6150 0.0000
-17 7 17 0.8168 0.0000
-17 7 18 0.6129 0.0000
-17 8 1 -1.1526 0.0000
-17 8 2 -0.2148 0.0000
-17 8 3 0.6415 0.0000
-17 8 4 0.0087 0.0000
-17 8 5 1.4299 0.0000
-17 8 6 -1.8485 0.0000
-17 8 7 -0.6815 0.0000
-17 8 8 0.4530 0.0000
-17 8 9 -1.1956 0.0000
-17 8 10 -0.0201 0.0000
-17 8 11 -0.2928 0.0000
-17 8 12 1.8648 0.0000
-17 8 13 -1.0236 0.0000
-17 8 14 -0.6164 0.0000
-17 8 15 -0.2596 0.0000
-17 8 16 0.9382 0.0000
-17 8 17 -0.9907 0.0000
-17 8 18 0.1554 0.0000
-17 9 1 -1.7165 0.0000
-17 9 2 1.9984 0.0000
-17 9 3 1.2402 0.0000
-17 9 4 1.3821 0.0000
-17 9 5 -0.8477 0.0000
-17 9 6 0.1253 0.0000
-17 9 7 1.8116 0.0000
-17 9 8 0.4466 0.0000
-17 9 9 -0.1925 0.0000
-17 9 10 -0.7751 0.0000
-17 9 11 0.7245 0.0000
-17 9 12 0.1515 0.0000
-17 9 13 -1.6703 0.0000
-17 9 14 0.3917 0.0000
-17 9 15 0.5835 0.0000
-17 9 16 -1.2700 0.0000
-17 9 17 -1.5625 0.0000
-17 10 1 0.7025 0.0000
-17 10 2 0.8132 0.0000
-17 10 3 -0.1375 0.0000
-17 10 4 -0.0472 0.0000
-17 10 5 -2.0285 0.0000
-17 10 6 0.5776 0.0000
-17 10 7 -0.0345 0.0000
-17 10 8 -2.1012 0.0000
-17 10 9 1.2202 0.0000
-17 10 10 0.1588 0.0000
-17 10 11 0.1220 0.0000
-17 10 12 0.0163 0.0000
-17 10 13 -0.7231 0.0000
-17 10 14 2.1808 0.0000
-17 10 15 -0.3013 0.0000
-17 10 16 -1.2638 0.0000
-17 10 17 0.7950 0.0000
-17 11 1 0.7518 0.0000
-17 11 2 -1.8241 0.0000
-17 11 3 -1.3360 0.0000
-17 11 4 -1.2264 0.0000
-17 11 5 -0.4147 0.0000
-17 11 6 1.0320 0.0000
-17 11 7 -1.6853 0.0000
-17 11 8 -0.6485 0.0000
-17 11 9 1.2177 0.0000
-17 11 10 -0.1027 0.0000
-17 11 11 -0.5047 0.0000
-17 11 12 0.0275 0.0000
-17 11 13 1.1772 0.0000
-17 11 14 -0.2129 0.0000
-17 11 15 -0.9260 0.0000
-17 11 16 0.2613 0.0000
-17 12 1 -0.0446 0.0000
-17 12 2 -1.8460 0.0000
-17 12 3 0.1854 0.0000
-17 12 4 -0.1959 0.0000
-17 12 5 2.8319 0.0000
-17 12 6 -0.1882 0.0000
-17 12 7 0.1821 0.0000
-17 12 8 1.3312 0.0000
-17 12 9 0.4385 0.0000
-17 12 10 0.0025 0.0000
-17 12 11 -0.3839 0.0000
-17 12 12 0.5186 0.0000
-17 12 13 1.2799 0.0000
-17 12 14 -1.3719 0.0000
-17 12 15 0.3572 0.0000
-17 13 1 1.2954 0.0000
-17 13 2 0.8196 0.0000
-17 13 3 0.4068 0.0000
-17 13 4 0.9971 0.0000
-17 13 5 0.7534 0.0000
-17 13 6 -1.0840 0.0000
-17 13 7 0.1170 0.0000
-17 13 8 0.8442 0.0000
-17 13 9 -2.1932 0.0000
-17 13 10 -0.1501 0.0000
-17 13 11 -0.5221 0.0000
-17 13 12 0.7449 0.0000
-17 13 13 -0.3693 0.0000
-17 13 14 -0.6776 0.0000
-17 13 15 1.0858 0.0000
-17 14 1 0.5140 0.0000
-17 14 2 0.9772 0.0000
-17 14 3 -0.5096 0.0000
-17 14 4 0.8842 0.0000
-17 14 5 -1.9102 0.0000
-17 14 6 -0.3708 0.0000
-17 14 7 -0.3611 0.0000
-17 14 8 0.6655 0.0000
-17 14 9 -1.4979 0.0000
-17 14 10 -0.0244 0.0000
-17 14 11 0.0781 0.0000
-17 14 12 0.0200 0.0000
-17 14 13 -1.3817 0.0000
-17 14 14 0.6152 0.0000
-17 15 1 0.4770 0.0000
-17 15 2 0.1351 0.0000
-17 15 3 -0.8866 0.0000
-17 15 4 -0.0055 0.0000
-17 15 5 0.1264 0.0000
-17 15 6 -0.2870 0.0000
-17 15 7 -0.0897 0.0000
-17 15 8 -0.7355 0.0000
-17 15 9 0.0644 0.0000
-17 15 10 -0.0908 0.0000
-17 15 11 0.0106 0.0000
-17 15 12 -1.0906 0.0000
-17 15 13 -0.3871 0.0000
-17 16 1 -1.4026 0.0000
-17 16 2 0.2339 0.0000
-17 16 3 -1.4392 0.0000
-17 16 4 1.0315 0.0000
-17 16 5 0.3676 0.0000
-17 16 6 0.0697 0.0000
-17 16 7 0.8406 0.0000
-17 16 8 -0.8073 0.0000
-17 16 9 1.8186 0.0000
-17 16 10 0.0534 0.0000
-17 16 11 -0.9206 0.0000
-17 16 12 -0.1422 0.0000
-17 17 1 -1.9464 0.0000
-17 17 2 -0.4520 0.0000
-17 17 3 -0.0178 0.0000
-17 17 4 -0.2604 0.0000
-17 17 5 -1.7075 0.0000
-17 17 6 0.0443 0.0000
-17 17 7 0.1999 0.0000
-17 17 8 -1.0761 0.0000
-17 17 9 1.2958 0.0000
-17 17 10 -0.2488 0.0000
-17 18 1 1.3193 0.0000
-17 18 2 0.5687 0.0000
-17 18 3 3.2354 0.0000
-17 18 4 -0.4460 0.0000
-17 18 5 0.4035 0.0000
-17 18 6 2.0214 0.0000
-17 18 7 0.4010 0.0000
-17 18 8 0.4498 0.0000
-17 18 9 0.5633 0.0000
-17 19 1 0.5667 0.0000
-17 19 2 0.5887 0.0000
-17 19 3 -0.2534 0.0000
-17 19 4 -0.9580 0.0000
-17 19 5 0.5912 0.0000
-17 19 6 -0.0710 0.0000
-17 19 7 0.1088 0.0000
-17 20 1 -0.4534 0.0000
-17 20 2 -0.7402 0.0000
-17 20 3 -1.3874 0.0000
-17 20 4 0.1657 0.0000
-16 -6 7 -0.1233 0.0000
-16 -6 8 -0.2696 0.0000
-16 -6 9 0.8443 0.0000
-16 -6 10 -0.4147 0.0000
-16 -6 11 -0.7888 0.0000
-16 -6 12 1.2788 0.0000
-16 -5 3 0.1154 0.0000
-16 -5 4 0.3476 0.0000
-16 -5 5 -0.4281 0.0000
-16 -5 6 -0.1361 0.0000
-16 -5 7 -0.8732 0.0000
-16 -5 8 0.6505 0.0000
-16 -5 9 0.2160 0.0000
-16 -5 10 0.3581 0.0000
-16 -5 11 0.0873 0.0000
-16 -5 12 1.3988 0.0000
-16 -5 13 0.6192 0.0000
-16 -5 14 -1.0743 0.0000
-16 -4 1 -0.8333 0.0000
-16 -4 2 1.1483 0.0000
-16 -4 3 0.1052 0.0000
-16 -4 4 0.5262 0.0000
-16 -4 5 -1.3263 0.0000
-16 -4 6 -1.3180 0.0000
-16 -4 7 0.6890 0.0000
-16 -4 8 -0.7564 0.0000
-16 -4 9 -1.1753 0.0000
-16 -4 10 0.3994 0.0000
-16 -4 11 -1.7196 0.0000
-16 -4 12 -1.9951 0.0000
-16 -4 13 -0.9221 0.0000
-16 -4 14 -0.0353 0.0000
-16 -4 15 0.1216 0.0000
-16 -4 16 1.2778 0.0000
-16 -3 1 0.2820 0.0000
-16 -3 2 0.0897 0.0000
-16 -3 3 -0.1556 0.0000
-16 -3 4 0.9987 0.0000
-16 -3 5 -0.5258 0.0000
-16 -3 6 0.4417 0.0000
-16 -3 7 0.4007 0.0000
-16 -3 8 -1.0018 0.0000
-16 -3 9 0.4604 0.0000
-16 -3 10 2.3129 0.0000
-16 -3 11 0.2596 0.0000
-16 -3 12 -0.7108 0.0000
-16 -3 13 1.5523 0.0000
-16 -3 14 0.6929 0.0000
-16 -3 15 0.5557 0.0000
-16 -3 16 0.0483 0.0000
-16 -3 17 -0.3836 0.0000
-16 -2 1 0.9452 0.0000
-16 -2 2 0.2423 0.0000
-16 -2 3 -0.7033 0.0000
-16 -2 4 0.5795 0.0000
-16 -2 5 0.8252 0.0000
-16 -2 6 0.3568 0.0000
-16 -2 7 0.2245 0.0000
-16 -2 8 -0.8939 0.0000
-16 -2 9 2.0813 0.0000
-16 -2 10 -0.0302 0.0000
-16 -2 11 -0.2896 0.0000
-16 -2 12 0.5645 0.0000
-16 -2 13 0.5316 0.0000
-16 -2 14 0.0622 0.0000
-16 -2 15 -1.2381 0.0000
-16 -2 16 -0.5261 0.0000
-16 -2 17 -0.8524 0.0000
-16 -2 18 1.3127 0.0000
-16 -1 1 0.2317 0.0000
-16 -1 2 -0.0017 0.0000
-16 -1 3 -0.7676 0.0000
-16 -1 4 1.2850 0.0000
-16 -1 5 0.1029 0.0000
-16 -1 6 0.4158 0.0000
-16 -1 7 0.0471 0.0000
-16 -1 8 -0.5619 0.0000
-16 -1 9 1.4205 0.0000
-16 -1 10 -2.4656 0.0000
-16 -1 11 0.2322 0.0000
-16 -1 12 0.8501 0.0000
-16 -1 13 -0.7004 0.0000
-16 -1 14 -0.6197 0.0000
-16 -1 15 -0.9365 0.0000
-16 -1 16 0.3978 0.0000
-16 -1 17 0.0526 0.0000
-16 -1 18 -0.4438 0.0000
-16 0 1 -0.1737 0.0000
-16 0 2 -1.4806 0.0000
-16 0 3 0.0139 0.0000
-16 0 4 -0.0445 0.0000
-16 0 5 -1.5693 0.0000
-16 0 6 1.3957 0.0000
-16 0 7 -0.2153 0.0000
-16 0 8 0.5548 0.0000
-16 0 9 -0.5136 0.0000
-16 0 10 -1.9139 0.0000
-16 0 11 1.5490 0.0000
-16 0 12 1.0134 0.0000
-16 0 13 -1.0598 0.0000
-16 0 14 1.0292 0.0000
-16 0 15 -1.1318 0.0000
-16 0 16 1.5955 0.0000
-16 0 17 -0.5320 0.0000
-16 0 18 -1.3859 0.0000
-16 0 19 1.5668 0.0000
-16 1 1 -1.0111 0.0000
-16 1 2 0.6861 0.0000
-16 1 3 2.3224 0.0000
-16 1 4 -0.3497 0.0000
-16 1 5 0.2773 0.0000
-16 1 6 0.0447 0.0000
-16 1 7 -0.4956 0.0000
-16 1 8 0.1338 0.0000
-16 1 9 -1.5898 0.0000
-16 1 10 0.8335 0.0000
-16 1 11 0.3813 0.0000
-16 1 12 -0.7063 0.0000
-16 1 13 -1.1578 0.0000
-16 1 14 1.2501 0.0000
-16 1 15 -0.3921 0.0000
-16 1 16 1.1138 0.0000
-16 1 17 -0.7522 0.0000
-16 1 18 -0.1581 0.0000
-16 1 19 1.1607 0.0000
-16 2 1 -1.3248 0.0000
-16 2 2 1.7161 0.0000
-16 2 3 -1.9286 0.0000
-16 2 4 -0.3491 0.0000
-16 2 5 -0.3166 0.0000
-16 2 6 0.2909 0.0000
-16 2 7 0.9797 0.0000
-16 2 8 0.2102 0.0000
-16 2 9 0.4747 0.0000
-16 2 10 2.1045 0.0000
-16 2 11 -1.6915 0.0000
-16 2 12 -0.9918 0.0000
-16 2 13 0.6305 0.0000
-16 2 14 -0.1444 0.0000
-16 2 15 0.4262 0.0000
-16 2 16 -1.2155 0.0000
-16 2 17 -0.8737 0.0000
-16 2 18 0.8489 0.0000
-16 2 19 -0.8645 0.0000
-16 3 1 0.4834 0.0000
-16 3 2 1.1198 0.0000
-16 3 3 -1.7519 0.0000
-16 3 4 0.9881 0.0000
-16 3 5 -0.2249 0.0000
-16 3 6 -0.5601 0.0000
-16 3 7 0.0570 0.0000
-16 3 8 -1.2913 0.0000
-16 3 9 0.5372 0.0000
-16 3 10 0.5067 0.0000
-16 3 11 -3.4419 0.0000
-16 3 12 1.9941 0.0000
-16 3 13 1.2385 0.0000
-16 3 14 -0.8544 0.0000
-16 3 15 1.3127 0.0000
-16 3 16 -1.7061 0.0000
-16 3 17 1.6217 0.0000
-16 3 18 0.7349 0.0000
-16 3 19 -0.1610 0.0000
-16 4 1 -1.3473 0.0000
-16 4 2 -1.2977 0.0000
-16 4 3 -1.2584 0.0000
-16 4 4 0.1500 0.0000
-16 4 5 -0.2166 0.0000
-16 4 6 -2.4269 0.0000
-16 4 7 0.5803 0.0000
-16 4 8 -2.1815 0.0000
-16 4 9 0.8891 0.0000
-16 4 10 -2.2594 0.0000
-16 4 11 -0.1425 0.0000
-16 4 12 1.6210 0.0000
-16 4 13 -0.4405 0.0000
-16 4 14 -1.6916 0.0000
-16 4 15 0.7995 0.0000
-16 4 16 0.0733 0.0000
-16 4 17 1.5558 0.0000
-16 4 18 -1.4817 0.0000
-16 4 19 -0.1046 0.0000
-16 5 1 -0.4824 0.0000
-16 5 2 -0.0013 0.0000
-16 5 3 1.8159 0.0000
-16 5 4 0.2606 0.0000
-16 5 5 0.6114 0.0000
-16 5 6 -1.2330 0.0000
-16 5 7 2.5972 0.0000
-16 5 8 0.4931 0.0000
-16 5 9 0.7437 0.0000
-16 5 10 -0.2545 0.0000
-16 5 11 2.0748 0.0000
-16 5 12 -0.8407 0.0000
-16 5 13 -1.7339 0.0000
-16 5 14 -0.2850 0.0000
-16 5 15 0.1984 0.0000
-16 5 16 0.7899 0.0000
-16 5 17 -0.4152 0.0000
-16 5 18 -0.8435 0.0000
-16 5 19 -0.4745 0.0000
-16 6 1 0.4382 0.0000
-16 6 2 1.7213 0.0000
-16 6 3 0.3024 0.0000
-16 6 4 -0.6839 0.0000
-16 6 5 0.5890 0.0000
-16 6 6 1.5495 0.0000
-16 6 7 0.9093 0.0000
-16 6 8 1.3736 0.0000
-16 6 9 -0.3774 0.0000
-16 6 10 2.7154 0.0000
-16 6 11 1.7017 0.0000
-16 6 12 -1.0544 0.0000
-16 6 13 1.1549 0.0000
-16 6 14 2.1840 0.0000
-16 6 15 0.5673 0.0000
-16 6 16 -0.1406 0.0000
-16 6 17 -0.5407 0.0000
-16 6 18 1.7946 0.0000
-16 6 19 -0.1118 0.0000
-16 7 1 0.0177 0.0000
-16 7 2 1.1242 0.0000
-16 7 3 -0.3259 0.0000
-16 7 4 -2.0735 0.0000
-16 7 5 1.4356 0.0000
-16 7 6 -0.1178 0.0000
-16 7 7 -2.3554 0.0000
-16 7 8 -0.5304 0.0000
-16 7 9 -1.9090 0.0000
-16 7 10 0.6037 0.0000
-16 7 11 -1.5346 0.0000
-16 7 12 -0.1865 0.0000
-16 7 13 0.2206 0.0000
-16 7 14 -0.0615 0.0000
-16 7 15 -2.4178 0.0000
-16 7 16 -0.4347 0.0000
-16 7 17 -0.5460 0.0000
-16 7 18 0.7098 0.0000
-16 7 19 -1.1095 0.0000
-16 8 1 -1.2477 0.0000
-16 8 2 -0.3544 0.0000
-16 8 3 0.6245 0.0000
-16 8 4 0.3921 0.0000
-16 8 5 1.7167 0.0000
-16 8 6 -0.8029 0.0000
-16 8 7 -0.7653 0.0000
-16 8 8 2.1316 0.0000
-16 8 9 -0.5643 0.0000
-16 8 10 -0.7258 0.0000
-16 8 11 -0.6945 0.0000
-16 8 12 0.9956 0.0000
-16 8 13 0.1743 0.0000
-16 8 14 -1.4352 0.0000
-16 8 15 -0.2031 0.0000
-16 8 16 1.5626 0.0000
-16 8 17 -0.4641 0.0000
-16 8 18 0.0937 0.0000
-16 9 1 -2.2304 0.0000
-16 9 2 -0.4710 0.0000
-16 9 3 -0.1529 0.0000
-16 9 4 0.9359 0.0000
-16 9 5 -1.2863 0.0000
-16 9 6 -2.4987 0.0000
-16 9 7 1.4137 0.0000
-16 9 8 -0.2306 0.0000
-16 9 9 -0.1349 0.0000
-16 9 10 -0.3926 0.0000
-16 9 11 0.6941 0.0000
-16 9 12 0.8200 0.0000
-16 9 13 -1.5367 0.0000
-16 9 14 0.4512 0.0000
-16 9 15 1.5721 0.0000
-16 9 16 0.9130 0.0000
-16 9 17 -2.0130 0.0000
-16 9 18 0.2788 0.0000
-16 10 1 -0.4180 0.0000
-16 10 2 -0.0464 0.0000
-16 10 3 -0.7686 0.0000
-16 10 4 0.2517 0.0000
-16 10 5 -2.0791 0.0000
-16 10 6 0.5354 0.0000
-16 10 7 1.8025 0.0000
-16 10 8 -2.4325 0.0000
-16 10 9 0.2570 0.0000
-16 10 10 0.8632 0.0000
-16 10 11 0.0323 0.0000
-16 10 12 0.0217 0.0000
-16 10 13 -1.2612 0.0000
-16 10 14 1.7403 0.0000
-16 10 15 0.3044 0.0000
-16 10 16 -1.4950 0.0000
-16 10 17 0.6476 0.0000
-16 11 1 1.7453 0.0000
-16 11 2 0.0697 0.0000
-16 11 3 0.2305 0.0000
-16 11 4 -0.4179 0.0000
-16 11 5 0.5900 0.0000
-16 11 6 2.2876 0.0000
-16 11 7 -0.3537 0.0000
-16 11 8 -1.7617 0.0000
-16 11 9 1.4715 0.0000
-16 11 10 0.1754 0.0000
-16 11 11 -0.4790 0.0000
-16 11 12 -0.8017 0.0000
-16 11 13 1.5724 0.0000
-16 11 14 0.8985 0.0000
-16 11 15 -1.1273 0.0000
-16 11 16 -1.1918 0.0000
-16 11 17 0.9488 0.0000
-16 12 1 3.0531 0.0000
-16 12 2 0.5655 0.0000
-16 12 3 0.8341 0.0000
-16 12 4 -1.4191 0.0000
-16 12 5 2.0633 0.0000
-16 12 6 0.2007 0.0000
-16 12 7 -1.6185 0.0000
-16 12 8 1.0130 0.0000
-16 12 9 -0.1533 0.0000
-16 12 10 -0.5814 0.0000
-16 12 11 -1.1992 0.0000
-16 12 12 -0.3759 0.0000
-16 12 13 1.1275 0.0000
-16 12 14 -1.7265 0.0000
-16 12 15 -0.4876 0.0000
-16 12 16 1.5001 0.0000
-16 13 1 -1.4655 0.0000
-16 13 2 0.3674 0.0000
-16 13 3 -0.7760 0.0000
-16 13 4 0.0013 0.0000
-16 13 5 0.3268 0.0000
-16 13 6 -1.3210 0.0000
-16 13 7 -0.9482 0.0000
-16 13 8 1.9485 0.0000
-16 13 9 -1.2174 0.0000
-16 13 10 -0.8332 0.0000
-16 13 11 -0.6897 0.0000
-16 13 12 0.7982 0.0000
-16 13 13 -0.6179 0.0000
-16 13 14 -1.1879 0.0000
-16 13 15 0.1106 0.0000
-16 14 1 -1.6521 0.0000
-16 14 2 0.7753 0.0000
-16 14 3 -0.9864 0.0000
-16 14 4 0.8519 0.0000
-16 14 5 -0.6943 0.0000
-16 14 6 0.1003 0.0000
-16 14 7 -0.5134 0.0000
-16 14 8 1.0239 0.0000
-16 14 9 -0.9476 0.0000
-16 14 10 0.2915 0.0000
-16 14 11 0.4012 0.0000
-16 14 12 0.6532 0.0000
-16 14 13 -1.1425 0.0000
-16 14 14 1.1431 0.0000
-16 15 1 -0.6852 0.0000
-16 15 2 0.5599 0.0000
-16 15 3 -0.7233 0.0000
-16 15 4 -0.5412 0.0000
-16 15 5 0.6831 0.0000
-16 15 6 0.7622 0.0000
-16 15 7 0.7561 0.0000
-16 15 8 0.0040 0.0000
-16 15 9 0.4034 0.0000
-16 15 10 1.5248 0.0000
-16 15 11 0.5262 0.0000
-16 15 12 -0.4982 0.0000
-16 15 13 0.2381 0.0000
-16 16 1 -0.9812 0.0000
-16 16 2 0.5762 0.0000
-16 16 3 -1.2916 0.0000
-16 16 4 0.4009 0.0000
-16 16 5 0.5679 0.0000
-16 16 6 -0.3022 0.0000
-16 16 7 1.3291 0.0000
-16 16 8 -1.0322 0.0000
-16 16 9 1.0854 0.0000
-16 16 10 1.7890 0.0000
-16 16 11 -0.4365 0.0000
-16 16 12 0.7469 0.0000
-16 17 1 0.1580 0.0000
-16 17 2 0.3053 0.0000
-16 17 3 1.7105 0.0000
-16 17 4 1.6930 0.0000
-16 17 5 -0.8169 0.0000
-16 17 6 -0.4608 0.0000
-16 17 7 0.8707 0.0000
-16 17 8 -1.0522 0.0000
-16 17 9 0.6464 0.0000
-16 17 10 -0.3880 0.0000
-16 17 11 -0.7701 0.0000
-16 18 1 -0.2910 0.0000
-16 18 2 -0.5169 0.0000
-16 18 3 0.6641 0.0000
-16 18 4 -0.4917 0.0000
-16 18 5 -2.2268 0.0000
-16 18 6 0.4059 0.0000
-16 18 7 -0.7586 0.0000
-16 18 8 -0.5030 0.0000
-16 18 9 -0.4982 0.0000
-16 19 1 -0.5820 0.0000
-16 19 2 0.0016 0.0000
-16 19 3 -0.5532 0.0000
-16 19 4 -0.7353 0.0000
-16 19 5 0.4757 0.0000
-16 19 6 -0.0264 0.0000
-16 19 7 0.2724 0.0000
-16 19 8 -0.1696 0.0000
-16 20 1 0.4390 0.0000
-16 20 2 -0.1940 0.0000
-16 20 3 -1.4346 0.0000
-16 20 4 1.2269 0.0000
-16 20 5 0.6177 0.0000
-16 21 1 1.4500 0.0000
-15 -7 5 -0.3415 0.0000
-15 -7 6 0.3790 0.0000
-15 -7 7 1.3237 0.0000
-15 -7 8 -0.6664 0.0000
-15 -7 9 0.1194 0.0000
-15 -7 10 0.3913 0.0000
-15 -7 11 -0.2233 0.0000
-15 -7 12 0.2629 0.0000
-15 -7 13 0.4076 0.0000
-15 -6 2 0.0027 0.0000
-15 -6 3 -0.5171 0.0000
-15 -6 4 0.3210 0.0000
-15 -6 5 -0.7222 0.0000
-15 -6 6 0.8142 0.0000
-15 -6 7 -1.2925 0.0000
-15 -6 8 -0.9453 0.0000
-15 -6 9 0.6217 0.0000
-15 -6 10 0.2751 0.0000
-15 -6 11 -1.2035 0.0000
-15 -6 12 -0.0369 0.0000
-15 -6 13 1.4819 0.0000
-15 -6 14 -0.8447 0.0000
-15 -6 15 -0.1344 0.0000
-15 -5 1 0.6061 0.0000
-15 -5 2 0.4939 0.0000
-15 -5 3 -0.2396 0.0000
-15 -5 4 0.7529 0.0000
-15 -5 5 -0.8406 0.0000
-15 -5 6 -1.5070 0.0000
-15 -5 7 -1.2042 0.0000
-15 -5 8 0.9878 0.0000
-15 -5 9 -0.4303 0.0000
-15 -5 10 0.2678 0.0000
-15 -5 11 -1.1896 0.0000
-15 -5 12 -0.3500 0.0000
-15 -5 13 -0.0919 0.0000
-15 -5 14 -0.2761 0.0000
-15 -5 15 -0.9493 0.0000
-15 -5 16 0.7202 0.0000
-15 -5 17 1.5121 0.0000
-15 -4 1 -0.2888 0.0000
-15 -4 2 -0.1631 0.0000
-15 -4 3 0.5535 0.0000
-15 -4 4 2.2059 0.0000
-15 -4 5 0.8238 0.0000
-15 -4 6 -0.7265 0.0000
-15 -4 7 2.6106 0.0000
-15 -4 8 0.5472 0.0000
-15 -4 9 -0.4572 0.0000
-15 -4 10 1.5991 0.0000
-15 -4 11 2.1432 0.0000
-15 -4 12 0.1987 0.0000
-15 -4 13 -0.0313 0.0000
-15 -4 14 0.0326 0.0000
-15 -4 15 0.3334 0.0000
-15 -4 16 0.4112 0.0000
-15 -4 17 0.0764 0.0000
-15 -4 18 -2.1596 0.0000
-15 -3 1 0.0180 0.0000
-15 -3 2 -0.2024 0.0000
-15 -3 3 0.2234 0.0000
-15 -3 4 0.5620 0.0000
-15 -3 5 -0.2674 0.0000
-15 -3 6 1.4988 0.0000
-15 -3 7 1.8471 0.0000
-15 -3 8 -1.5556 0.0000
-15 -3 9 -0.8976 0.0000
-15 -3 10 0.1743 0.0000
-15 -3 11 0.7891 0.0000
-15 -3 12 -2.3638 0.0000
-15 -3 13 0.2179 0.0000
-15 -3 14 0.1554 0.0000
-15 -3 15 0.4447 0.0000
-15 -3 16 -0.2831 0.0000
-15 -3 17 -2.1138 0.0000
-15 -3 18 0.3205 0.0000
-15 -3 19 0.7667 0.0000
-15 -2 1 -0.3255 0.0000
-15 -2 2 0.8208 0.0000
-15 -2 3 -0.7805 0.0000
-15 -2 4 -1.2444 0.0000
-15 -2 5 0.4575 0.0000
-15 -2 6 -0.6525 0.0000
-15 -2 7 -0.5033 0.0000
-15 -2 8 -2.5292 0.0000
-15 -2 9 0.0111 0.0000
-15 -2 10 0.7791 0.0000
-15 -2 11 -1.3638 0.0000
-15 -2 12 -1.0234 0.0000
-15 -2 13 0.9031 0.0000
-15 -2 14 -0.0173 0.0000
-15 -2 15 -1.1043 0.0000
-15 -2 16 -0.3081 0.0000
-15 -2 17 -1.0193 0.0000
-15 -2 18 2.3949 0.0000
-15 -2 19 0.5498 0.0000
-15 -1 1 0.2050 0.0000
-15 -1 2 0.5991 0.0000
-15 -1 3 -3.3009 0.0000
-15 -1 4 1.4478 0.0000
-15 -1 5 0.0363 0.0000
-15 -1 6 -0.3253 0.0000
-15 -1 7 0.9275 0.0000
-15 -1 8 -0.1066 0.0000
-15 -1 9 2.2632 0.0000
-15 -1 10 -0.2260 0.0000
-15 -1 11 -1.0553 0.0000
-15 -1 12 1.5166 0.0000
-15 -1 13 1.1058 0.0000
-15 -1 14 -0.1564 0.0000
-15 -1 15 -1.3019 0.0000
-15 -1 16 0.8789 0.0000
-15 -1 17 0.6210 0.0000
-15 -1 18 -0.1037 0.0000
-15 -1 19 -0.7166 0.0000
-15 -1 20 0.3855 0.0000
-15 0 1 1.2114 0.0000
-15 0 2 -0.3266 0.0000
-15 0 3 -0.4256 0.0000
-15 0 4 2.5560 0.0000
-15 0 5 -2.0460 0.0000
-15 0 6 -0.0518 0.0000
-15 0 7 -0.1610 0.0000
-15 0 8 0.9633 0.0000
-15 0 9 0.0605 0.0000
-15 0 10 -1.3170 0.0000
-15 0 11 -1.0352 0.0000
-15 0 12 2.6037 0.0000
-15 0 13 -2.1102 0.0000
-15 0 14 0.8408 0.0000
-15 0 15 -0.6116 0.0000
-15 0 16 1.1131 0.0000
-15 0 17 1.0569 0.0000
-15 0 18 -2.0578 0.0000
-15 0 19 1.0569 0.0000
-15 0 20 0.3480 0.0000
-15 1 1 -2.1858 0.0000
-15 1 2 -0.1873 0.0000
-15 1 3 1.1255 0.0000
-15 1 4 -0.4158 0.0000
-15 1 5 -1.1805 0.0000
-15 1 6 0.8725 0.0000
-15 1 7 0.4186 0.0000
-15 1 8 -0.0236 0.0000
-15 1 9 -1.6569 0.0000
-15 1 10 -0.4133 0.0000
-15 1 11 0.6978 0.0000
-15 1 12 0.5153 0.0000
-15 1 13 -2.2086 0.0000
-15 1 14 1.2595 0.0000
-15 1 15 0.0049 0.0000
-15 1 16 0.0839 0.0000
-15 1 17 -0.3452 0.0000
-15 1 18 -1.4225 0.0000
-15 1 19 1.5961 0.0000
-15 1 20 -1.1108 0.0000
-15 2 1 -2.5112 0.0000
-15 2 2 2.8153 0.0000
-15 2 3 -0.1434 0.0000
-15 2 4 -1.2353 0.0000
-15 2 5 -0.0446 0.0000
-15 2 6 0.1670 0.0000
-15 2 7 -0.4371 0.0000
-15 2 8 -0.8864 0.0000
-15 2 9 -0.5809 0.0000
-15 2 10 2.8885 0.0000
-15 2 11 -0.1447 0.0000
-15 2 12 -1.5727 0.0000
-15 2 13 0.3472 0.0000
-15 2 14 0.3809 0.0000
-15 2 15 0.6239 0.0000
-15 2 16 -0.0993 0.0000
-15 2 17 -0.2408 0.0000
-15 2 18 0.8196 0.0000
-15 2 19 0.5212 0.0000
-15 2 20 -0.6936 0.0000
-15 3 1 -0.4539 0.0000
-15 3 2 0.5140 0.0000
-15 3 3 -2.3760 0.0000
-15 3 4 -1.9266 0.0000
-15 3 5 1.2550 0.0000
-15 3 6 -2.0676 0.0000
-15 3 7 -0.4932 0.0000
-15 3 8 -0.3805 0.0000
-15 3 9 0.1473 0.0000
-15 3 10 2.0262 0.0000
-15 3 11 -3.1349 0.0000
-15 3 12 -0.9454 0.0000
-15 3 13 2.8395 0.0000
-15 3 14 -1.4567 0.0000
-15 3 15 1.9583 0.0000
-15 3 16 -1.1605 0.0000
-15 3 17 0.9765 0.0000
-15 3 18 -0.2537 0.0000
-15 3 19 -1.5810 0.0000
-15 3 20 0.7733 0.0000
-15 4 1 0.0615 0.0000
-15 4 2 -0.5830 0.0000
-15 4 3 0.6721 0.0000
-15 4 4 0.8554 0.0000
-15 4 5 3.9347 0.0000
-15 4 6 -2.4224 0.0000
-15 4 7 3.3382 0.0000
-15 4 8 0.9798 0.0000
-15 4 9 1.5401 0.0000
-15 4 10 -0.3303 0.0000
-15 4 11 -1.4630 0.0000
-15 4 12 2.2024 0.0000
-15 4 13 0.6768 0.0000
-15 4 14 -2.4753 0.0000
-15 4 15 -0.0108 0.0000
-15 4 16 -1.7085 0.0000
-15 4 17 1.7722 0.0000
-15 4 18 -0.7141 0.0000
-15 4 19 -1.0051 0.0000
-15 4 20 0.8196 0.0000
-15 5 1 0.0170 0.0000
-15 5 2 -0.3470 0.0000
-15 5 3 2.2408 0.0000
-15 5 4 1.2666 0.0000
-15 5 5 1.4127 0.0000
-15 5 6 -0.7318 0.0000
-15 5 7 2.1218 0.0000
-15 5 8 0.2485 0.0000
-15 5 9 -0.1421 0.0000
-15 5 10 0.0355 0.0000
-15 5 11 2.6003 0.0000
-15 5 12 2.6404 0.0000
-15 5 13 -0.6334 0.0000
-15 5 14 -0.2106 0.0000
-15 5 15 1.3503 0.0000
-15 5 16 -0.3187 0.0000
-15 5 17 0.7025 0.0000
-15 5 18 0.8298 0.0000
-15 5 19 0.9477 0.0000
-15 5 20 1.2896 0.0000
-15 6 1 -0.7622 0.0000
-15 6 2 0.8963 0.0000
-15 6 3 0.7940 0.0000
-15 6 4 -1.7660 0.0000
-15 6 5 -2.9116 0.0000
-15 6 6 0.7618 0.0000
-15 6 7 -2.2105 0.0000
-15 6 8 -1.4330 0.0000
-15 6 9 -2.3401 0.0000
-15 6 10 -0.5077 0.0000
-15 6 11 0.3034 0.0000
-15 6 12 -2.1214 0.0000
-15 6 13 -2.4898 0.0000
-15 6 14 0.2765 0.0000
-15 6 15 0.3215 0.0000
-15 6 16 -0.5708 0.0000
-15 6 17 -1.9784 0.0000
-15 6 18 0.6092 0.0000
-15 6 19 -1.1280 0.0000
-15 6 20 -1.6165 0.0000
-15 7 1 0.4212 0.0000
-15 7 2 -0.2543 0.0000
-15 7 3 0.5409 0.0000
-15 7 4 -2.3284 0.0000
-15 7 5 -0.4058 0.0000
-15 7 6 2.2270 0.0000
-15 7 7 -2.7479 0.0000
-15 7 8 1.1681 0.0000
-15 7 9 -0.3108 0.0000
-15 7 10 -0.0164 0.0000
-15 7 11 -0.9429 0.0000
-15 7 12 -1.2357 0.0000
-15 7 13 1.5203 0.0000
-15 7 14 1.1277 0.0000
-15 7 15 -0.5720 0.0000
-15 7 16 0.1297 0.0000
-15 7 17 -0.0058 0.0000
-15 7 18 1.2518 0.0000
-15 7 19 0.7107 0.0000
-15 8 1 -1.0010 0.0000
-15 8 2 -1.5237 0.0000
-15 8 3 -0.9574 0.0000
-15 8 4 -0.1454 0.0000
-15 8 5 1.9321 0.0000
-15 8 6 -0.9569 0.0000
-15 8 7 -1.6767 0.0000
-15 8 8 1.6358 0.0000
-15 8 9 0.8813 0.0000
-15 8 10 -1.2563 0.0000
-15 8 11 0.1919 0.0000
-15 8 12 -0.2577 0.0000
-15 8 13 1.8497 0.0000
-15 8 14 -1.4400 0.0000
-15 8 15 -0.8407 0.0000
-15 8 16 1.4947 0.0000
-15 8 17 0.2517 0.0000
-15 8 18 -1.0387 0.0000
-15 8 19 0.6453 0.0000
-15 9 1 -1.6067 0.0000
-15 9 2 -0.4164 0.0000
-15 9 3 -0.6146 0.0000
-15 9 4 2.0167 0.0000
-15 9 5 1.3426 0.0000
-15 9 6 -2.6868 0.0000
-15 9 7 2.2831 0.0000
-15 9 8 0.8893 0.0000
-15 9 9 -0.2135 0.0000
-15 9 10 0.4446 0.0000
-15 9 11 1.1504 0.0000
-15 9 12 2.0404 0.0000
-15 9 13 -1.1247 0.0000
-15 9 14 -0.6022 0.0000
-15 9 15 0.4762 0.0000
-15 9 16 1.5208 0.0000
-15 9 17 -0.6773 0.0000
-15 9 18 -0.6039 0.0000
-15 10 1 -0.3224 0.0000
-15 10 2 1.2805 0.0000
-15 10 3 0.2399 0.0000
-15 10 4 0.9241 0.0000
-15 10 5 -1.3833 0.0000
-15 10 6 -1.0465 0.0000
-15 10 7 2.8740 0.0000
-15 10 8 -2.8513 0.0000
-15 10 9 -1.2155 0.0000
-15 10 10 0.0235 0.0000
-15 10 11 -0.0855 0.0000
-15 10 12 -0.3008 0.0000
-15 10 13 -1.6243 0.0000
-15 10 14 1.7404 0.0000
-15 10 15 1.0731 0.0000
-15 10 16 -1.8651 0.0000
-15 10 17 -1.7151 0.0000
-15 10 18 -0.3010 0.0000
-15 11 1 3.0408 0.0000
-15 11 2 1.6881 0.0000
-15 11 3 1.5985 0.0000
-15 11 4 -1.1718 0.0000
-15 11 5 -0.1418 0.0000
-15 11 6 2.7390 0.0000
-15 11 7 0.7949 0.0000
-15 11 8 -1.5406 0.0000
-15 11 9 0.6128 0.0000
-15 11 10 0.7623 0.0000
-15 11 11 -0.8051 0.0000
-15 11 12 -1.8761 0.0000
-15 11 13 -0.1939 0.0000
-15 11 14 0.7522 0.0000
-15 11 15 -0.9626 0.0000
-15 11 16 -0.3692 0.0000
-15 11 17 0.7489 0.0000
-15 12 1 -0.5271 0.0000
-15 12 2 -0.9067 0.0000
-15 12 3 0.0081 0.0000
-15 12 4 -2.2015 0.0000
-15 12 5 0.4671 0.0000
-15 12 6 0.6304 0.0000
-15 12 7 -2.5390 0.0000
-15 12 8 1.2211 0.0000
-15 12 9 1.0819 0.0000
-15 12 10 0.0946 0.0000
-15 12 11 -0.7682 0.0000
-15 12 12 -0.0773 0.0000
-15 12 13 2.0599 0.0000
-15 12 14 -1.0249 0.0000
-15 12 15 -1.4810 0.0000
-15 12 16 0.8683 0.0000
-15 13 1 -2.2840 0.0000
-15 13 2 -0.5350 0.0000
-15 13 3 -0.8103 0.0000
-15 13 4 -0.0001 0.0000
-15 13 5 0.3678 0.0000
-15 13 6 -0.2857 0.0000
-15 13 7 -1.5007 0.0000
-15 13 8 2.2737 0.0000
-15 13 9 0.0847 0.0000
-15 13 10 -0.1274 0.0000
-15 13 11 -0.5075 0.0000
-15 13 12 1.7114 0.0000
-15 13 13 0.0166 0.0000
-15 13 14 -0.1417 0.0000
-15 13 15 1.1104 0.0000
-15 13 16 1.4482 0.0000
-15 14 1 -1.8088 0.0000
-15 14 2 0.7498 0.0000
-15 14 3 0.2908 0.0000
-15 14 4 0.8331 0.0000
-15 14 5 -0.4411 0.0000
-15 14 6 1.4249 0.0000
-15 14 7 0.3291 0.0000
-15 14 8 0.9886 0.0000
-15 14 9 -0.8755 0.0000
-15 14 10 0.2928 0.0000
-15 14 11 1.1578 0.0000
-15 14 12 0.6263 0.0000
-15 14 13 -0.7812 0.0000
-15 14 14 0.2770 0.0000
-15 14 15 -0.1032 0.0000
-15 15 1 0.2705 0.0000
-15 15 2 1.3053 0.0000
-15 15 3 0.7106 0.0000
-15 15 4 -0.5942 0.0000
-15 15 5 -0.1486 0.0000
-15 15 6 0.9701 0.0000
-15 15 7 0.6395 0.0000
-15 15 8 -0.2799 0.0000
-15 15 9 -0.7067 0.0000
-15 15 10 1.5191 0.0000
-15 15 11 1.1383 0.0000
-15 15 12 -1.4573 0.0000
-15 15 13 1.5006 0.0000
-15 15 14 -0.3627 0.0000
-15 16 1 0.4616 0.0000
-15 16 2 0.3382 0.0000
-15 16 3 -0.7117 0.0000
-15 16 4 -0.6398 0.0000
-15 16 5 -0.3935 0.0000
-15 16 6 -2.0040 0.0000
-15 16 7 -0.2765 0.0000
-15 16 8 -1.5646 0.0000
-15 16 9 -0.9840 0.0000
-15 16 10 0.4639 0.0000
-15 16 11 -1.2847 0.0000
-15 16 12 -1.4361 0.0000
-15 16 13 0.3630 0.0000
-15 17 1 -0.5915 0.0000
-15 17 2 -1.5753 0.0000
-15 17 3 -0.5021 0.0000
-15 17 4 1.1898 0.0000
-15 17 5 -0.2173 0.0000
-15 17 6 -1.3124 0.0000
-15 17 7 0.3979 0.0000
-15 17 8 -0.9385 0.0000
-15 17 9 0.1765 0.0000
-15 17 10 -0.8236 0.0000
-15 17 11 -1.0645 0.0000
-15 18 1 -1.4650 0.0000
-15 18 2 0.3096 0.0000
-15 18 3 0.2103 0.0000
-15 18 4 1.5404 0.0000
-15 18 5 -0.5658 0.0000
-15 18 6 0.8968 0.0000
-15 18 7 0.2607 0.0000
-15 18 8 0.1299 0.0000
-15 18 9 0.7502 0.0000
-15 18 10 -0.4574 0.0000
-15 19 1 0.1718 0.0000
-15 19 2 1.0177 0.0000
-15 19 3 -1.1864 0.0000
-15 19 4 -0.3744 0.0000
-15 19 5 0.0418 0.0000
-15 19 6 0.3643 0.0000
-15 19 7 -0.1662 0.0000
-15 19 8 0.2041 0.0000
-15 20 1 2.1210 0.0000
-15 20 2 1.2899 0.0000
-15 20 3 -1.2234 0.0000
-15 20 4 0.4279 0.0000
-15 20 5 0.1318 0.0000
-15 20 6 -0.2832 0.0000
-15 21 1 0.5353 0.0000
-15 21 2 -0.4453 0.0000
-15 21 3 0.4914 0.0000
-14 -8 4 -0.4086 0.0000
-14 -8 5 -0.4093 0.0000
-14 -8 6 -1.0788 0.0000
-14 -8 7 -0.0009 0.0000
-14 -8 8 1.0708 0.0000
-14 -8 9 -0.7427 0.0000
-14 -8 10 -0.3998 0.0000
-14 -8 11 -0.1455 0.0000
-14 -8 12 0.7505 0.0000
-14 -8 13 -0.2489 0.0000
-14 -8 14 -0.4894 0.0000
-14 -7 1 0.0591 0.0000
-14 -7 2 0.6822 0.0000
-14 -7 3 0.0334 0.0000
-14 -7 4 -0.6017 0.0000
-14 -7 5 -1.3691 0.0000
-14 -7 6 -0.6850 0.0000
-14 -7 7 0.9946 0.0000
-14 -7 8 -1.4327 0.0000
-14 -7 9 -0.7325 0.0000
-14 -7 10 0.7880 0.0000
-14 -7 11 -0.7701 0.0000
-14 -7 12 -0.3290 0.0000
-14 -7 13 -0.1128 0.0000
-14 -7 14 -0.0855 0.0000
-14 -7 15 0.3608 0.0000
-14 -7 16 -0.3230 0.0000
-14 -6 1 0.4026 0.0000
-14 -6 2 1.1228 0.0000
-14 -6 3 -1.5626 0.0000
-14 -6 4 0.8068 0.0000
-14 -6 5 -0.5983 0.0000
-14 -6 6 2.0138 0.0000
-14 -6 7 -0.7195 0.0000
-14 -6 8 0.0978 0.0000
-14 -6 9 1.0253 0.0000
-14 -6 10 1.3821 0.0000
-14 -6 11 -0.2676 0.0000
-14 -6 12 -1.3703 0.0000
-14 -6 13 0.8916 0.0000
-14 -6 14 0.5817 0.0000
-14 -6 15 0.1033 0.0000
-14 -6 16 -2.1624 0.0000
-14 -6 17 0.4753 0.0000
-14 -5 1 -0.7523 0.0000
-14 -5 2 0.0671 0.0000
-14 -5 3 -0.2825 0.0000
-14 -5 4 2.7371 0.0000
-14 -5 5 3.2987 0.0000
-14 -5 6 0.2035 0.0000
-14 -5 7 -0.8054 0.0000
-14 -5 8 1.7729 0.0000
-14 -5 9 -0.4195 0.0000
-14 -5 10 0.7830 0.0000
-14 -5 11 -0.3813 0.0000
-14 -5 12 1.1496 0.0000
-14 -5 13 0.4503 0.0000
-14 -5 14 -0.0990 0.0000
-14 -5 15 -1.1264 0.0000
-14 -5 16 -1.7115 0.0000
-14 -5 17 1.8807 0.0000
-14 -5 18 -0.2339 0.0000
-14 -4 1 -0.3059 0.0000
-14 -4 2 -0.6400 0.0000
-14 -4 3 -0.7968 0.0000
-14 -4 4 1.1548 0.0000
-14 -4 5 -0.1592 0.0000
-14 -4 6 -3.1000 0.0000
-14 -4 7 2.0860 0.0000
-14 -4 8 -0.3922 0.0000
-14 -4 9 -1.1036 0.0000
-14 -4 10 -2.6261 0.0000
-14 -4 11 0.8057 0.0000
-14 -4 12 -0.3324 0.0000
-14 -4 13 -0.5935 0.0000
-14 -4 14 -1.7477 0.0000
-14 -4 15 1.2831 0.0000
-14 -4 16 1.0095 0.0000
-14 -4 17 1.7453 0.0000
-14 -4 18 -1.0101 0.0000
-14 -4 19 -0.1863 0.0000
-14 -3 1 -0.1963 0.0000
-14 -3 2 -0.3602 0.0000
-14 -3 3 -0.2734 0.0000
-14 -3 4 -1.0843 0.0000
-14 -3 5 -3.0285 0.0000
-14 -3 6 -1.2582 0.0000
-14 -3 7 1.4527 0.0000
-14 -3 8 -1.5853 0.0000
-14 -3 9 -1.2277 0.0000
-14 -3 10 -0.6961 0.0000
-14 -3 11 2.6815 0.0000
-14 -3 12 -1.7208 0.0000
-14 -3 13 -0.8952 0.0000
-14 -3 14 0.1204 0.0000
-14 -3 15 0.8872 0.0000
-14 -3 16 0.6397 0.0000
-14 -3 17 -2.4052 0.0000
-14 -3 18 -0.4745 0.0000
-14 -3 19 2.4654 0.0000
-14 -3 20 1.0957 0.0000
-14 -2 1 -1.0558 0.0000
-14 -2 2 1.2605 0.0000
-14 -2 3 -0.5660 0.0000
-14 -2 4 -1.1950 0.0000
-14 -2 5 2.5013 0.0000
-14 -2 6 2.0598 0.0000
-14 -2 7 1.9391 0.0000
-14 -2 8 0.1276 0.0000
-14 -2 9 0.1823 0.0000
-14 -2 10 2.3096 0.0000
-14 -2 11 1.4845 0.0000
-14 -2 12 -2.2815 0.0000
-14 -2 13 1.7755 0.0000
-14 -2 14 1.7960 0.0000
-14 -2 15 -0.6382 0.0000
-14 -2 16 -0.3000 0.0000
-14 -2 17 -1.6199 0.0000
-14 -2 18 1.5851 0.0000
-14 -2 19 0.8578 0.0000
-14 -2 20 -0.6801 0.0000
-14 -1 1 1.1826 0.0000
-14 -1 2 3.6386 0.0000
-14 -1 3 -3.6538 0.0000
-14 -1 4 0.9036 0.0000
-14 -1 5 0.8659 0.0000
-14 -1 6 -1.7653 0.0000
-14 -1 7 -1.7570 0.0000
-14 -1 8 -0.1353 0.0000
-14 -1 9 0.3007 0.0000
-14 -1 10 1.8594 0.0000
-14 -1 11 -2.7667 0.0000
-14 -1 12 0.2766 0.0000
-14 -1 13 1.2042 0.0000
-14 -1 14 0.3319 0.0000
-14 -1 15 -2.2450 0.0000
-14 -1 16 0.0117 0.0000
-14 -1 17 1.3671 0.0000
-14 -1 18 0.6206 0.0000
-14 -1 19 -1.0840 0.0000
-14 -1 20 -1.0028 0.0000
-14 0 1 0.1676 0.0000
-14 0 2 0.2090 0.0000
-14 0 3 -2.1308 0.0000
-14 0 4 3.2142 0.0000
-14 0 5 -1.5324 0.0000
-14 0 6 -1.8639 0.0000
-14 0 7 -0.8852 0.0000
-14 0 8 1.0260 0.0000
-14 0 9 -1.2565 0.0000
-14 0 10 -0.4098 0.0000
-14 0 11 -3.7379 0.0000
-14 0 12 3.3893 0.0000
-14 0 13 -0.8832 0.0000
-14 0 14 -0.5822 0.0000
-14 0 15 0.7945 0.0000
-14 0 16 0.1803 0.0000
-14 0 17 1.9696 0.0000
-14 0 18 -2.5224 0.0000
-14 0 19 -0.4735 0.0000
-14 0 20 1.0055 0.0000
-14 0 21 -0.3165 0.0000
-14 1 1 -3.5327 0.0000
-14 1 2 -0.9485 0.0000
-14 1 3 1.0359 0.0000
-14 1 4 1.0036 0.0000
-14 1 5 -2.5582 0.0000
-14 1 6 0.6505 0.0000
-14 1 7 2.4701 0.0000
-14 1 8 1.2588 0.0000
-14 1 9 -1.1672 0.0000
-14 1 10 0.5616 0.0000
-14 1 11 0.6185 0.0000
-14 1 12 2.2309 0.0000
-14 1 13 -2.5658 0.0000
-14 1 14 0.3318 0.0000
-14 1 15 0.9637 0.0000
-14 1 16 -0.2904 0.0000
-14 1 17 0.6846 0.0000
-14 1 18 -1.9958 0.0000
-14 1 19 2.1546 0.0000
-14 1 20 0.0051 0.0000
-14 1 21 -0.8581 0.0000
-14 2 1 -2.8756 0.0000
-14 2 2 0.8355 0.0000
-14 2 3 1.3632 0.0000
-14 2 4 -3.4335 0.0000
-14 2 5 -0.1227 0.0000
-14 2 6 1.6703 0.0000
-14 2 7 0.1195 0.0000
-14 2 8 -0.9585 0.0000
-14 2 9 -1.9735 0.0000
-14 2 10 2.1274 0.0000
-14 2 11 1.6982 0.0000
-14 2 12 -2.8124 0.0000
-14 2 13 0.1778 0.0000
-14 2 14 0.5947 0.0000
-14 2 15 0.8908 0.0000
-14 2 16 -0.1979 0.0000
-14 2 17 0.2671 0.0000
-14 2 18 -0.3631 0.0000
-14 2 19 0.3001 0.0000
-14 2 20 -1.1151 0.0000
-14 2 21 0.1109 0.0000
-14 3 1 0.7917 0.0000
-14 3 2 2.0555 0.0000
-14 3 3 2.4655 0.0000
-14 3 4 -2.5985 0.0000
-14 3 5 5.8649 0.0000
-14 3 6 -0.3172 0.0000
-14 3 7 -1.6780 0.0000
-14 3 8 0.8596 0.0000
-14 3 9 0.3773 0.0000
-14 3 10 3.0615 0.0000
-14 3 11 -0.4516 0.0000
-14 3 12 -3.3000 0.0000
-14 3 13 3.0724 0.0000
-14 3 14 -2.1976 0.0000
-14 3 15 -0.2421 0.0000
-14 3 16 -1.5080 0.0000
-14 3 17 0.8212 0.0000
-14 3 18 1.3369 0.0000
-14 3 19 -1.8466 0.0000
-14 3 20 0.3727 0.0000
-14 3 21 0.3425 0.0000
-14 4 1 1.7484 0.0000
-14 4 2 -1.1022 0.0000
-14 4 3 1.6716 0.0000
-14 4 4 -1.0577 0.0000
-14 4 5 5.8315 0.0000
-14 4 6 -3.4627 0.0000
-14 4 7 0.1308 0.0000
-14 4 8 2.3658 0.0000
-14 4 9 0.1658 0.0000
-14 4 10 0.6929 0.0000
-14 4 11 -1.9717 0.0000
-14 4 12 1.9412 0.0000
-14 4 13 3.8940 0.0000
-14 4 14 -1.6885 0.0000
-14 4 15 1.5277 0.0000
-14 4 16 -1.6642 0.0000
-14 4 17 0.3392 0.0000
-14 4 18 1.4607 0.0000
-14 4 19 -0.9323 0.0000
-14 4 20 3.0146 0.0000
-14 4 21 0.1624 0.0000
-14 5 1 -0.8138 0.0000
-14 5 2 -2.8049 0.0000
-14 5 3 -0.9038 0.0000
-14 5 4 -1.3446 0.0000
-14 5 5 -2.7761 0.0000
-14 5 6 -3.1415 0.0000
-14 5 7 0.2468 0.0000
-14 5 8 -0.4035 0.0000
-14 5 9 -3.1706 0.0000
-14 5 10 -2.3749 0.0000
-14 5 11 -2.0958 0.0000
-14 5 12 1.1974 0.0000
-14 5 13 -1.6960 0.0000
-14 5 14 -3.2392 0.0000
-14 5 15 1.6104 0.0000
-14 5 16 -0.3564 0.0000
-14 5 17 -1.2359 0.0000
-14 5 18 -0.0560 0.0000
-14 5 19 -1.4614 0.0000
-14 5 20 -0.3503 0.0000
-14 6 1 -0.5653 0.0000
-14 6 2 -1.0747 0.0000
-14 6 3 0.1919 0.0000
-14 6 4 0.8262 0.0000
-14 6 5 -5.3647 0.0000
-14 6 6 2.5154 0.0000
-14 6 7 -0.6208 0.0000
-14 6 8 -1.5483 0.0000
-14 6 9 -1.1520 0.0000
-14 6 10 -0.0085 0.0000
-14 6 11 0.9492 0.0000
-14 6 12 0.5616 0.0000
-14 6 13 -1.6554 0.0000
-14 6 14 0.3302 0.0000
-14 6 15 1.4394 0.0000
-14 6 16 0.9048 0.0000
-14 6 17 -0.9615 0.0000
-14 6 18 1.2440 0.0000
-14 6 19 2.0306 0.0000
-14 6 20 -1.1053 0.0000
-14 7 1 2.0547 0.0000
-14 7 2 0.2140 0.0000
-14 7 3 1.8077 0.0000
-14 7 4 1.4837 0.0000
-14 7 5 -0.3167 0.0000
-14 7 6 5.3501 0.0000
-14 7 7 -1.3565 0.0000
-14 7 8 0.2640 0.0000
-14 7 9 3.4709 0.0000
-14 7 10 -0.0173 0.0000
-14 7 11 1.9347 0.0000
-14 7 12 -2.9197 0.0000
-14 7 13 1.3062 0.0000
-14 7 14 1.2587 0.0000
-14 7 15 -0.1057 0.0000
-14 7 16 -0.1672 0.0000
-14 7 17 -0.0959 0.0000
-14 7 18 -0.5325 0.0000
-14 7 19 1.2116 0.0000
-14 7 20 -1.5708 0.0000
-14 8 1 0.8536 0.0000
-14 8 2 -0.2223 0.0000
-14 8 3 -0.7177 0.0000
-14 8 4 -0.7622 0.0000
-14 8 5 3.8284 0.0000
-14 8 6 0.5403 0.0000
-14 8 7 -1.0637 0.0000
-14 8 8 1.7199 0.0000
-14 8 9 2.9102 0.0000
-14 8 10 -0.6684 0.0000
-14 8 11 2.2324 0.0000
-14 8 12 -0.1178 0.0000
-14 8 13 3.2820 0.0000
-14 8 14 -0.2892 0.0000
-14 8 15 -1.9920 0.0000
-14 8 16 -0.1187 0.0000
-14 8 17 0.9761 0.0000
-14 8 18 -1.0159 0.0000
-14 8 19 -0.8869 0.0000
-14 9 1 -1.5604 0.0000
-14 9 2 0.0511 0.0000
-14 9 3 -1.9971 0.0000
-14 9 4 -0.8333 0.0000
-14 9 5 1.7159 0.0000
-14 9 6 -5.8149 0.0000
-14 9 7 -0.2930 0.0000
-14 9 8 -0.9567 0.0000
-14 9 9 -2.8117 0.0000
-14 9 10 -2.5987 0.0000
-14 9 11 -1.5527 0.0000
-14 9 12 0.4381 0.0000
-14 9 13 -1.1579 0.0000
-14 9 14 -1.1262 0.0000
-14 9 15 -0.0457 0.0000
-14 9 16 0.5010 0.0000
-14 9 17 -0.4477 0.0000
-14 9 18 -2.0031 0.0000
-14 9 19 -0.2238 0.0000
-14 10 1 -0.1606 0.0000
-14 10 2 1.7590 0.0000
-14 10 3 2.0166 0.0000
-14 10 4 1.3916 0.0000
-14 10 5 0.7789 0.0000
-14 10 6 -0.6872 0.0000
-14 10 7 5.5282 0.0000
-14 10 8 0.4446 0.0000
-14 10 9 -0.1874 0.0000
-14 10 10 1.1841 0.0000
-14 10 11 0.2501 0.0000
-14 10 12 0.3001 0.0000
-14 10 13 -3.2007 0.0000
-14 10 14 0.4103 0.0000
-14 10 15 1.6151 0.0000
-14 10 16 0.8920 0.0000
-14 10 17 0.3949 0.0000
-14 10 18 0.3036 0.0000
-14 11 1 -1.3082 0.0000
-14 11 2 -1.1265 0.0000
-14 11 3 0.5969 0.0000
-14 11 4 -2.0900 0.0000
-14 11 5 -2.9782 0.0000
-14 11 6 1.6594 0.0000
-14 11 7 -0.1792 0.0000
-14 11 8 -1.0118 0.0000
-14 11 9 0.0310 0.0000
-14 11 10 1.6929 0.0000
-14 11 11 0.4437 0.0000
-14 11 12 -0.1219 0.0000
-14 11 13 0.9405 0.0000
-14 11 14 2.1321 0.0000
-14 11 15 -0.8921 0.0000
-14 11 16 -0.5846 0.0000
-14 11 17 -0.0296 0.0000
-14 12 1 0.1708 0.0000
-14 12 2 -1.2492 0.0000
-14 12 3 0.0924 0.0000
-14 12 4 -1.1137 0.0000
-14 12 5 0.2426 0.0000
-14 12 6 1.6832 0.0000
-14 12 7 -3.6486 0.0000
-14 12 8 -0.2838 0.0000
-14 12 9 0.7493 0.0000
-14 12 10 0.4724 0.0000
-14 12 11 -0.9834 0.0000
-14 12 12 -0.5005 0.0000
-14 12 13 1.9896 0.0000
-14 12 14 -0.1836 0.0000
-14 12 15 -0.8248 0.0000
-14 12 16 0.3709 0.0000
-14 12 17 0.6763 0.0000
-14 13 1 0.6213 0.0000
-14 13 2 0.3987 0.0000
-14 13 3 0.4796 0.0000
-14 13 4 1.8004 0.0000
-14 13 5 0.1247 0.0000
-14 13 6 0.8803 0.0000
-14 13 7 -1.5302 0.0000
-14 13 8 2.3497 0.0000
-14 13 9 0.1179 0.0000
-14 13 10 0.0000 0.0000
-14 13 11 -0.6575 0.0000
-14 13 12 1.2776 0.0000
-14 13 13 -0.2449 0.0000
-14 13 14 -1.4907 0.0000
-14 13 15 -0.2997 0.0000
-14 13 16 -0.0708 0.0000
-14 14 1 -0.4489 0.0000
-14 14 2 -0.2959 0.0000
-14 14 3 0.7387 0.0000
-14 14 4 0.6552 0.0000
-14 14 5 -1.8934 0.0000
-14 14 6 0.1008 0.0000
-14 14 7 1.6242 0.0000
-14 14 8 0.9619 0.0000
-14 14 9 -0.7120 0.0000
-14 14 10 -1.1906 0.0000
-14 14 11 1.0388 0.0000
-14 14 12 -1.0431 0.0000
-14 14 13 -1.4182 0.0000
-14 14 14 0.2168 0.0000
-14 14 15 0.2612 0.0000
-14 15 1 -0.8927 0.0000
-14 15 2 -0.4985 0.0000
-14 15 3 -0.3948 0.0000
-14 15 4 -1.0682 0.0000
-14 15 5 -2.5496 0.0000
-14 15 6 -0.9212 0.0000
-14 15 7 -0.7265 0.0000
-14 15 8 -1.9526 0.0000
-14 15 9 -2.3507 0.0000
-14 15 10 -1.0853 0.0000
-14 15 11 1.6698 0.0000
-14 15 12 -2.8416 0.0000
-14 15 13 1.2022 0.0000
-14 15 14 -0.7326 0.0000
-14 16 1 0.8861 0.0000
-14 16 2 0.1205 0.0000
-14 16 3 0.0314 0.0000
-14 16 4 0.5712 0.0000
-14 16 5 1.7749 0.0000
-14 16 6 -0.2701 0.0000
-14 16 7 0.2873 0.0000
-14 16 8 -0.6301 0.0000
-14 16 9 0.3387 0.0000
-14 16 10 0.7966 0.0000
-14 16 11 0.3300 0.0000
-14 16 12 -0.0784 0.0000
-14 16 13 0.7378 0.0000
-14 17 1 0.3379 0.0000
-14 17 2 -0.3383 0.0000
-14 17 3 -0.4073 0.0000
-14 17 4 0.9667 0.0000
-14 17 5 1.9389 0.0000
-14 17 6 -0.1527 0.0000
-14 17 7 1.0923 0.0000
-14 17 8 -0.0660 0.0000
-14 17 9 1.3147 0.0000
-14 17 10 0.2843 0.0000
-14 17 11 -0.0418 0.0000
-14 17 12 1.8207 0.0000
-14 18 1 -1.6497 0.0000
-14 18 2 0.7188 0.0000
-14 18 3 -0.9341 0.0000
-14 18 4 0.3670 0.0000
-14 18 5 -0.4318 0.0000
-14 18 6 0.4835 0.0000
-14 18 7 0.4072 0.0000
-14 18 8 0.3148 0.0000
-14 18 9 1.2657 0.0000
-14 18 10 0.2945 0.0000
-14 19 1 -0.1552 0.0000
-14 19 2 2.9699 0.0000
-14 19 3 -0.2982 0.0000
-14 19 4 0.0314 0.0000
-14 19 5 -0.7444 0.0000
-14 19 6 0.1858 0.0000
-14 19 7 -1.1062 0.0000
-14 19 8 -0.7169 0.0000
-14 20 1 0.0663 0.0000
-14 20 2 0.2444 0.0000
-14 20 3 -0.8918 0.0000
-14 20 4 0.2831 0.0000
-14 20 5 0.0900 0.0000
-14 20 6 -0.0063 0.0000
-14 21 1 0.4585 0.0000
-14 21 2 -0.7819 0.0000
-14 21 3 -1.2624 0.0000
-14 21 4 1.0818 0.0000
-13 -10 8 -0.9062 0.0000
-13 -10 9 1.5504 0.0000
-13 -10 10 0.9974 0.0000
-13 -9 3 -0.1876 0.0000
-13 -9 4 -0.5215 0.0000
-13 -9 5 -0.9399 0.0000
-13 -9 6 -0.9152 0.0000
-13 -9 7 -1.7245 0.0000
-13 -9 8 -0.4443 0.0000
-13 -9 9 1.2265 0.0000
-13 -9 10 -0.7331 0.0000
-13 -9 11 -0.5363 0.0000
-13 -9 12 -0.0690 0.0000
-13 -9 13 -0.2642 0.0000
-13 -9 14 -0.4025 0.0000
-13 -9 15 -0.7262 0.0000
-13 -8 1 -0.1044 0.0000
-13 -8 2 -0.4840 0.0000
-13 -8 3 0.7823 0.0000
-13 -8 4 0.4093 0.0000
-13 -8 5 0.1557 0.0000
-13 -8 6 -0.9697 0.0000
-13 -8 7 -0.1033 0.0000
-13 -8 8 1.6098 0.0000
-13 -8 9 -1.1927 0.0000
-13 -8 10 0.2239 0.0000
-13 -8 11 -1.3656 0.0000
-13 -8 12 0.6514 0.0000
-13 -8 13 0.0874 0.0000
-13 -8 14 0.3771 0.0000
-13 -8 15 -0.4316 0.0000
-13 -8 16 0.1634 0.0000
-13 -8 17 -0.8546 0.0000
-13 -7 1 -0.9642 0.0000
-13 -7 2 1.0670 0.0000
-13 -7 3 0.1610 0.0000
-13 -7 4 0.9192 0.0000
-13 -7 5 -0.1236 0.0000
-13 -7 6 0.7162 0.0000
-13 -7 7 2.5786 0.0000
-13 -7 8 0.1567 0.0000
-13 -7 9 -0.6720 0.0000
-13 -7 10 1.2525 0.0000
-13 -7 11 0.7353 0.0000
-13 -7 12 -0.5075 0.0000
-13 -7 13 -0.4843 0.0000
-13 -7 14 -0.7483 0.0000
-13 -7 15 0.8837 0.0000
-13 -7 16 -1.8435 0.0000
-13 -7 17 -0.2515 0.0000
-13 -7 18 -0.1218 0.0000
-13 -6 1 -0.6612 0.0000
-13 -6 2 2.3813 0.0000
-13 -6 3 -1.0602 0.0000
-13 -6 4 0.9610 0.0000
-13 -6 5 0.0148 0.0000
-13 -6 6 2.5505 0.0000
-13 -6 7 -1.4988 0.0000
-13 -6 8 -1.1873 0.0000
-13 -6 9 -0.8340 0.0000
-13 -6 10 1.0989 0.0000
-13 -6 11 -0.1091 0.0000
-13 -6 12 -1.2419 0.0000
-13 -6 13 -0.1319 0.0000
-13 -6 14 0.8963 0.0000
-13 -6 15 1.4093 0.0000
-13 -6 16 -1.9841 0.0000
-13 -6 17 0.4021 0.0000
-13 -6 18 1.3764 0.0000
-13 -6 19 -1.0935 0.0000
-13 -5 1 -0.7446 0.0000
-13 -5 2 -0.8310 0.0000
-13 -5 3 -2.8457 0.0000
-13 -5 4 -1.4821 0.0000
-13 -5 5 1.5104 0.0000
-13 -5 6 -1.4800 0.0000
-13 -5 7 -2.0374 0.0000
-13 -5 8 0.3364 0.0000
-13 -5 9 0.0693 0.0000
-13 -5 10 -0.1921 0.0000
-13 -5 11 -2.1389 0.0000
-13 -5 12 -0.2569 0.0000
-13 -5 13 2.0833 0.0000
-13 -5 14 -0.6249 0.0000
-13 -5 15 1.0969 0.0000
-13 -5 16 -1.6315 0.0000
-13 -5 17 2.3199 0.0000
-13 -5 18 1.6869 0.0000
-13 -5 19 -0.4708 0.0000
-13 -5 20 0.9572 0.0000
-13 -4 1 -1.0349 0.0000
-13 -4 2 -0.6345 0.0000
-13 -4 3 -1.2507 0.0000
-13 -4 4 0.6261 0.0000
-13 -4 5 0.7564 0.0000
-13 -4 6 -4.8284 0.0000
-13 -4 7 1.7024 0.0000
-13 -4 8 0.2492 0.0000
-13 -4 9 1.5556 0.0000
-13 -4 10 -2.2670 0.0000
-13 -4 11 0.8156 0.0000
-13 -4 12 1.7355 0.0000
-13 -4 13 0.8600 0.0000
-13 -4 14 -3.2916 0.0000
-13 -4 15 -0.4235 0.0000
-13 -4 16 0.0361 0.0000
-13 -4 17 0.9605 0.0000
-13 -4 18 -1.1983 0.0000
-13 -4 19 0.5250 0.0000
-13 -4 20 0.9891 0.0000
-13 -3 1 -0.8864 0.0000
-13 -3 2 1.2951 0.0000
-13 -3 3 2.0048 0.0000
-13 -3 4 1.4824 0.0000
-13 -3 5 0.7522 0.0000
-13 -3 6 0.6171 0.0000
-13 -3 7 4.3654 0.0000
-13 -3 8 1.5379 0.0000
-13 -3 9 0.5188 0.0000
-13 -3 10 -1.5789 0.0000
-13 -3 11 4.1774 0.0000
-13 -3 12 0.0982 0.0000
-13 -3 13 -1.7032 0.0000
-13 -3 14 -0.3407 0.0000
-13 -3 15 1.8667 0.0000
-13 -3 16 2.2826 0.0000
-13 -3 17 -1.0129 0.0000
-13 -3 18 -2.0262 0.0000
-13 -3 19 0.5165 0.0000
-13 -3 20 -0.1116 0.0000
-13 -3 21 -1.1420 0.0000
-13 -2 1 -0.0688 0.0000
-13 -2 2 3.2254 0.0000
-13 -2 3 -0.6639 0.0000
-13 -2 4 -4.3676 0.0000
-13 -2 5 -1.1438 0.0000
-13 -2 6 0.2192 0.0000
-13 -2 7 -1.3178 0.0000
-13 -2 8 -1.1317 0.0000
-13 -2 9 -2.1827 0.0000
-13 -2 10 0.6338 0.0000
-13 -2 11 2.2404 0.0000
-13 -2 12 -2.9950 0.0000
-13 -2 13 -1.0029 0.0000
-13 -2 14 2.9066 0.0000
-13 -2 15 -0.4840 0.0000
-13 -2 16 -0.4960 0.0000
-13 -2 17 -2.7034 0.0000
-13 -2 18 0.6527 0.0000
-13 -2 19 0.8646 0.0000
-13 -2 20 -0.6747 0.0000
-13 -2 21 -1.1329 0.0000
-13 -1 1 -1.3013 0.0000
-13 -1 2 3.3234 0.0000
-13 -1 3 -3.2908 0.0000
-13 -1 4 -0.3562 0.0000
-13 -1 5 2.2812 0.0000
-13 -1 6 0.2640 0.0000
-13 -1 7 -4.5861 0.0000
-13 -1 8 0.1129 0.0000
-13 -1 9 -2.5563 0.0000
-13 -1 10 2.7806 0.0000
-13 -1 11 -3.3614 0.0000
-13 -1 12 -1.1208 0.0000
-13 -1 13 2.3052 0.0000
-13 -1 14 1.5645 0.0000
-13 -1 15 -1.0292 0.0000
-13 -1 16 -1.0221 0.0000
-13 -1 17 0.8179 0.0000
-13 -1 18 1.7836 0.0000
-13 -1 19 -0.9510 0.0000
-13 -1 20 -0.0202 0.0000
-13 -1 21 -0.2174 0.0000
-13 0 1 -1.6769 0.0000
-13 0 2 -0.2305 0.0000
-13 0 3 -3.1434 0.0000
-13 0 4 4.2471 0.0000
-13 0 5 1.5438 0.0000
-13 0 6 -1.3124 0.0000
-13 0 7 -0.4684 0.0000
-13 0 8 4.9983 0.0000
-13 0 9 -0.4119 0.0000
-13 0 10 2.3810 0.0000
-13 0 11 -3.8898 0.0000
-13 0 12 2.6697 0.0000
-13 0 13 1.1915 0.0000
-13 0 14 -2.8774 0.0000
-13 0 15 0.3005 0.0000
-13 0 16 -0.4737 0.0000
-13 0 17 2.4594 0.0000
-13 0 18 -0.8055 0.0000
-13 0 19 -1.6471 0.0000
-13 0 20 1.3821 0.0000
-13 0 21 -0.3910 0.0000
-13 1 1 -1.8837 0.0000
-13 1 2 -1.2396 0.0000
-13 1 3 1.4502 0.0000
-13 1 4 2.6313 0.0000
-13 1 5 -3.2622 0.0000
-13 1 6 -0.9731 0.0000
-13 1 7 2.6900 0.0000
-13 1 8 3.0853 0.0000
-13 1 9 -2.3518 0.0000
-13 1 10 -0.4103 0.0000
-13 1 11 0.6117 0.0000
-13 1 12 2.1290 0.0000
-13 1 13 -1.8282 0.0000
-13 1 14 -1.0332 0.0000
-13 1 15 2.5109 0.0000
-13 1 16 0.1360 0.0000
-13 1 17 1.6186 0.0000
-13 1 18 -2.5291 0.0000
-13 1 19 0.8799 0.0000
-13 1 20 1.1122 0.0000
-13 1 21 -0.5950 0.0000
-13 2 1 -0.1234 0.0000
-13 2 2 -0.0352 0.0000
-13 2 3 7.1073 0.0000
-13 2 4 -3.3396 0.0000
-13 2 5 -1.2167 0.0000
-13 2 6 2.8370 0.0000
-13 2 7 -0.2721 0.0000
-13 2 8 -1.5667 0.0000
-13 2 9 -2.5667 0.0000
-13 2 10 0.2129 0.0000
-13 2 11 4.6698 0.0000
-13 2 12 -3.0709 0.0000
-13 2 13 -1.4637 0.0000
-13 2 14 -0.1901 0.0000
-13 2 15 -0.8114 0.0000
-13 2 16 -1.7709 0.0000
-13 2 17 -0.0136 0.0000
-13 2 18 0.8361 0.0000
-13 2 19 0.8002 0.0000
-13 2 20 -0.7581 0.0000
-13 2 21 -1.1494 0.0000
-13 3 1 1.8518 0.0000
-13 3 2 -1.8526 0.0000
-13 3 3 4.4733 0.0000
-13 3 4 -6.8827 0.0000
-13 3 5 5.2975 0.0000
-13 3 6 3.8114 0.0000
-13 3 7 -4.3303 0.0000
-13 3 8 -0.0503 0.0000
-13 3 9 0.3149 0.0000
-13 3 10 1.2268 0.0000
-13 3 11 1.9127 0.0000
-13 3 12 -4.3966 0.0000
-13 3 13 4.1831 0.0000
-13 3 14 1.2663 0.0000
-13 3 15 -0.4366 0.0000
-13 3 16 -1.3092 0.0000
-13 3 17 -1.3506 0.0000
-13 3 18 2.2872 0.0000
-13 3 19 -1.4605 0.0000
-13 3 20 0.3677 0.0000
-13 3 21 0.7927 0.0000
-13 4 1 1.7329 0.0000
-13 4 2 -5.2401 0.0000
-13 4 3 -0.8972 0.0000
-13 4 4 -6.1538 0.0000
-13 4 5 2.6539 0.0000
-13 4 6 -3.3390 0.0000
-13 4 7 -5.6092 0.0000
-13 4 8 2.8079 0.0000
-13 4 9 -1.0830 0.0000
-13 4 10 -1.1043 0.0000
-13 4 11 -3.7538 0.0000
-13 4 12 -3.2619 0.0000
-13 4 13 3.3711 0.0000
-13 4 14 -2.7953 0.0000
-13 4 15 0.7573 0.0000
-13 4 16 1.6431 0.0000
-13 4 17 -1.2643 0.0000
-13 4 18 1.7488 0.0000
-13 4 19 -3.3290 0.0000
-13 4 20 0.7092 0.0000
-13 4 21 0.4958 0.0000
-13 5 1 -0.1562 0.0000
-13 5 2 -1.9938 0.0000
-13 5 3 -1.1499 0.0000
-13 5 4 2.9986 0.0000
-13 5 5 -2.5738 0.0000
-13 5 6 -2.7165 0.0000
-13 5 7 -0.0753 0.0000
-13 5 8 3.2687 0.0000
-13 5 9 -2.8100 0.0000
-13 5 10 0.7342 0.0000
-13 5 11 -1.3240 0.0000
-13 5 12 3.4077 0.0000
-13 5 13 2.1275 0.0000
-13 5 14 -3.1535 0.0000
-13 5 15 1.1140 0.0000
-13 5 16 1.6900 0.0000
-13 5 17 -1.2555 0.0000
-13 5 18 0.9659 0.0000
-13 5 19 0.3904 0.0000
-13 5 20 1.3127 0.0000
-13 5 21 -0.8479 0.0000
-13 6 1 2.5499 0.0000
-13 6 2 3.3574 0.0000
-13 6 3 1.5419 0.0000
-13 6 4 9.3856 0.0000
-13 6 5 -2.6467 0.0000
-13 6 6 5.3191 0.0000
-13 6 7 5.6797 0.0000
-13 6 8 0.1128 0.0000
-13 6 9 1.6051 0.0000
-13 6 10 1.7200 0.0000
-13 6 11 1.9953 0.0000
-13 6 12 1.4916 0.0000
-13 6 13 -1.8353 0.0000
-13 6 14 -0.7461 0.0000
-13 6 15 0.9747 0.0000
-13 6 16 0.5835 0.0000
-13 6 17 -1.0230 0.0000
-13 6 18 -1.9910 0.0000
-13 6 19 2.3461 0.0000
-13 6 20 -1.3636 0.0000
-13 7 1 1.3142 0.0000
-13 7 2 -0.4013 0.0000
-13 7 3 -2.0368 0.0000
-13 7 4 0.3124 0.0000
-13 7 5 -3.4443 0.0000
-13 7 6 4.3464 0.0000
-13 7 7 0.4647 0.0000
-13 7 8 -4.0613 0.0000
-13 7 9 4.6715 0.0000
-13 7 10 -1.2983 0.0000
-13 7 11 4.1377 0.0000
-13 7 12 -2.0635 0.0000
-13 7 13 0.3614 0.0000
-13 7 14 1.9735 0.0000
-13 7 15 -0.3584 0.0000
-13 7 16 -1.3402 0.0000
-13 7 17 0.0199 0.0000
-13 7 18 -0.8421 0.0000
-13 7 19 1.5128 0.0000
-13 7 20 -1.5861 0.0000
-13 8 1 0.3120 0.0000
-13 8 2 -0.8625 0.0000
-13 8 3 -2.0047 0.0000
-13 8 4 -6.1388 0.0000
-13 8 5 0.5598 0.0000
-13 8 6 -2.4529 0.0000
-13 8 7 -5.0396 0.0000
-13 8 8 -3.4648 0.0000
-13 8 9 -0.1665 0.0000
-13 8 10 -5.5943 0.0000
-13 8 11 -1.6163 0.0000
-13 8 12 -4.0970 0.0000
-13 8 13 1.1399 0.0000
-13 8 14 1.0729 0.0000
-13 8 15 -0.8821 0.0000
-13 8 16 -0.4513 0.0000
-13 8 17 0.9645 0.0000
-13 8 18 0.4432 0.0000
-13 8 19 -1.5289 0.0000
-13 9 1 -0.5655 0.0000
-13 9 2 1.5537 0.0000
-13 9 3 2.3677 0.0000
-13 9 4 -0.2176 0.0000
-13 9 5 7.8646 0.0000
-13 9 6 -1.9075 0.0000
-13 9 7 3.3460 0.0000
-13 9 8 3.8711 0.0000
-13 9 9 1.2501 0.0000
-13 9 10 0.7782 0.0000
-13 9 11 0.4475 0.0000
-13 9 12 2.1222 0.0000
-13 9 13 -0.3550 0.0000
-13 9 14 -1.5090 0.0000
-13 9 15 -0.2493 0.0000
-13 9 16 1.4021 0.0000
-13 9 17 2.3207 0.0000
-13 9 18 -0.2772 0.0000
-13 9 19 -0.9366 0.0000
-13 10 1 -3.5651 0.0000
-13 10 2 -1.8167 0.0000
-13 10 3 0.5424 0.0000
-13 10 4 -0.6856 0.0000
-13 10 5 -1.9678 0.0000
-13 10 6 -4.7707 0.0000
-13 10 7 1.0608 0.0000
-13 10 8 0.0368 0.0000
-13 10 9 -2.0834 0.0000
-13 10 10 1.6713 0.0000
-13 10 11 0.2380 0.0000
-13 10 12 2.8597 0.0000
-13 10 13 -1.5245 0.0000
-13 10 14 0.4563 0.0000
-13 10 15 0.4192 0.0000
-13 10 16 -0.0780 0.0000
-13 10 17 -0.3669 0.0000
-13 10 18 0.5337 0.0000
-13 11 1 0.3103 0.0000
-13 11 2 -0.4359 0.0000
-13 11 3 1.1048 0.0000
-13 11 4 0.1970 0.0000
-13 11 5 -3.2549 0.0000
-13 11 6 2.3347 0.0000
-13 11 7 -0.2559 0.0000
-13 11 8 -1.4007 0.0000
-13 11 9 -0.7687 0.0000
-13 11 10 1.1354 0.0000
-13 11 11 -0.8719 0.0000
-13 11 12 -1.5754 0.0000
-13 11 13 -0.9504 0.0000
-13 11 14 1.7273 0.0000
-13 11 15 -0.5273 0.0000
-13 11 16 -0.8946 0.0000
-13 11 17 -0.9712 0.0000
-13 11 18 0.2065 0.0000
-13 12 1 4.1564 0.0000
-13 12 2 0.9768 0.0000
-13 12 3 0.1424 0.0000
-13 12 4 0.9509 0.0000
-13 12 5 -0.0997 0.0000
-13 12 6 5.2122 0.0000
-13 12 7 -1.9473 0.0000
-13 12 8 0.8546 0.0000
-13 12 9 0.5856 0.0000
-13 12 10 0.8212 0.0000
-13 12 11 -1.0659 0.0000
-13 12 12 -1.0242 0.0000
-13 12 13 1.8337 0.0000
-13 12 14 -0.7931 0.0000
-13 12 15 -0.9610 0.0000
-13 12 16 -0.9894 0.0000
-13 12 17 0.7166 0.0000
-13 13 1 0.1165 0.0000
-13 13 2 -1.6326 0.0000
-13 13 3 -1.7902 0.0000
-13 13 4 1.9010 0.0000
-13 13 5 -0.6973 0.0000
-13 13 6 -0.4616 0.0000
-13 13 7 -2.4638 0.0000
-13 13 8 1.3429 0.0000
-13 13 9 0.0698 0.0000
-13 13 10 -1.1081 0.0000
-13 13 11 -0.6781 0.0000
-13 13 12 -0.0263 0.0000
-13 13 13 -0.5147 0.0000
-13 13 14 -1.2894 0.0000
-13 13 15 0.1157 0.0000
-13 13 16 0.4099 0.0000
-13 14 1 -0.7777 0.0000
-13 14 2 -1.8939 0.0000
-13 14 3 -0.2221 0.0000
-13 14 4 0.5150 0.0000
-13 14 5 -2.3064 0.0000
-13 14 6 -4.2376 0.0000
-13 14 7 0.1357 0.0000
-13 14 8 -0.6591 0.0000
-13 14 9 -0.6683 0.0000
-13 14 10 -2.0945 0.0000
-13 14 11 2.5877 0.0000
-13 14 12 0.6910 0.0000
-13 14 13 -0.4386 0.0000
-13 14 14 0.7353 0.0000
-13 14 15 1.2363 0.0000
-13 15 1 0.3966 0.0000
-13 15 2 1.5033 0.0000
-13 15 3 0.6575 0.0000
-13 15 4 1.9799 0.0000
-13 15 5 0.6697 0.0000
-13 15 6 1.2967 0.0000
-13 15 7 3.0220 0.0000
-13 15 8 0.1761 0.0000
-13 15 9 1.0864 0.0000
-13 15 10 -0.9034 0.0000
-13 15 11 3.0161 0.0000
-13 15 12 -1.2032 0.0000
-13 15 13 1.1680 0.0000
-13 15 14 0.0160 0.0000
-13 16 1 0.9649 0.0000
-13 16 2 0.2045 0.0000
-13 16 3 0.0175 0.0000
-13 16 4 -0.5451 0.0000
-13 16 5 2.7070 0.0000
-13 16 6 1.1311 0.0000
-13 16 7 1.3923 0.0000
-13 16 8 -1.1254 0.0000
-13 16 9 0.2431 0.0000
-13 16 10 0.4050 0.0000
-13 16 11 -0.5927 0.0000
-13 16 12 0.9721 0.0000
-13 16 13 0.6271 0.0000
-13 17 1 0.1058 0.0000
-13 17 2 -0.4806 0.0000
-13 17 3 -0.4232 0.0000
-13 17 4 -1.7528 0.0000
-13 17 5 0.5357 0.0000
-13 17 6 -1.0778 0.0000
-13 17 7 0.1993 0.0000
-13 17 8 -0.5463 0.0000
-13 17 9 1.1374 0.0000
-13 17 10 0.6241 0.0000
-13 17 11 -1.3913 0.0000
-13 17 12 -0.2319 0.0000
-13 18 1 -1.6835 0.0000
-13 18 2 1.0739 0.0000
-13 18 3 -0.0822 0.0000
-13 18 4 -0.0518 0.0000
-13 18 5 -1.2416 0.0000
-13 18 6 -0.1588 0.0000
-13 18 7 -1.0144 0.0000
-13 18 8 -0.7099 0.0000
-13 18 9 -1.1342 0.0000
-13 18 10 0.1575 0.0000
-13 19 1 -2.5376 0.0000
-13 19 2 0.5484 0.0000
-13 19 3 0.0962 0.0000
-13 19 4 0.4391 0.0000
-13 19 5 -0.1818 0.0000
-13 19 6 0.9963 0.0000
-13 19 7 0.3969 0.0000
-13 19 8 1.1258 0.0000
-13 19 9 0.2309 0.0000
-13 20 1 0.7360 0.0000
-13 20 2 0.8215 0.0000
-13 20 3 -0.5656 0.0000
-13 20 4 0.1951 0.0000
-13 20 5 0.1084 0.0000
-13 20 6 -0.7910 0.0000
-13 20 7 -0.2828 0.0000
-13 21 1 0.3139 0.0000
-13 21 2 0.7103 0.0000
-13 21 3 -1.8646 0.0000
-13 21 4 0.0665 0.0000
-12 -11 7 1.5674 0.0000
-12 -11 8 0.1318 0.0000
-12 -11 9 -0.1589 0.0000
-12 -11 10 0.3138 0.0000
-12 -11 11 0.9910 0.0000
-12 -10 3 -0.2531 0.0000
-12 -10 4 -1.5432 0.0000
-12 -10 5 -0.5261 0.0000
-12 -10 6 -1.7755 0.0000
-12 -10 7 0.4312 0.0000
-12 -10 8 -2.4350 0.0000
-12 -10 9 0.6243 0.0000
-12 -10 10 0.3924 0.0000
-12 -10 11 -0.1991 0.0000
-12 -10 12 0.4698 0.0000
-12 -10 13 0.0791 0.0000
-12 -10 14 -0.0396 0.0000
-12 -10 15 -0.6498 0.0000
-12 -9 1 -0.2339 0.0000
-12 -9 2 -0.0636 0.0000
-12 -9 3 -0.0864 0.0000
-12 -9 4 1.2990 0.0000
-12 -9 5 1.3461 0.0000
-12 -9 6 1.3788 0.0000
-12 -9 7 -0.4525 0.0000
-12 -9 8 0.1827 0.0000
-12 -9 9 0.7148 0.0000
-12 -9 10 -0.0314 0.0000
-12 -9 11 -1.3420 0.0000
-12 -9 12 -0.1105 0.0000
-12 -9 13 0.2190 0.0000
-12 -9 14 0.3176 0.0000
-12 -9 15 -1.2080 0.0000
-12 -9 16 -0.0299 0.0000
-12 -9 17 0.7366 0.0000
-12 -8 1 -0.9788 0.0000
-12 -8 2 -1.0742 0.0000
-12 -8 3 0.0085 0.0000
-12 -8 4 0.7289 0.0000
-12 -8 5 0.9539 0.0000
-12 -8 6 -0.3634 0.0000
-12 -8 7 -0.2567 0.0000
-12 -8 8 2.2696 0.0000
-12 -8 9 -1.0572 0.0000
-12 -8 10 0.2370 0.0000
-12 -8 11 -0.6856 0.0000
-12 -8 12 0.3090 0.0000
-12 -8 13 -0.8100 0.0000
-12 -8 14 -0.8287 0.0000
-12 -8 15 -0.1290 0.0000
-12 -8 16 0.5942 0.0000
-12 -8 17 0.2140 0.0000
-12 -8 18 -0.8495 0.0000
-12 -7 1 -1.4402 0.0000
-12 -7 2 1.7149 0.0000
-12 -7 3 0.3229 0.0000
-12 -7 4 0.3141 0.0000
-12 -7 5 -1.5272 0.0000
-12 -7 6 -1.2151 0.0000
-12 -7 7 0.8167 0.0000
-12 -7 8 -0.4187 0.0000
-12 -7 9 -1.8730 0.0000
-12 -7 10 -0.4885 0.0000
-12 -7 11 1.3796 0.0000
-12 -7 12 -0.0418 0.0000
-12 -7 13 -0.3158 0.0000
-12 -7 14 0.1108 0.0000
-12 -7 15 2.4783 0.0000
-12 -7 16 -0.1553 0.0000
-12 -7 17 -1.2586 0.0000
-12 -7 18 0.4799 0.0000
-12 -7 19 0.4866 0.0000
-12 -6 1 -1.9606 0.0000
-12 -6 2 0.7445 0.0000
-12 -6 3 -1.8378 0.0000
-12 -6 4 -1.5619 0.0000
-12 -6 5 -1.4708 0.0000
-12 -6 6 1.7085 0.0000
-12 -6 7 -0.2275 0.0000
-12 -6 8 -0.7947 0.0000
-12 -6 9 -1.1539 0.0000
-12 -6 10 2.2628 0.0000
-12 -6 11 0.9000 0.0000
-12 -6 12 -1.6238 0.0000
-12 -6 13 0.3440 0.0000
-12 -6 14 0.2438 0.0000
-12 -6 15 2.0675 0.0000
-12 -6 16 -1.4801 0.0000
-12 -6 17 -0.1989 0.0000
-12 -6 18 2.7621 0.0000
-12 -6 19 1.2534 0.0000
-12 -6 20 0.0588 0.0000
-12 -5 1 0.9223 0.0000
-12 -5 2 0.4657 0.0000
-12 -5 3 -0.8388 0.0000
-12 -5 4 -1.5963 0.0000
-12 -5 5 3.0936 0.0000
-12 -5 6 -0.8205 0.0000
-12 -5 7 -0.4221 0.0000
-12 -5 8 -0.4988 0.0000
-12 -5 9 1.7569 0.0000
-12 -5 10 1.8963 0.0000
-12 -5 11 -1.4870 0.0000
-12 -5 12 -2.1674 0.0000
-12 -5 13 3.3013 0.0000
-12 -5 14 -1.5050 0.0000
-12 -5 15 -0.0809 0.0000
-12 -5 16 -2.0153 0.0000
-12 -5 17 0.3530 0.0000
-12 -5 18 0.7681 0.0000
-12 -5 19 -1.3692 0.0000
-12 -5 20 -0.4779 0.0000
-12 -4 1 0.2061 0.0000
-12 -4 2 0.0999 0.0000
-12 -4 3 1.2380 0.0000
-12 -4 4 1.1449 0.0000
-12 -4 5 4.7051 0.0000
-12 -4 6 -2.5684 0.0000
-12 -4 7 1.8060 0.0000
-12 -4 8 1.3569 0.0000
-12 -4 9 2.7839 0.0000
-12 -4 10 -1.7131 0.0000
-12 -4 11 -1.2157 0.0000
-12 -4 12 1.9129 0.0000
-12 -4 13 2.7185 0.0000
-12 -4 14 -2.3159 0.0000
-12 -4 15 -0.4133 0.0000
-12 -4 16 0.8676 0.0000
-12 -4 17 1.3635 0.0000
-12 -4 18 -1.7869 0.0000
-12 -4 19 -1.4027 0.0000
-12 -4 20 0.0944 0.0000
-12 -4 21 -0.5014 0.0000
-12 -3 1 -2.5510 0.0000
-12 -3 2 -0.6677 0.0000
-12 -3 3 1.0292 0.0000
-12 -3 4 -2.8874 0.0000
-12 -3 5 -2.5672 0.0000
-12 -3 6 -3.8434 0.0000
-12 -3 7 0.2807 0.0000
-12 -3 8 -0.2242 0.0000
-12 -3 9 -1.1134 0.0000
-12 -3 10 -4.1053 0.0000
-12 -3 11 2.4337 0.0000
-12 -3 12 2.2454 0.0000
-12 -3 13 -2.1982 0.0000
-12 -3 14 -1.7719 0.0000
-12 -3 15 -0.2002 0.0000
-12 -3 16 1.6837 0.0000
-12 -3 17 -0.5975 0.0000
-12 -3 18 -1.4310 0.0000
-12 -3 19 0.4866 0.0000
-12 -3 20 1.2645 0.0000
-12 -3 21 -1.8359 0.0000
-12 -2 1 -2.8184 0.0000
-12 -2 2 2.9860 0.0000
-12 -2 3 2.4384 0.0000
-12 -2 4 -2.4987 0.0000
-12 -2 5 -1.7979 0.0000
-12 -2 6 2.8711 0.0000
-12 -2 7 -1.9775 0.0000
-12 -2 8 -0.3658 0.0000
-12 -2 9 -3.8212 0.0000
-12 -2 10 0.4028 0.0000
-12 -2 11 2.2280 0.0000
-12 -2 12 -1.7313 0.0000
-12 -2 13 -3.3280 0.0000
-12 -2 14 3.1273 0.0000
-12 -2 15 1.1082 0.0000
-12 -2 16 1.5359 0.0000
-12 -2 17 -1.9302 0.0000
-12 -2 18 0.2176 0.0000
-12 -2 19 1.3088 0.0000
-12 -2 20 -0.1432 0.0000
-12 -2 21 -0.8017 0.0000
-12 -1 1 -0.6999 0.0000
-12 -1 2 2.9124 0.0000
-12 -1 3 -1.7713 0.0000
-12 -1 4 -1.1733 0.0000
-12 -1 5 3.9180 0.0000
-12 -1 6 6.0551 0.0000
-12 -1 7 -3.6602 0.0000
-12 -1 8 3.6474 0.0000
-12 -1 9 -1.3881 0.0000
-12 -1 10 4.3835 0.0000
-12 -1 11 -1.4965 0.0000
-12 -1 12 -3.3515 0.0000
-12 -1 13 2.5723 0.0000
-12 -1 14 1.8541 0.0000
-12 -1 15 -0.4894 0.0000
-12 -1 16 -1.0762 0.0000
-12 -1 17 -1.3489 0.0000
-12 -1 18 2.5032 0.0000
-12 -1 19 -1.1153 0.0000
-12 -1 20 0.4797 0.0000
-12 -1 21 0.0784 0.0000
-12 -1 22 1.3056 0.0000
-12 0 1 0.0192 0.0000
-12 0 2 1.0059 0.0000
-12 0 3 -3.9582 0.0000
-12 0 4 3.6229 0.0000
-12 0 5 3.0312 0.0000
-12 0 6 -0.7711 0.0000
-12 0 7 -4.1687 0.0000
-12 0 8 6.6145 0.0000
-12 0 9 0.3762 0.0000
-12 0 10 2.1128 0.0000
-12 0 11 -2.7523 0.0000
-12 0 12 0.6874 0.0000
-12 0 13 4.0374 0.0000
-12 0 14 -2.8562 0.0000
-12 0 15 0.1279 0.0000
-12 0 16 -0.1418 0.0000
-12 0 17 2.3988 0.0000
-12 0 18 0.9958 0.0000
-12 0 19 -1.9268 0.0000
-12 0 20 1.0868 0.0000
-12 0 21 0.3134 0.0000
-12 0 22 -0.7635 0.0000
-12 1 1 0.4809 0.0000
-12 1 2 -3.0303 0.0000
-12 1 3 1.9250 0.0000
-12 1 4 4.3455 0.0000
-12 1 5 -4.5924 0.0000
-12 1 6 -4.7275 0.0000
-12 1 7 -0.8316 0.0000
-12 1 8 1.7599 0.0000
-12 1 9 -2.6096 0.0000
-12 1 10 -4.2504 0.0000
-12 1 11 1.0354 0.0000
-12 1 12 1.6435 0.0000
-12 1 13 -2.3829 0.0000
-12 1 14 -5.1257 0.0000
-12 1 15 -0.6325 0.0000
-12 1 16 -1.6172 0.0000
-12 1 17 0.8692 0.0000
-12 1 18 -1.7382 0.0000
-12 1 19 -0.4824 0.0000
-12 1 20 0.3869 0.0000
-12 1 21 -1.2547 0.0000
-12 1 22 -0.6988 0.0000
-12 2 1 1.8000 0.0000
-12 2 2 -6.7686 0.0000
-12 2 3 7.4207 0.0000
-12 2 4 -2.1876 0.0000
-12 2 5 -5.6633 0.0000
-12 2 6 5.5596 0.0000
-12 2 7 2.3234 0.0000
-12 2 8 -1.9747 0.0000
-12 2 9 -1.5673 0.0000
-12 2 10 -2.7584 0.0000
-12 2 11 5.5994 0.0000
-12 2 12 -0.2751 0.0000
-12 2 13 -1.5677 0.0000
-12 2 14 3.8758 0.0000
-12 2 15 1.9547 0.0000
-12 2 16 -0.9994 0.0000
-12 2 17 -2.2392 0.0000
-12 2 18 0.0242 0.0000
-12 2 19 1.1723 0.0000
-12 2 20 0.6467 0.0000
-12 2 21 -0.6469 0.0000
-12 2 22 0.6640 0.0000
-12 3 1 4.0766 0.0000
-12 3 2 -6.6224 0.0000
-12 3 3 4.6815 0.0000
-12 3 4 -9.2734 0.0000
-12 3 5 -2.3033 0.0000
-12 3 6 7.5500 0.0000
-12 3 7 -4.8324 0.0000
-12 3 8 -3.4866 0.0000
-12 3 9 2.9531 0.0000
-12 3 10 -0.9501 0.0000
-12 3 11 3.3355 0.0000
-12 3 12 -6.6816 0.0000
-12 3 13 0.2967 0.0000
-12 3 14 3.6426 0.0000
-12 3 15 -0.1013 0.0000
-12 3 16 2.0681 0.0000
-12 3 17 -0.6501 0.0000
-12 3 18 3.3131 0.0000
-12 3 19 -0.4341 0.0000
-12 3 20 -1.3530 0.0000
-12 3 21 1.1121 0.0000
-12 4 1 5.1045 0.0000
-12 4 2 -2.6503 0.0000
-12 4 3 0.8856 0.0000
-12 4 4 -1.8483 0.0000
-12 4 5 2.2642 0.0000
-12 4 6 3.1832 0.0000
-12 4 7 -8.5913 0.0000
-12 4 8 4.4235 0.0000
-12 4 9 2.2912 0.0000
-12 4 10 0.9567 0.0000
-12 4 11 0.4792 0.0000
-12 4 12 -2.5636 0.0000
-12 4 13 4.8349 0.0000
-12 4 14 -0.8524 0.0000
-12 4 15 -3.9167 0.0000
-12 4 16 2.1996 0.0000
-12 4 17 -2.2353 0.0000
-12 4 18 2.0561 0.0000
-12 4 19 -2.0989 0.0000
-12 4 20 -0.5462 0.0000
-12 4 21 0.7914 0.0000
-12 5 1 3.4846 0.0000
-12 5 2 4.9348 0.0000
-12 5 3 -0.6931 0.0000
-12 5 4 11.4227 0.0000
-12 5 5 3.5355 0.0000
-12 5 6 1.3546 0.0000
-12 5 7 1.6994 0.0000
-12 5 8 8.2948 0.0000
-12 5 9 -1.4991 0.0000
-12 5 10 0.9963 0.0000
-12 5 11 -1.6027 0.0000
-12 5 12 1.1032 0.0000
-12 5 13 2.7509 0.0000
-12 5 14 -3.6688 0.0000
-12 5 15 -0.8730 0.0000
-12 5 16 2.0677 0.0000
-12 5 17 -0.7958 0.0000
-12 5 18 -1.5348 0.0000
-12 5 19 -0.3551 0.0000
-12 5 20 1.0520 0.0000
-12 5 21 0.5065 0.0000
-12 6 1 -5.0244 0.0000
-12 6 2 0.5274 0.0000
-12 6 3 -9.0478 0.0000
-12 6 4 5.1734 0.0000
-12 6 5 -7.1464 0.0000
-12 6 6 -3.5447 0.0000
-12 6 7 5.4931 0.0000
-12 6 8 -3.8147 0.0000
-12 6 9 -1.8645 0.0000
-12 6 10 -0.5223 0.0000
-12 6 11 1.2677 0.0000
-12 6 12 3.3008 0.0000
-12 6 13 -0.9135 0.0000
-12 6 14 -0.2109 0.0000
-12 6 15 1.5316 0.0000
-12 6 16 0.3019 0.0000
-12 6 17 0.9994 0.0000
-12 6 18 -2.8804 0.0000
-12 6 19 3.0568 0.0000
-12 6 20 -0.6342 0.0000
-12 6 21 -0.0356 0.0000
-12 7 1 -1.2028 0.0000
-12 7 2 1.5374 0.0000
-12 7 3 -3.5744 0.0000
-12 7 4 -1.9887 0.0000
-12 7 5 -7.4539 0.0000
-12 7 6 -1.7223 0.0000
-12 7 7 0.7302 0.0000
-12 7 8 -10.5461 0.0000
-12 7 9 1.6975 0.0000
-12 7 10 -5.2348 0.0000
-12 7 11 0.2848 0.0000
-12 7 12 -4.0357 0.0000
-12 7 13 -3.7031 0.0000
-12 7 14 1.6790 0.0000
-12 7 15 1.2085 0.0000
-12 7 16 -0.4138 0.0000
-12 7 17 0.0620 0.0000
-12 7 18 -0.0915 0.0000
-12 7 19 0.8505 0.0000
-12 7 20 -0.3928 0.0000
-12 8 1 2.8010 0.0000
-12 8 2 2.4733 0.0000
-12 8 3 5.7551 0.0000
-12 8 4 -2.8805 0.0000
-12 8 5 6.1556 0.0000
-12 8 6 3.9207 0.0000
-12 8 7 1.3906 0.0000
-12 8 8 0.4438 0.0000
-12 8 9 6.7616 0.0000
-12 8 10 -0.0674 0.0000
-12 8 11 2.5652 0.0000
-12 8 12 -1.1880 0.0000
-12 8 13 0.2934 0.0000
-12 8 14 1.2198 0.0000
-12 8 15 -1.4202 0.0000
-12 8 16 -0.5779 0.0000
-12 8 17 0.4082 0.0000
-12 8 18 2.0561 0.0000
-12 8 19 -1.5639 0.0000
-12 8 20 -0.0277 0.0000
-12 9 1 -0.9702 0.0000
-12 9 2 -3.1444 0.0000
-12 9 3 2.0346 0.0000
-12 9 4 -5.4090 0.0000
-12 9 5 4.8417 0.0000
-12 9 6 -4.4723 0.0000
-12 9 7 -2.3433 0.0000
-12 9 8 2.4898 0.0000
-12 9 9 -1.1961 0.0000
-12 9 10 -0.3064 0.0000
-12 9 11 -1.4798 0.0000
-12 9 12 3.0328 0.0000
-12 9 13 1.7607 0.0000
-12 9 14 0.1219 0.0000
-12 9 15 -1.2636 0.0000
-12 9 16 -0.5847 0.0000
-12 9 17 0.7448 0.0000
-12 9 18 1.0421 0.0000
-12 9 19 -0.3069 0.0000
-12 10 1 -1.9723 0.0000
-12 10 2 -2.3342 0.0000
-12 10 3 0.8583 0.0000
-12 10 4 2.0887 0.0000
-12 10 5 1.3725 0.0000
-12 10 6 -1.7509 0.0000
-12 10 7 1.2732 0.0000
-12 10 8 1.8212 0.0000
-12 10 9 -3.1825 0.0000
-12 10 10 1.5757 0.0000
-12 10 11 -1.3647 0.0000
-12 10 12 1.6667 0.0000
-12 10 13 -2.5812 0.0000
-12 10 14 -0.6093 0.0000
-12 10 15 -0.4191 0.0000
-12 10 16 0.2297 0.0000
-12 10 17 -1.8018 0.0000
-12 10 18 -0.2293 0.0000
-12 11 1 2.4083 0.0000
-12 11 2 2.0281 0.0000
-12 11 3 1.1318 0.0000
-12 11 4 2.4216 0.0000
-12 11 5 -4.1520 0.0000
-12 11 6 2.5180 0.0000
-12 11 7 1.1733 0.0000
-12 11 8 -0.6164 0.0000
-12 11 9 -1.1744 0.0000
-12 11 10 2.4169 0.0000
-12 11 11 -0.4704 0.0000
-12 11 12 -1.1978 0.0000
-12 11 13 -1.3783 0.0000
-12 11 14 1.2004 0.0000
-12 11 15 0.6538 0.0000
-12 11 16 -0.4330 0.0000
-12 11 17 -0.1240 0.0000
-12 11 18 0.5182 0.0000
-12 12 1 0.5872 0.0000
-12 12 2 0.6743 0.0000
-12 12 3 -3.9296 0.0000
-12 12 4 0.6361 0.0000
-12 12 5 -4.7482 0.0000
-12 12 6 3.5256 0.0000
-12 12 7 -3.6593 0.0000
-12 12 8 -0.4202 0.0000
-12 12 9 0.4235 0.0000
-12 12 10 0.5148 0.0000
-12 12 11 -0.5539 0.0000
-12 12 12 -2.1080 0.0000
-12 12 13 2.0756 0.0000
-12 12 14 0.1028 0.0000
-12 12 15 0.6569 0.0000
-12 12 16 -0.5154 0.0000
-12 12 17 0.3110 0.0000
-12 13 1 1.4465 0.0000
-12 13 2 -1.2998 0.0000
-12 13 3 -2.8310 0.0000
-12 13 4 0.9462 0.0000
-12 13 5 1.6274 0.0000
-12 13 6 -0.6120 0.0000
-12 13 7 -2.1660 0.0000
-12 13 8 0.2662 0.0000
-12 13 9 0.8420 0.0000
-12 13 10 -1.2155 0.0000
-12 13 11 1.3829 0.0000
-12 13 12 2.9094 0.0000
-12 13 13 1.5041 0.0000
-12 13 14 0.1040 0.0000
-12 13 15 0.1460 0.0000
-12 13 16 1.5113 0.0000
-12 14 1 0.9584 0.0000
-12 14 2 0.4398 0.0000
-12 14 3 1.6624 0.0000
-12 14 4 3.3085 0.0000
-12 14 5 4.2610 0.0000
-12 14 6 -1.5790 0.0000
-12 14 7 2.7018 0.0000
-12 14 8 1.0181 0.0000
-12 14 9 1.5563 0.0000
-12 14 10 -2.2546 0.0000
-12 14 11 1.5185 0.0000
-12 14 12 0.4134 0.0000
-12 14 13 -1.0372 0.0000
-12 14 14 -1.0503 0.0000
-12 14 15 0.0928 0.0000
-12 15 1 -1.2593 0.0000
-12 15 2 1.2639 0.0000
-12 15 3 -0.2159 0.0000
-12 15 4 -0.5713 0.0000
-12 15 5 0.1140 0.0000
-12 15 6 -1.2726 0.0000
-12 15 7 2.8115 0.0000
-12 15 8 -1.4429 0.0000
-12 15 9 0.5194 0.0000
-12 15 10 -1.4994 0.0000
-12 15 11 0.0886 0.0000
-12 15 12 -0.7457 0.0000
-12 15 13 -0.2116 0.0000
-12 15 14 0.4318 0.0000
-12 16 1 0.5640 0.0000
-12 16 2 -0.9516 0.0000
-12 16 3 -0.1795 0.0000
-12 16 4 -4.1238 0.0000
-12 16 5 -0.8807 0.0000
-12 16 6 -1.1413 0.0000
-12 16 7 0.9672 0.0000
-12 16 8 -0.7907 0.0000
-12 16 9 0.0445 0.0000
-12 16 10 1.0550 0.0000
-12 16 11 -2.0381 0.0000
-12 16 12 -1.1734 0.0000
-12 16 13 -1.2598 0.0000
-12 17 1 0.4035 0.0000
-12 17 2 -0.7973 0.0000
-12 17 3 1.0839 0.0000
-12 17 4 -0.6279 0.0000
-12 17 5 0.6613 0.0000
-12 17 6 -0.1021 0.0000
-12 17 7 -0.2982 0.0000
-12 17 8 -1.1165 0.0000
-12 17 9 -0.6985 0.0000
-12 17 10 0.9087 0.0000
-12 17 11 -0.3863 0.0000
-12 17 12 0.6171 0.0000
-12 18 1 -1.2599 0.0000
-12 18 2 -0.2356 0.0000
-12 18 3 0.2526 0.0000
-12 18 4 1.6454 0.0000
-12 18 5 -0.7472 0.0000
-12 18 6 1.0832 0.0000
-12 18 7 -0.5975 0.0000
-12 18 8 0.9848 0.0000
-12 18 9 -0.7410 0.0000
-12 18 10 1.3212 0.0000
-12 19 1 -0.1314 0.0000
-12 19 2 -0.6660 0.0000
-12 19 3 0.0206 0.0000
-12 19 4 -0.0003 0.0000
-12 19 5 -0.8323 0.0000
-12 19 6 -0.2115 0.0000
-12 19 7 -0.4171 0.0000
-12 19 8 -0.2101 0.0000
-12 19 9 0.6193 0.0000
-12 20 1 -0.5146 0.0000
-12 20 2 0.9634 0.0000
-12 20 3 -0.5939 0.0000
-12 20 4 -0.6078 0.0000
-12 20 5 -0.1330 0.0000
-12 20 6 -0.2723 0.0000
-12 20 7 -0.7504 0.0000
-12 21 1 0.2050 0.0000
-12 21 2 2.1016 0.0000
-12 21 3 0.6403 0.0000
-12 21 4 0.0867 0.0000
-11 -12 7 -0.3908 0.0000
-11 -12 8 0.5748 0.0000
-11 -12 9 0.6264 0.0000
-11 -12 10 -0.8705 0.0000
-11 -12 11 -0.0539 0.0000
-11 -11 2 -0.1555 0.0000
-11 -11 3 0.4326 0.0000
-11 -11 4 -1.4243 0.0000
-11 -11 5 0.3129 0.0000
-11 -11 6 -1.7227 0.0000
-11 -11 7 1.2737 0.0000
-11 -11 8 -0.6555 0.0000
-11 -11 9 -0.7308 0.0000
-11 -11 10 0.0654 0.0000
-11 -11 11 0.5855 0.0000
-11 -11 12 1.2623 0.0000
-11 -11 13 -0.2914 0.0000
-11 -11 14 0.1480 0.0000
-11 -11 15 -0.6429 0.0000
-11 -10 1 -0.1116 0.0000
-11 -10 2 0.5408 0.0000
-11 -10 3 0.5772 0.0000
-11 -10 4 0.5100 0.0000
-11 -10 5 2.0777 0.0000
-11 -10 6 0.8981 0.0000
-11 -10 7 1.8121 0.0000
-11 -10 8 -1.4299 0.0000
-11 -10 9 -0.0571 0.0000
-11 -10 10 0.6126 0.0000
-11 -10 11 -0.8862 0.0000
-11 -10 12 -1.5837 0.0000
-11 -10 13 -0.0095 0.0000
-11 -10 14 0.8957 0.0000
-11 -10 15 0.8251 0.0000
-11 -10 16 -0.7343 0.0000
-11 -10 17 -0.4477 0.0000
-11 -9 1 0.0267 0.0000
-11 -9 2 -0.4677 0.0000
-11 -9 3 -1.4440 0.0000
-11 -9 4 -0.7133 0.0000
-11 -9 5 -0.1481 0.0000
-11 -9 6 0.2878 0.0000
-11 -9 7 -1.7485 0.0000
-11 -9 8 0.1797 0.0000
-11 -9 9 0.2352 0.0000
-11 -9 10 0.8266 0.0000
-11 -9 11 -1.6206 0.0000
-11 -9 12 0.1361 0.0000
-11 -9 13 0.2991 0.0000
-11 -9 14 0.4547 0.0000
-11 -9 15 -1.5089 0.0000
-11 -9 16 -1.6093 0.0000
-11 -9 17 1.4803 0.0000
-11 -9 18 0.3422 0.0000
-11 -8 1 0.4240 0.0000
-11 -8 2 -0.1481 0.0000
-11 -8 3 -0.0768 0.0000
-11 -8 4 -0.0180 0.0000
-11 -8 5 -0.2112 0.0000
-11 -8 6 -1.3228 0.0000
-11 -8 7 -1.0012 0.0000
-11 -8 8 1.7888 0.0000
-11 -8 9 0.4333 0.0000
-11 -8 10 -0.7897 0.0000
-11 -8 11 -0.3310 0.0000
-11 -8 12 2.0618 0.0000
-11 -8 13 0.1975 0.0000
-11 -8 14 -0.5621 0.0000
-11 -8 15 0.1043 0.0000
-11 -8 16 1.2044 0.0000
-11 -8 17 1.5538 0.0000
-11 -8 18 -0.5367 0.0000
-11 -8 19 -1.1038 0.0000
-11 -7 1 -2.6193 0.0000
-11 -7 2 -0.6667 0.0000
-11 -7 3 0.1968 0.0000
-11 -7 4 0.5286 0.0000
-11 -7 5 -0.3166 0.0000
-11 -7 6 -0.5206 0.0000
-11 -7 7 1.4162 0.0000
-11 -7 8 1.2232 0.0000
-11 -7 9 -1.0471 0.0000
-11 -7 10 -0.5650 0.0000
-11 -7 11 2.4038 0.0000
-11 -7 12 1.0737 0.0000
-11 -7 13 -1.7915 0.0000
-11 -7 14 -0.3555 0.0000
-11 -7 15 2.0508 0.0000
-11 -7 16 1.7456 0.0000
-11 -7 17 -1.2295 0.0000
-11 -7 18 -0.6545 0.0000
-11 -7 19 1.4326 0.0000
-11 -7 20 1.6144 0.0000
-11 -6 1 0.0989 0.0000
-11 -6 2 1.7222 0.0000
-11 -6 3 0.8029 0.0000
-11 -6 4 -1.1297 0.0000
-11 -6 5 0.1871 0.0000
-11 -6 6 0.5383 0.0000
-11 -6 7 1.5614 0.0000
-11 -6 8 -0.5058 0.0000
-11 -6 9 -2.5055 0.0000
-11 -6 10 1.2196 0.0000
-11 -6 11 2.5164 0.0000
-11 -6 12 -3.5405 0.0000
-11 -6 13 0.3602 0.0000
-11 -6 14 -0.0945 0.0000
-11 -6 15 1.6585 0.0000
-11 -6 16 -1.9477 0.0000
-11 -6 17 -2.2457 0.0000
-11 -6 18 0.3402 0.0000
-11 -6 19 0.8833 0.0000
-11 -6 20 -1.4312 0.0000
-11 -6 21 -0.8591 0.0000
-11 -5 1 2.1466 0.0000
-11 -5 2 0.5024 0.0000
-11 -5 3 0.9007 0.0000
-11 -5 4 -2.4003 0.0000
-11 -5 5 3.7466 0.0000
-11 -5 6 -0.6193 0.0000
-11 -5 7 -0.3006 0.0000
-11 -5 8 -1.6503 0.0000
-11 -5 9 0.1451 0.0000
-11 -5 10 2.8925 0.0000
-11 -5 11 -0.5618 0.0000
-11 -5 12 -3.7605 0.0000
-11 -5 13 3.2076 0.0000
-11 -5 14 -0.2364 0.0000
-11 -5 15 -1.0685 0.0000
-11 -5 16 -1.4665 0.0000
-11 -5 17 0.1466 0.0000
-11 -5 18 0.9666 0.0000
-11 -5 19 -0.9940 0.0000
-11 -5 20 -2.4357 0.0000
-11 -5 21 0.3482 0.0000
-11 -4 1 0.4356 0.0000
-11 -4 2 -3.9119 0.0000
-11 -4 3 -0.0008 0.0000
-11 -4 4 -3.2846 0.0000
-11 -4 5 1.6736 0.0000
-11 -4 6 -4.0084 0.0000
-11 -4 7 -2.0839 0.0000
-11 -4 8 -0.0977 0.0000
-11 -4 9 1.8528 0.0000
-11 -4 10 -1.4720 0.0000
-11 -4 11 -2.8598 0.0000
-11 -4 12 0.6332 0.0000
-11 -4 13 3.3904 0.0000
-11 -4 14 -1.4966 0.0000
-11 -4 15 -1.6369 0.0000
-11 -4 16 0.8225 0.0000
-11 -4 17 1.6410 0.0000
-11 -4 18 0.5471 0.0000
-11 -4 19 -1.7947 0.0000
-11 -4 20 1.5367 0.0000
-11 -4 21 -0.1808 0.0000
-11 -4 22 1.1069 0.0000
-11 -3 1 -1.0383 0.0000
-11 -3 2 -1.7523 0.0000
-11 -3 3 4.8383 0.0000
-11 -3 4 1.0903 0.0000
-11 -3 5 -1.0480 0.0000
-11 -3 6 -1.2681 0.0000
-11 -3 7 -0.6523 0.0000
-11 -3 8 2.3612 0.0000
-11 -3 9 -1.1504 0.0000
-11 -3 10 -3.5857 0.0000
-11 -3 11 -0.1264 0.0000
-11 -3 12 3.8618 0.0000
-11 -3 13 -1.8928 0.0000
-11 -3 14 -0.4442 0.0000
-11 -3 15 -0.4386 0.0000
-11 -3 16 2.6034 0.0000
-11 -3 17 0.2609 0.0000
-11 -3 18 -1.1995 0.0000
-11 -3 19 -0.1634 0.0000
-11 -3 20 2.7644 0.0000
-11 -3 21 -1.0187 0.0000
-11 -3 22 0.3027 0.0000
-11 -2 1 -2.0589 0.0000
-11 -2 2 0.9053 0.0000
-11 -2 3 4.5323 0.0000
-11 -2 4 0.3207 0.0000
-11 -2 5 -2.3493 0.0000
-11 -2 6 8.1996 0.0000
-11 -2 7 0.6082 0.0000
-11 -2 8 3.3100 0.0000
-11 -2 9 -2.9742 0.0000
-11 -2 10 0.2149 0.0000
-11 -2 11 3.7716 0.0000
-11 -2 12 0.1101 0.0000
-11 -2 13 -3.6098 0.0000
-11 -2 14 2.2090 0.0000
-11 -2 15 0.4008 0.0000
-11 -2 16 1.3767 0.0000
-11 -2 17 -1.5637 0.0000
-11 -2 18 -0.9288 0.0000
-11 -2 19 1.6525 0.0000
-11 -2 20 0.2246 0.0000
-11 -2 21 -0.8759 0.0000
-11 -2 22 1.0378 0.0000
-11 -1 1 -0.2471 0.0000
-11 -1 2 3.0984 0.0000
-11 -1 3 -0.4674 0.0000
-11 -1 4 -3.7104 0.0000
-11 -1 5 -0.4774 0.0000
-11 -1 6 8.5647 0.0000
-11 -1 7 -6.2495 0.0000
-11 -1 8 3.0532 0.0000
-11 -1 9 0.2970 0.0000
-11 -1 10 4.3953 0.0000
-11 -1 11 1.7970 0.0000
-11 -1 12 -5.4444 0.0000
-11 -1 13 0.7211 0.0000
-11 -1 14 1.8863 0.0000
-11 -1 15 -0.8673 0.0000
-11 -1 16 0.6246 0.0000
-11 -1 17 -1.5285 0.0000
-11 -1 18 2.4063 0.0000
-11 -1 19 -0.7748 0.0000
-11 -1 20 -1.0712 0.0000
-11 -1 21 -0.6350 0.0000
-11 -1 22 0.1329 0.0000
-11 0 1 0.7446 0.0000
-11 0 2 0.6414 0.0000
-11 0 3 -6.7519 0.0000
-11 0 4 0.0901 0.0000
-11 0 5 0.9970 0.0000
-11 0 6 -2.4982 0.0000
-11 0 7 -10.2116 0.0000
-11 0 8 0.0374 0.0000
-11 0 9 0.6764 0.0000
-11 0 10 -2.9159 0.0000
-11 0 11 -2.9762 0.0000
-11 0 12 -3.8872 0.0000
-11 0 13 4.1355 0.0000
-11 0 14 -4.6421 0.0000
-11 0 15 -3.5312 0.0000
-11 0 16 -2.9779 0.0000
-11 0 17 0.1902 0.0000
-11 0 18 0.6456 0.0000
-11 0 19 -1.8065 0.0000
-11 0 20 -0.5700 0.0000
-11 0 21 0.8427 0.0000
-11 0 22 -0.7833 0.0000
-11 1 1 2.9621 0.0000
-11 1 2 -6.5499 0.0000
-11 1 3 -2.2455 0.0000
-11 1 4 8.1643 0.0000
-11 1 5 -1.8554 0.0000
-11 1 6 -4.2125 0.0000
-11 1 7 2.2008 0.0000
-11 1 8 3.0098 0.0000
-11 1 9 1.7299 0.0000
-11 1 10 -4.4388 0.0000
-11 1 11 0.5379 0.0000
-11 1 12 6.3324 0.0000
-11 1 13 3.0099 0.0000
-11 1 14 0.3657 0.0000
-11 1 15 3.0038 0.0000
-11 1 16 1.4923 0.0000
-11 1 17 0.7296 0.0000
-11 1 18 -0.8936 0.0000
-11 1 19 -0.0555 0.0000
-11 1 20 2.2053 0.0000
-11 1 21 0.5856 0.0000
-11 1 22 -0.5287 0.0000
-11 2 1 5.3209 0.0000
-11 2 2 -8.3244 0.0000
-11 2 3 4.8058 0.0000
-11 2 4 4.5482 0.0000
-11 2 5 -10.6460 0.0000
-11 2 6 3.2878 0.0000
-11 2 7 8.6758 0.0000
-11 2 8 -3.0504 0.0000
-11 2 9 1.7009 0.0000
-11 2 10 -2.7246 0.0000
-11 2 11 4.2308 0.0000
-11 2 12 1.7140 0.0000
-11 2 13 -6.6420 0.0000
-11 2 14 1.6753 0.0000
-11 2 15 3.5598 0.0000
-11 2 16 2.0064 0.0000
-11 2 17 -0.2375 0.0000
-11 2 18 0.0717 0.0000
-11 2 19 1.5403 0.0000
-11 2 20 0.3948 0.0000
-11 2 21 -0.5630 0.0000
-11 2 22 0.8744 0.0000
-11 3 1 8.4694 0.0000
-11 3 2 -3.2902 0.0000
-11 3 3 6.0399 0.0000
-11 3 4 -1.4643 0.0000
-11 3 5 -7.9266 0.0000
-11 3 6 10.4770 0.0000
-11 3 7 -0.2329 0.0000
-11 3 8 -8.8160 0.0000
-11 3 9 4.5172 0.0000
-11 3 10 -0.5237 0.0000
-11 3 11 5.1784 0.0000
-11 3 12 -2.7002 0.0000
-11 3 13 -4.1151 0.0000
-11 3 14 4.3983 0.0000
-11 3 15 -4.2360 0.0000
-11 3 16 -1.2436 0.0000
-11 3 17 -3.3433 0.0000
-11 3 18 0.6540 0.0000
-11 3 19 1.1146 0.0000
-11 3 20 -3.0121 0.0000
-11 3 21 -0.0591 0.0000
-11 3 22 -0.7395 0.0000
-11 4 1 7.4329 0.0000
-11 4 2 5.2805 0.0000
-11 4 3 -0.0605 0.0000
-11 4 4 4.9481 0.0000
-11 4 5 2.6332 0.0000
-11 4 6 11.2507 0.0000
-11 4 7 -8.4931 0.0000
-11 4 8 2.5150 0.0000
-11 4 9 4.2404 0.0000
-11 4 10 -1.2292 0.0000
-11 4 11 -0.0798 0.0000
-11 4 12 -4.7656 0.0000
-11 4 13 2.8500 0.0000
-11 4 14 2.4849 0.0000
-11 4 15 -5.0196 0.0000
-11 4 16 2.2630 0.0000
-11 4 17 -0.1320 0.0000
-11 4 18 1.7358 0.0000
-11 4 19 -0.4442 0.0000
-11 4 20 -1.0665 0.0000
-11 4 21 1.5177 0.0000
-11 5 1 -7.5831 0.0000
-11 5 2 0.7677 0.0000
-11 5 3 -14.9251 0.0000
-11 5 4 1.5426 0.0000
-11 5 5 -1.2366 0.0000
-11 5 6 -6.7985 0.0000
-11 5 7 -5.2634 0.0000
-11 5 8 5.4170 0.0000
-11 5 9 -2.2576 0.0000
-11 5 10 -2.3397 0.0000
-11 5 11 -1.2928 0.0000
-11 5 12 0.8178 0.0000
-11 5 13 5.1344 0.0000
-11 5 14 -1.2263 0.0000
-11 5 15 -0.3255 0.0000
-11 5 16 1.8572 0.0000
-11 5 17 2.3383 0.0000
-11 5 18 -1.9306 0.0000
-11 5 19 -0.2631 0.0000
-11 5 20 -0.1512 0.0000
-11 5 21 0.4567 0.0000
-11 6 1 -7.6390 0.0000
-11 6 2 6.1209 0.0000
-11 6 3 -8.9772 0.0000
-11 6 4 4.2080 0.0000
-11 6 5 -4.0913 0.0000
-11 6 6 -10.9734 0.0000
-11 6 7 6.1792 0.0000
-11 6 8 -3.2465 0.0000
-11 6 9 -3.9068 0.0000
-11 6 10 -2.7095 0.0000
-11 6 11 -2.4395 0.0000
-11 6 12 0.6794 0.0000
-11 6 13 -3.8495 0.0000
-11 6 14 -3.1590 0.0000
-11 6 15 1.6087 0.0000
-11 6 16 -0.4543 0.0000
-11 6 17 1.7971 0.0000
-11 6 18 -3.1942 0.0000
-11 6 19 1.6041 0.0000
-11 6 20 0.5210 0.0000
-11 6 21 -0.2241 0.0000
-11 7 1 -1.5910 0.0000
-11 7 2 6.5398 0.0000
-11 7 3 5.1058 0.0000
-11 7 4 3.8109 0.0000
-11 7 5 1.5729 0.0000
-11 7 6 0.7927 0.0000
-11 7 7 11.2330 0.0000
-11 7 8 -7.1318 0.0000
-11 7 9 6.3507 0.0000
-11 7 10 1.1724 0.0000
-11 7 11 5.1661 0.0000
-11 7 12 2.0878 0.0000
-11 7 13 -2.6524 0.0000
-11 7 14 1.0545 0.0000
-11 7 15 0.5227 0.0000
-11 7 16 -0.4861 0.0000
-11 7 17 -1.3117 0.0000
-11 7 18 0.7208 0.0000
-11 7 19 -0.2779 0.0000
-11 7 20 0.9067 0.0000
-11 8 1 2.4252 0.0000
-11 8 2 -2.0007 0.0000
-11 8 3 6.9461 0.0000
-11 8 4 -5.9700 0.0000
-11 8 5 3.4018 0.0000
-11 8 6 2.7657 0.0000
-11 8 7 0.0312 0.0000
-11 8 8 -3.4396 0.0000
-11 8 9 4.5736 0.0000
-11 8 10 -0.7417 0.0000
-11 8 11 -0.4685 0.0000
-11 8 12 -0.1048 0.0000
-11 8 13 0.2747 0.0000
-11 8 14 3.3218 0.0000
-11 8 15 -0.7111 0.0000
-11 8 16 -0.8973 0.0000
-11 8 17 -1.1878 0.0000
-11 8 18 2.2283 0.0000
-11 8 19 -0.3063 0.0000
-11 8 20 0.1525 0.0000
-11 9 1 1.7556 0.0000
-11 9 2 -6.6453 0.0000
-11 9 3 1.6353 0.0000
-11 9 4 -5.5129 0.0000
-11 9 5 4.7435 0.0000
-11 9 6 -0.1600 0.0000
-11 9 7 -4.4943 0.0000
-11 9 8 4.1140 0.0000
-11 9 9 -0.5861 0.0000
-11 9 10 0.3641 0.0000
-11 9 11 -3.6954 0.0000
-11 9 12 0.3745 0.0000
-11 9 13 -0.1721 0.0000
-11 9 14 -0.2734 0.0000
-11 9 15 -1.7574 0.0000
-11 9 16 -0.4418 0.0000
-11 9 17 -1.0225 0.0000
-11 9 18 0.4682 0.0000
-11 9 19 -1.1730 0.0000
-11 10 1 1.4695 0.0000
-11 10 2 -1.6251 0.0000
-11 10 3 -0.3740 0.0000
-11 10 4 0.2043 0.0000
-11 10 5 -0.6245 0.0000
-11 10 6 -3.8873 0.0000
-11 10 7 -0.8607 0.0000
-11 10 8 3.0404 0.0000
-11 10 9 -4.9492 0.0000
-11 10 10 1.2544 0.0000
-11 10 11 -1.6070 0.0000
-11 10 12 2.7524 0.0000
-11 10 13 -1.2234 0.0000
-11 10 14 0.7127 0.0000
-11 10 15 0.2399 0.0000
-11 10 16 2.5764 0.0000
-11 10 17 -0.4073 0.0000
-11 10 18 1.3683 0.0000
-11 10 19 -0.3632 0.0000
-11 11 1 -3.7220 0.0000
-11 11 2 1.2739 0.0000
-11 11 3 -1.9294 0.0000
-11 11 4 4.5638 0.0000
-11 11 5 -5.0019 0.0000
-11 11 6 0.7744 0.0000
-11 11 7 0.4374 0.0000
-11 11 8 -0.4540 0.0000
-11 11 9 -3.0358 0.0000
-11 11 10 3.2388 0.0000
-11 11 11 1.8901 0.0000
-11 11 12 -0.2836 0.0000
-11 11 13 -0.3714 0.0000
-11 11 14 0.3915 0.0000
-11 11 15 1.9432 0.0000
-11 11 16 -0.1461 0.0000
-11 11 17 -0.6672 0.0000
-11 11 18 -0.6460 0.0000
-11 12 1 -0.1345 0.0000
-11 12 2 5.0268 0.0000
-11 12 3 -3.2311 0.0000
-11 12 4 3.4534 0.0000
-11 12 5 -2.4845 0.0000
-11 12 6 5.1735 0.0000
-11 12 7 -0.9248 0.0000
-11 12 8 -1.1686 0.0000
-11 12 9 1.2856 0.0000
-11 12 10 0.6826 0.0000
-11 12 11 1.4339 0.0000
-11 12 12 -1.3060 0.0000
-11 12 13 1.7579 0.0000
-11 12 14 -0.3264 0.0000
-11 12 15 -0.0289 0.0000
-11 12 16 -0.6760 0.0000
-11 12 17 1.0316 0.0000
-11 13 1 4.0320 0.0000
-11 13 2 1.5115 0.0000
-11 13 3 -0.2033 0.0000
-11 13 4 -0.4533 0.0000
-11 13 5 4.2630 0.0000
-11 13 6 1.4514 0.0000
-11 13 7 -0.2657 0.0000
-11 13 8 0.9331 0.0000
-11 13 9 1.9361 0.0000
-11 13 10 -2.6607 0.0000
-11 13 11 -2.6119 0.0000
-11 13 12 -0.0744 0.0000
-11 13 13 -0.1427 0.0000
-11 13 14 -1.0137 0.0000
-11 13 15 -1.4725 0.0000
-11 13 16 -0.6759 0.0000
-11 14 1 -1.4716 0.0000
-11 14 2 -1.8900 0.0000
-11 14 3 -1.3685 0.0000
-11 14 4 -2.5691 0.0000
-11 14 5 2.4066 0.0000
-11 14 6 -3.3431 0.0000
-11 14 7 1.2326 0.0000
-11 14 8 -0.6532 0.0000
-11 14 9 0.9433 0.0000
-11 14 10 -2.5306 0.0000
-11 14 11 0.0236 0.0000
-11 14 12 0.3089 0.0000
-11 14 13 -0.1600 0.0000
-11 14 14 -0.3829 0.0000
-11 14 15 0.2190 0.0000
-11 15 1 -2.1334 0.0000
-11 15 2 -0.5120 0.0000
-11 15 3 0.9587 0.0000
-11 15 4 -2.3561 0.0000
-11 15 5 -0.9811 0.0000
-11 15 6 -3.7318 0.0000
-11 15 7 1.3825 0.0000
-11 15 8 -0.7546 0.0000
-11 15 9 -0.0904 0.0000
-11 15 10 1.3820 0.0000
-11 15 11 -0.6088 0.0000
-11 15 12 -0.5115 0.0000
-11 15 13 -1.7307 0.0000
-11 15 14 -0.8038 0.0000
-11 16 1 1.5932 0.0000
-11 16 2 -0.4430 0.0000
-11 16 3 2.8696 0.0000
-11 16 4 -0.5045 0.0000
-11 16 5 0.4173 0.0000
-11 16 6 -0.2227 0.0000
-11 16 7 0.5982 0.0000
-11 16 8 -0.6195 0.0000
-11 16 9 -0.5769 0.0000
-11 16 10 1.7458 0.0000
-11 16 11 0.7634 0.0000
-11 16 12 0.4912 0.0000
-11 16 13 1.3710 0.0000
-11 17 1 1.3105 0.0000
-11 17 2 -0.7443 0.0000
-11 17 3 -0.1419 0.0000
-11 17 4 0.3237 0.0000
-11 17 5 -0.2825 0.0000
-11 17 6 0.8211 0.0000
-11 17 7 -0.3081 0.0000
-11 17 8 0.2976 0.0000
-11 17 9 -1.0355 0.0000
-11 17 10 0.7817 0.0000
-11 17 11 -0.5014 0.0000
-11 17 12 0.6992 0.0000
-11 18 1 0.2636 0.0000
-11 18 2 -0.7144 0.0000
-11 18 3 -1.9035 0.0000
-11 18 4 1.3695 0.0000
-11 18 5 -1.0874 0.0000
-11 18 6 0.8704 0.0000
-11 18 7 -0.3914 0.0000
-11 18 8 0.7323 0.0000
-11 18 9 -0.0991 0.0000
-11 18 10 0.6896 0.0000
-11 19 1 0.7660 0.0000
-11 19 2 -0.0401 0.0000
-11 19 3 0.1825 0.0000
-11 19 4 1.0453 0.0000
-11 19 5 -0.5229 0.0000
-11 19 6 -0.1390 0.0000
-11 19 7 0.1422 0.0000
-11 19 8 -0.6357 0.0000
-11 20 1 -0.8017 0.0000
-11 20 2 1.4343 0.0000
-11 20 3 1.7085 0.0000
-11 20 4 0.7565 0.0000
-11 20 5 0.7677 0.0000
-11 20 6 0.9654 0.0000
-11 21 1 -0.9818 0.0000
-11 21 2 -0.2459 0.0000
-11 21 3 -0.1332 0.0000
-11 21 4 -2.3697 0.0000
-10 -13 7 -1.3697 0.0000
-10 -13 8 -0.8347 0.0000
-10 -13 9 0.7998 0.0000
-10 -13 10 0.5788 0.0000
-10 -13 11 -0.5048 0.0000
-10 -12 2 -0.2849 0.0000
-10 -12 3 0.4029 0.0000
-10 -12 4 0.5576 0.0000
-10 -12 5 1.0438 0.0000
-10 -12 6 -0.6747 0.0000
-10 -12 7 0.2029 0.0000
-10 -12 8 0.8719 0.0000
-10 -12 9 0.4638 0.0000
-10 -12 10 -0.7309 0.0000
-10 -12 11 -0.7435 0.0000
-10 -12 12 1.5661 0.0000
-10 -12 13 1.4887 0.0000
-10 -12 14 0.9773 0.0000
-10 -12 15 -1.0272 0.0000
-10 -11 1 -0.5842 0.0000
-10 -11 2 0.0562 0.0000
-10 -11 3 1.3772 0.0000
-10 -11 4 -0.4326 0.0000
-10 -11 5 0.9770 0.0000
-10 -11 6 -0.6688 0.0000
-10 -11 7 2.0168 0.0000
-10 -11 8 0.3174 0.0000
-10 -11 9 -1.3515 0.0000
-10 -11 10 -0.5007 0.0000
-10 -11 11 0.1889 0.0000
-10 -11 12 0.1539 0.0000
-10 -11 13 -1.1394 0.0000
-10 -11 14 -0.3825 0.0000
-10 -11 15 -0.6505 0.0000
-10 -11 16 1.3054 0.0000
-10 -11 17 0.3759 0.0000
-10 -10 1 -0.6943 0.0000
-10 -10 2 0.4592 0.0000
-10 -10 3 -0.6817 0.0000
-10 -10 4 -2.2300 0.0000
-10 -10 5 -0.6289 0.0000
-10 -10 6 -0.0564 0.0000
-10 -10 7 0.0199 0.0000
-10 -10 8 -1.1778 0.0000
-10 -10 9 -0.9645 0.0000
-10 -10 10 1.7920 0.0000
-10 -10 11 1.1088 0.0000
-10 -10 12 -1.3919 0.0000
-10 -10 13 -1.0241 0.0000
-10 -10 14 0.5496 0.0000
-10 -10 15 1.0471 0.0000
-10 -10 16 -0.5179 0.0000
-10 -10 17 -0.7337 0.0000
-10 -10 18 -0.7119 0.0000
-10 -9 1 1.1226 0.0000
-10 -9 2 0.8317 0.0000
-10 -9 3 -0.2911 0.0000
-10 -9 4 0.0839 0.0000
-10 -9 5 0.4952 0.0000
-10 -9 6 1.1045 0.0000
-10 -9 7 -1.1052 0.0000
-10 -9 8 0.4987 0.0000
-10 -9 9 1.3223 0.0000
-10 -9 10 2.0608 0.0000
-10 -9 11 -2.1262 0.0000
-10 -9 12 -0.5918 0.0000
-10 -9 13 1.6152 0.0000
-10 -9 14 1.6408 0.0000
-10 -9 15 1.0531 0.0000
-10 -9 16 -2.6333 0.0000
-10 -9 17 1.4602 0.0000
-10 -9 18 0.8165 0.0000
-10 -9 19 0.7542 0.0000
-10 -8 1 0.3925 0.0000
-10 -8 2 -0.8887 0.0000
-10 -8 3 0.0177 0.0000
-10 -8 4 1.1876 0.0000
-10 -8 5 1.1128 0.0000
-10 -8 6 -0.9139 0.0000
-10 -8 7 -1.1235 0.0000
-10 -8 8 0.4582 0.0000
-10 -8 9 1.3067 0.0000
-10 -8 10 -0.2439 0.0000
-10 -8 11 -1.9092 0.0000
-10 -8 12 3.5908 0.0000
-10 -8 13 0.5223 0.0000
-10 -8 14 -0.9354 0.0000
-10 -8 15 -0.8419 0.0000
-10 -8 16 0.1594 0.0000
-10 -8 17 2.2314 0.0000
-10 -8 18 -0.3633 0.0000
-10 -8 19 -1.6941 0.0000
-10 -8 20 0.5842 0.0000
-10 -7 1 0.0371 0.0000
-10 -7 2 -0.7417 0.0000
-10 -7 3 0.6656 0.0000
-10 -7 4 -0.5572 0.0000
-10 -7 5 -0.5744 0.0000
-10 -7 6 -1.5364 0.0000
-10 -7 7 0.7651 0.0000
-10 -7 8 1.6637 0.0000
-10 -7 9 -1.6063 0.0000
-10 -7 10 -3.3629 0.0000
-10 -7 11 1.1310 0.0000
-10 -7 12 1.6937 0.0000
-10 -7 13 -2.6353 0.0000
-10 -7 14 -2.3405 0.0000
-10 -7 15 0.8484 0.0000
-10 -7 16 1.0118 0.0000
-10 -7 17 -0.2834 0.0000
-10 -7 18 -2.7439 0.0000
-10 -7 19 -0.6586 0.0000
-10 -7 20 0.1089 0.0000
-10 -7 21 -0.2590 0.0000
-10 -6 1 -0.5711 0.0000
-10 -6 2 0.2385 0.0000
-10 -6 3 2.0457 0.0000
-10 -6 4 -2.8774 0.0000
-10 -6 5 0.8976 0.0000
-10 -6 6 -1.1215 0.0000
-10 -6 7 1.2440 0.0000
-10 -6 8 0.0044 0.0000
-10 -6 9 -3.1818 0.0000
-10 -6 10 -0.5680 0.0000
-10 -6 11 4.7738 0.0000
-10 -6 12 -3.6552 0.0000
-10 -6 13 -1.0964 0.0000
-10 -6 14 -0.1379 0.0000
-10 -6 15 1.6399 0.0000
-10 -6 16 -1.0259 0.0000
-10 -6 17 -2.2138 0.0000
-10 -6 18 -0.9670 0.0000
-10 -6 19 2.2564 0.0000
-10 -6 20 -0.8237 0.0000
-10 -6 21 0.0113 0.0000
-10 -5 1 1.6860 0.0000
-10 -5 2 -1.1565 0.0000
-10 -5 3 0.9488 0.0000
-10 -5 4 -4.1673 0.0000
-10 -5 5 2.7778 0.0000
-10 -5 6 0.4584 0.0000
-10 -5 7 -0.6504 0.0000
-10 -5 8 -1.0454 0.0000
-10 -5 9 -0.7742 0.0000
-10 -5 10 2.5073 0.0000
-10 -5 11 1.6973 0.0000
-10 -5 12 -4.2786 0.0000
-10 -5 13 3.4083 0.0000
-10 -5 14 2.3458 0.0000
-10 -5 15 -0.2108 0.0000
-10 -5 16 -0.6198 0.0000
-10 -5 17 0.5079 0.0000
-10 -5 18 2.4052 0.0000
-10 -5 19 2.1451 0.0000
-10 -5 20 -1.9246 0.0000
-10 -5 21 0.8670 0.0000
-10 -5 22 -0.6065 0.0000
-10 -4 1 5.0058 0.0000
-10 -4 2 -2.3877 0.0000
-10 -4 3 2.1541 0.0000
-10 -4 4 0.4443 0.0000
-10 -4 5 3.2374 0.0000
-10 -4 6 -0.7116 0.0000
-10 -4 7 -3.8683 0.0000
-10 -4 8 0.8069 0.0000
-10 -4 9 2.0786 0.0000
-10 -4 10 -0.0665 0.0000
-10 -4 11 -3.2332 0.0000
-10 -4 12 -0.5539 0.0000
-10 -4 13 2.3853 0.0000
-10 -4 14 0.3120 0.0000
-10 -4 15 -2.7096 0.0000
-10 -4 16 1.3070 0.0000
-10 -4 17 0.2620 0.0000
-10 -4 18 2.2527 0.0000
-10 -4 19 -2.9033 0.0000
-10 -4 20 1.0134 0.0000
-10 -4 21 0.5103 0.0000
-10 -4 22 0.5986 0.0000
-10 -3 1 1.6402 0.0000
-10 -3 2 -4.0887 0.0000
-10 -3 3 2.2374 0.0000
-10 -3 4 5.6122 0.0000
-10 -3 5 -1.5771 0.0000
-10 -3 6 3.3529 0.0000
-10 -3 7 -0.1876 0.0000
-10 -3 8 5.8374 0.0000
-10 -3 9 0.8543 0.0000
-10 -3 10 -3.2625 0.0000
-10 -3 11 -1.5998 0.0000
-10 -3 12 4.9299 0.0000
-10 -3 13 -1.7306 0.0000
-10 -3 14 -0.3400 0.0000
-10 -3 15 -1.1726 0.0000
-10 -3 16 1.0056 0.0000
-10 -3 17 0.4642 0.0000
-10 -3 18 -1.8366 0.0000
-10 -3 19 -1.7845 0.0000
-10 -3 20 1.8022 0.0000
-10 -3 21 -0.1849 0.0000
-10 -3 22 0.3368 0.0000
-10 -2 1 -1.3041 0.0000
-10 -2 2 -2.7199 0.0000
-10 -2 3 3.1738 0.0000
-10 -2 4 1.0035 0.0000
-10 -2 5 -10.8670 0.0000
-10 -2 6 6.4729 0.0000
-10 -2 7 -0.9844 0.0000
-10 -2 8 2.0908 0.0000
-10 -2 9 -0.3972 0.0000
-10 -2 10 -1.3759 0.0000
-10 -2 11 4.4703 0.0000
-10 -2 12 1.6104 0.0000
-10 -2 13 -5.9640 0.0000
-10 -2 14 1.0896 0.0000
-10 -2 15 -0.2173 0.0000
-10 -2 16 0.9425 0.0000
-10 -2 17 0.2610 0.0000
-10 -2 18 -1.5392 0.0000
-10 -2 19 1.4513 0.0000
-10 -2 20 0.3141 0.0000
-10 -2 21 -1.8719 0.0000
-10 -2 22 -0.1707 0.0000
-10 -1 1 -2.3086 0.0000
-10 -1 2 1.3167 0.0000
-10 -1 3 -1.0866 0.0000
-10 -1 4 -4.9244 0.0000
-10 -1 5 -8.1456 0.0000
-10 -1 6 8.3870 0.0000
-10 -1 7 -8.1660 0.0000
-10 -1 8 -5.9415 0.0000
-10 -1 9 -0.8834 0.0000
-10 -1 10 -1.8937 0.0000
-10 -1 11 3.5033 0.0000
-10 -1 12 -6.7626 0.0000
-10 -1 13 -1.1653 0.0000
-10 -1 14 1.6380 0.0000
-10 -1 15 -2.4347 0.0000
-10 -1 16 -1.9782 0.0000
-10 -1 17 -1.3034 0.0000
-10 -1 18 0.7444 0.0000
-10 -1 19 1.2297 0.0000
-10 -1 20 -0.9665 0.0000
-10 -1 21 0.0682 0.0000
-10 -1 22 0.9316 0.0000
-10 0 1 1.9729 0.0000
-10 0 2 3.3036 0.0000
-10 0 3 -6.3629 0.0000
-10 0 4 0.2131 0.0000
-10 0 5 6.6016 0.0000
-10 0 6 1.8121 0.0000
-10 0 7 -4.1124 0.0000
-10 0 8 -1.7740 0.0000
-10 0 9 7.3722 0.0000
-10 0 10 -0.6421 0.0000
-10 0 11 0.6929 0.0000
-10 0 12 -2.7751 0.0000
-10 0 13 9.2438 0.0000
-10 0 14 3.5576 0.0000
-10 0 15 1.5315 0.0000
-10 0 16 0.6857 0.0000
-10 0 17 1.4257 0.0000
-10 0 18 1.0050 0.0000
-10 0 19 -0.5354 0.0000
-10 0 20 -0.3604 0.0000
-10 0 21 1.8033 0.0000
-10 0 22 -0.7708 0.0000
-10 1 1 6.1407 0.0000
-10 1 2 -0.8606 0.0000
-10 1 3 -7.3553 0.0000
-10 1 4 11.3146 0.0000
-10 1 5 4.7392 0.0000
-10 1 6 -6.9337 0.0000
-10 1 7 5.5648 0.0000
-10 1 8 4.9744 0.0000
-10 1 9 3.8205 0.0000
-10 1 10 -0.0979 0.0000
-10 1 11 -4.2964 0.0000
-10 1 12 4.4896 0.0000
-10 1 13 -0.2307 0.0000
-10 1 14 -4.3834 0.0000
-10 1 15 0.1811 0.0000
-10 1 16 2.1355 0.0000
-10 1 17 1.2184 0.0000
-10 1 18 -0.1593 0.0000
-10 1 19 -1.6110 0.0000
-10 1 20 1.2046 0.0000
-10 1 21 -0.0208 0.0000
-10 1 22 -0.7032 0.0000
-10 2 1 6.6766 0.0000
-10 2 2 -2.9231 0.0000
-10 2 3 -0.6374 0.0000
-10 2 4 10.9455 0.0000
-10 2 5 -9.8146 0.0000
-10 2 6 -8.9370 0.0000
-10 2 7 12.8415 0.0000
-10 2 8 -6.7766 0.0000
-10 2 9 -2.1096 0.0000
-10 2 10 -2.1717 0.0000
-10 2 11 0.3891 0.0000
-10 2 12 7.2163 0.0000
-10 2 13 -7.1064 0.0000
-10 2 14 -2.3005 0.0000
-10 2 15 0.9902 0.0000
-10 2 16 -0.8152 0.0000
-10 2 17 -2.0857 0.0000
-10 2 18 -2.7042 0.0000
-10 2 19 0.6746 0.0000
-10 2 20 -0.0966 0.0000
-10 2 21 -1.0764 0.0000
-10 2 22 0.0722 0.0000
-10 3 1 3.9667 0.0000
-10 3 2 2.9781 0.0000
-10 3 3 1.0202 0.0000
-10 3 4 6.6857 0.0000
-10 3 5 -11.1464 0.0000
-10 3 6 9.7006 0.0000
-10 3 7 7.2621 0.0000
-10 3 8 -11.2499 0.0000
-10 3 9 0.3469 0.0000
-10 3 10 -1.0913 0.0000
-10 3 11 -0.0242 0.0000
-10 3 12 0.3664 0.0000
-10 3 13 -7.7476 0.0000
-10 3 14 6.5946 0.0000
-10 3 15 -1.0109 0.0000
-10 3 16 -0.4820 0.0000
-10 3 17 -0.8927 0.0000
-10 3 18 -0.0622 0.0000
-10 3 19 3.5486 0.0000
-10 3 20 -1.0185 0.0000
-10 3 21 0.5036 0.0000
-10 3 22 1.1935 0.0000
-10 4 1 -6.6633 0.0000
-10 4 2 3.6460 0.0000
-10 4 3 -12.8256 0.0000
-10 4 4 -4.0754 0.0000
-10 4 5 -6.1084 0.0000
-10 4 6 7.7165 0.0000
-10 4 7 -10.1195 0.0000
-10 4 8 -4.7765 0.0000
-10 4 9 6.3351 0.0000
-10 4 10 -1.7868 0.0000
-10 4 11 1.7331 0.0000
-10 4 12 -3.5067 0.0000
-10 4 13 2.8634 0.0000
-10 4 14 5.8931 0.0000
-10 4 15 -2.9570 0.0000
-10 4 16 -0.1809 0.0000
-10 4 17 1.3235 0.0000
-10 4 18 0.9416 0.0000
-10 4 19 0.4637 0.0000
-10 4 20 -2.2457 0.0000
-10 4 21 -0.4162 0.0000
-10 4 22 -0.7699 0.0000
-10 5 1 -6.1421 0.0000
-10 5 2 10.6380 0.0000
-10 5 3 -9.5806 0.0000
-10 5 4 0.8365 0.0000
-10 5 5 6.2884 0.0000
-10 5 6 -5.7469 0.0000
-10 5 7 -6.8401 0.0000
-10 5 8 6.8098 0.0000
-10 5 9 3.1721 0.0000
-10 5 10 -2.0419 0.0000
-10 5 11 -1.8835 0.0000
-10 5 12 -2.4955 0.0000
-10 5 13 1.6306 0.0000
-10 5 14 -4.0602 0.0000
-10 5 15 -1.6906 0.0000
-10 5 16 -0.5772 0.0000
-10 5 17 3.8906 0.0000
-10 5 18 -1.2776 0.0000
-10 5 19 -0.1416 0.0000
-10 5 20 -0.3169 0.0000
-10 5 21 1.0817 0.0000
-10 6 1 -7.4512 0.0000
-10 6 2 9.2151 0.0000
-10 6 3 0.7295 0.0000
-10 6 4 6.4426 0.0000
-10 6 5 9.3691 0.0000
-10 6 6 -10.3470 0.0000
-10 6 7 10.8356 0.0000
-10 6 8 2.3702 0.0000
-10 6 9 -0.3822 0.0000
-10 6 10 0.0856 0.0000
-10 6 11 2.4064 0.0000
-10 6 12 5.3848 0.0000
-10 6 13 1.3115 0.0000
-10 6 14 -2.9640 0.0000
-10 6 15 2.3235 0.0000
-10 6 16 -0.6931 0.0000
-10 6 17 0.7554 0.0000
-10 6 18 -2.2927 0.0000
-10 6 19 -0.6360 0.0000
-10 6 20 1.2043 0.0000
-10 6 21 0.3178 0.0000
-10 7 1 -4.2511 0.0000
-10 7 2 -0.3732 0.0000
-10 7 3 7.7081 0.0000
-10 7 4 -0.5557 0.0000
-10 7 5 4.1140 0.0000
-10 7 6 -3.9352 0.0000
-10 7 7 14.7999 0.0000
-10 7 8 -8.3767 0.0000
-10 7 9 0.8910 0.0000
-10 7 10 -1.3828 0.0000
-10 7 11 -0.2723 0.0000
-10 7 12 1.4453 0.0000
-10 7 13 -2.9300 0.0000
-10 7 14 1.6824 0.0000
-10 7 15 1.1834 0.0000
-10 7 16 0.1653 0.0000
-10 7 17 -2.3737 0.0000
-10 7 18 1.1005 0.0000
-10 7 19 -0.3362 0.0000
-10 7 20 0.9761 0.0000
-10 8 1 0.4915 0.0000
-10 8 2 -9.5677 0.0000
-10 8 3 2.4778 0.0000
-10 8 4 -10.7410 0.0000
-10 8 5 -3.1511 0.0000
-10 8 6 1.0353 0.0000
-10 8 7 -1.9887 0.0000
-10 8 8 -6.3613 0.0000
-10 8 9 2.6091 0.0000
-10 8 10 2.5687 0.0000
-10 8 11 -1.9455 0.0000
-10 8 12 -1.1375 0.0000
-10 8 13 -2.0277 0.0000
-10 8 14 1.7832 0.0000
-10 8 15 -0.3550 0.0000
-10 8 16 -0.3791 0.0000
-10 8 17 -1.2239 0.0000
-10 8 18 1.3188 0.0000
-10 8 19 -0.8994 0.0000
-10 8 20 0.4241 0.0000
-10 9 1 9.0190 0.0000
-10 9 2 -3.7931 0.0000
-10 9 3 1.6373 0.0000
-10 9 4 -5.8161 0.0000
-10 9 5 0.5232 0.0000
-10 9 6 0.8148 0.0000
-10 9 7 -8.7688 0.0000
-10 9 8 2.8544 0.0000
-10 9 9 -1.0006 0.0000
-10 9 10 1.4137 0.0000
-10 9 11 -3.4666 0.0000
-10 9 12 1.1104 0.0000
-10 9 13 1.2795 0.0000
-10 9 14 1.9592 0.0000
-10 9 15 -0.1967 0.0000
-10 9 16 1.8261 0.0000
-10 9 17 0.3513 0.0000
-10 9 18 1.3074 0.0000
-10 9 19 -0.4350 0.0000
-10 10 1 0.7229 0.0000
-10 10 2 -1.5585 0.0000
-10 10 3 1.0477 0.0000
-10 10 4 4.6280 0.0000
-10 10 5 3.9848 0.0000
-10 10 6 -0.8991 0.0000
-10 10 7 -2.2898 0.0000
-10 10 8 7.0638 0.0000
-10 10 9 -4.5432 0.0000
-10 10 10 1.9413 0.0000
-10 10 11 -0.7842 0.0000
-10 10 12 3.2671 0.0000
-10 10 13 -0.8724 0.0000
-10 10 14 -0.4148 0.0000
-10 10 15 -1.2683 0.0000
-10 10 16 1.0106 0.0000
-10 10 17 -1.3333 0.0000
-10 10 18 -0.5061 0.0000
-10 11 1 -5.0198 0.0000
-10 11 2 4.5179 0.0000
-10 11 3 -2.8242 0.0000
-10 11 4 6.8665 0.0000
-10 11 5 -2.2331 0.0000
-10 11 6 2.4251 0.0000
-10 11 7 3.0451 0.0000
-10 11 8 2.1685 0.0000
-10 11 9 -3.8070 0.0000
-10 11 10 -0.3735 0.0000
-10 11 11 2.7905 0.0000
-10 11 12 -1.3627 0.0000
-10 11 13 -0.6776 0.0000
-10 11 14 -2.7106 0.0000
-10 11 15 0.1283 0.0000
-10 11 16 -0.4506 0.0000
-10 11 17 -0.0742 0.0000
-10 11 18 1.0726 0.0000
-10 12 1 -1.7903 0.0000
-10 12 2 5.9976 0.0000
-10 12 3 -2.2229 0.0000
-10 12 4 0.5497 0.0000
-10 12 5 -3.3163 0.0000
-10 12 6 3.2503 0.0000
-10 12 7 0.8154 0.0000
-10 12 8 -1.9803 0.0000
-10 12 9 0.8343 0.0000
-10 12 10 -0.6564 0.0000
-10 12 11 -0.4255 0.0000
-10 12 12 -2.9724 0.0000
-10 12 13 0.6006 0.0000
-10 12 14 0.1266 0.0000
-10 12 15 0.9036 0.0000
-10 12 16 -1.3091 0.0000
-10 12 17 -0.3035 0.0000
-10 13 1 0.8169 0.0000
-10 13 2 -1.3707 0.0000
-10 13 3 -1.7402 0.0000
-10 13 4 -5.7268 0.0000
-10 13 5 -0.1801 0.0000
-10 13 6 -0.8592 0.0000
-10 13 7 -2.1610 0.0000
-10 13 8 -1.3580 0.0000
-10 13 9 2.8868 0.0000
-10 13 10 -0.3411 0.0000
-10 13 11 -1.4513 0.0000
-10 13 12 -0.4737 0.0000
-10 13 13 1.0814 0.0000
-10 13 14 0.3336 0.0000
-10 13 15 0.0628 0.0000
-10 13 16 0.1015 0.0000
-10 14 1 -0.3789 0.0000
-10 14 2 -1.6299 0.0000
-10 14 3 1.5427 0.0000
-10 14 4 -2.2248 0.0000
-10 14 5 2.1597 0.0000
-10 14 6 -3.7633 0.0000
-10 14 7 0.5236 0.0000
-10 14 8 0.0093 0.0000
-10 14 9 1.4527 0.0000
-10 14 10 -0.4444 0.0000
-10 14 11 0.2311 0.0000
-10 14 12 0.9983 0.0000
-10 14 13 -0.2400 0.0000
-10 14 14 0.1277 0.0000
-10 14 15 -1.4241 0.0000
-10 15 1 -0.3114 0.0000
-10 15 2 -1.3646 0.0000
-10 15 3 2.9746 0.0000
-10 15 4 1.2563 0.0000
-10 15 5 1.9601 0.0000
-10 15 6 -0.8815 0.0000
-10 15 7 1.0106 0.0000
-10 15 8 0.4706 0.0000
-10 15 9 -1.9533 0.0000
-10 15 10 1.7043 0.0000
-10 15 11 1.3513 0.0000
-10 15 12 1.6317 0.0000
-10 15 13 0.4672 0.0000
-10 15 14 0.4268 0.0000
-10 16 1 1.5579 0.0000
-10 16 2 -0.4895 0.0000
-10 16 3 0.8739 0.0000
-10 16 4 0.0598 0.0000
-10 16 5 -0.3764 0.0000
-10 16 6 0.1945 0.0000
-10 16 7 0.3165 0.0000
-10 16 8 -0.4749 0.0000
-10 16 9 -1.0428 0.0000
-10 16 10 0.4031 0.0000
-10 16 11 0.1499 0.0000
-10 16 12 -0.1207 0.0000
-10 16 13 0.1021 0.0000
-10 17 1 0.6094 0.0000
-10 17 2 0.7390 0.0000
-10 17 3 -1.7148 0.0000
-10 17 4 0.5040 0.0000
-10 17 5 -0.8177 0.0000
-10 17 6 1.3172 0.0000
-10 17 7 -0.2163 0.0000
-10 17 8 1.0909 0.0000
-10 17 9 -0.1442 0.0000
-10 17 10 0.8730 0.0000
-10 17 11 -1.4939 0.0000
-10 18 1 0.5554 0.0000
-10 18 2 1.6058 0.0000
-10 18 3 -1.4801 0.0000
-10 18 4 1.4499 0.0000
-10 18 5 -0.2405 0.0000
-10 18 6 -0.5218 0.0000
-10 18 7 -0.0743 0.0000
-10 18 8 -0.4989 0.0000
-10 18 9 0.2505 0.0000
-10 18 10 -0.2398 0.0000
-10 19 1 -0.3881 0.0000
-10 19 2 0.4385 0.0000
-10 19 3 -0.4247 0.0000
-10 19 4 1.9799 0.0000
-10 19 5 0.1538 0.0000
-10 19 6 -0.0269 0.0000
-10 19 7 0.2376 0.0000
-10 19 8 -0.4707 0.0000
-10 20 1 -1.3478 0.0000
-10 20 2 -1.5535 0.0000
-10 20 3 -0.1808 0.0000
-10 20 4 -1.3487 0.0000
-10 20 5 -0.8444 0.0000
-10 20 6 0.3428 0.0000
-10 21 1 -0.1740 0.0000
-10 21 2 0.6119 0.0000
-10 21 3 0.9045 0.0000
-10 21 4 -0.6363 0.0000
-9 -14 9 -0.8497 0.0000
-9 -13 3 -0.7300 0.0000
-9 -13 4 0.3111 0.0000
-9 -13 5 1.2365 0.0000
-9 -13 6 1.0958 0.0000
-9 -13 7 -0.3849 0.0000
-9 -13 8 -0.8043 0.0000
-9 -13 9 0.7490 0.0000
-9 -13 10 0.8173 0.0000
-9 -13 11 0.3004 0.0000
-9 -13 12 -0.8015 0.0000
-9 -13 13 1.1239 0.0000
-9 -13 14 -0.2796 0.0000
-9 -13 15 0.8875 0.0000
-9 -12 1 -0.1293 0.0000
-9 -12 2 -1.1046 0.0000
-9 -12 3 -0.6634 0.0000
-9 -12 4 -0.3067 0.0000
-9 -12 5 0.4041 0.0000
-9 -12 6 -1.4810 0.0000
-9 -12 7 -0.5217 0.0000
-9 -12 8 1.5278 0.0000
-9 -12 9 1.2852 0.0000
-9 -12 10 -0.3158 0.0000
-9 -12 11 -1.3944 0.0000
-9 -12 12 -0.6681 0.0000
-9 -12 13 0.1511 0.0000
-9 -12 14 0.4792 0.0000
-9 -12 15 -0.0066 0.0000
-9 -12 16 -0.7483 0.0000
-9 -12 17 0.6800 0.0000
-9 -11 1 -0.9234 0.0000
-9 -11 2 -0.3606 0.0000
-9 -11 3 1.6047 0.0000
-9 -11 4 -0.3685 0.0000
-9 -11 5 -0.3476 0.0000
-9 -11 6 -0.6097 0.0000
-9 -11 7 0.9107 0.0000
-9 -11 8 1.4621 0.0000
-9 -11 9 -1.3621 0.0000
-9 -11 10 -1.2736 0.0000
-9 -11 11 1.0025 0.0000
-9 -11 12 1.6356 0.0000
-9 -11 13 0.0491 0.0000
-9 -11 14 0.0219 0.0000
-9 -11 15 -0.4260 0.0000
-9 -11 16 0.4519 0.0000
-9 -11 17 0.7440 0.0000
-9 -11 18 -0.6303 0.0000
-9 -10 1 -0.6199 0.0000
-9 -10 2 1.0632 0.0000
-9 -10 3 1.4794 0.0000
-9 -10 4 -0.7075 0.0000
-9 -10 5 -0.4267 0.0000
-9 -10 6 1.5774 0.0000
-9 -10 7 0.3587 0.0000
-9 -10 8 -0.2252 0.0000
-9 -10 9 -2.1105 0.0000
-9 -10 10 0.8687 0.0000
-9 -10 11 1.6297 0.0000
-9 -10 12 -1.0210 0.0000
-9 -10 13 -1.4359 0.0000
-9 -10 14 0.0239 0.0000
-9 -10 15 1.7881 0.0000
-9 -10 16 -0.3585 0.0000
-9 -10 17 -0.0784 0.0000
-9 -10 18 -0.6812 0.0000
-9 -10 19 1.4139 0.0000
-9 -9 1 0.7241 0.0000
-9 -9 2 0.9689 0.0000
-9 -9 3 -1.0191 0.0000
-9 -9 4 -0.4121 0.0000
-9 -9 5 0.5935 0.0000
-9 -9 6 0.0614 0.0000
-9 -9 7 -1.9135 0.0000
-9 -9 8 -2.3696 0.0000
-9 -9 9 -0.1664 0.0000
-9 -9 10 3.9362 0.0000
-9 -9 11 -0.4057 0.0000
-9 -9 12 -1.7416 0.0000
-9 -9 13 1.0635 0.0000
-9 -9 14 0.0173 0.0000
-9 -9 15 2.1340 0.0000
-9 -9 16 -2.6272 0.0000
-9 -9 17 -0.0988 0.0000
-9 -9 18 -0.0575 0.0000
-9 -9 19 -1.5536 0.0000
-9 -9 20 -0.1777 0.0000
-9 -8 1 0.9590 0.0000
-9 -8 2 -1.2400 0.0000
-9 -8 3 -1.7178 0.0000
-9 -8 4 -0.1120 0.0000
-9 -8 5 0.6067 0.0000
-9 -8 6 -0.6060 0.0000
-9 -8 7 -0.8811 0.0000
-9 -8 8 0.9864 0.0000
-9 -8 9 0.7898 0.0000
-9 -8 10 0.1895 0.0000
-9 -8 11 -5.2655 0.0000
-9 -8 12 1.5524 0.0000
-9 -8 13 1.4637 0.0000
-9 -8 14 -1.9694 0.0000
-9 -8 15 -0.7587 0.0000
-9 -8 16 -2.0093 0.0000
-9 -8 17 2.0358 0.0000
-9 -8 18 0.8685 0.0000
-9 -8 19 -1.1997 0.0000
-9 -8 20 -0.0645 0.0000
-9 -8 21 -0.4413 0.0000
-9 -7 1 0.0616 0.0000
-9 -7 2 -1.5737 0.0000
-9 -7 3 2.2649 0.0000
-9 -7 4 0.4601 0.0000
-9 -7 5 0.3872 0.0000
-9 -7 6 -2.2284 0.0000
-9 -7 7 -0.1707 0.0000
-9 -7 8 2.3890 0.0000
-9 -7 9 0.4460 0.0000
-9 -7 10 -3.9275 0.0000
-9 -7 11 0.6211 0.0000
-9 -7 12 2.5943 0.0000
-9 -7 13 -0.2899 0.0000
-9 -7 14 -3.5344 0.0000
-9 -7 15 1.0132 0.0000
-9 -7 16 0.3556 0.0000
-9 -7 17 1.4239 0.0000
-9 -7 18 -1.7126 0.0000
-9 -7 19 -0.2569 0.0000
-9 -7 20 0.7033 0.0000
-9 -7 21 -0.2927 0.0000
-9 -6 1 0.0232 0.0000
-9 -6 2 -0.8084 0.0000
-9 -6 3 4.8051 0.0000
-9 -6 4 -2.7397 0.0000
-9 -6 5 0.6970 0.0000
-9 -6 6 0.6202 0.0000
-9 -6 7 2.1463 0.0000
-9 -6 8 2.0799 0.0000
-9 -6 9 -1.4651 0.0000
-9 -6 10 -2.5215 0.0000
-9 -6 11 6.4284 0.0000
-9 -6 12 -0.8039 0.0000
-9 -6 13 -0.6917 0.0000
-9 -6 14 1.1208 0.0000
-9 -6 15 2.7873 0.0000
-9 -6 16 1.0929 0.0000
-9 -6 17 -0.1896 0.0000
-9 -6 18 -1.9211 0.0000
-9 -6 19 3.2260 0.0000
-9 -6 20 0.1231 0.0000
-9 -6 21 0.8843 0.0000
-9 -6 22 0.7392 0.0000
-9 -5 1 2.4291 0.0000
-9 -5 2 0.1603 0.0000
-9 -5 3 2.4798 0.0000
-9 -5 4 -4.4120 0.0000
-9 -5 5 1.8965 0.0000
-9 -5 6 2.7694 0.0000
-9 -5 7 -1.8613 0.0000
-9 -5 8 -2.5431 0.0000
-9 -5 9 -0.6498 0.0000
-9 -5 10 -0.5075 0.0000
-9 -5 11 3.2179 0.0000
-9 -5 12 -5.7667 0.0000
-9 -5 13 -0.1909 0.0000
-9 -5 14 2.6621 0.0000
-9 -5 15 -1.2688 0.0000
-9 -5 16 -0.4335 0.0000
-9 -5 17 -1.2966 0.0000
-9 -5 18 0.7885 0.0000
-9 -5 19 2.5049 0.0000
-9 -5 20 -1.5746 0.0000
-9 -5 21 0.3460 0.0000
-9 -5 22 -0.3323 0.0000
-9 -4 1 3.6354 0.0000
-9 -4 2 -0.8058 0.0000
-9 -4 3 -3.0710 0.0000
-9 -4 4 1.4558 0.0000
-9 -4 5 3.1055 0.0000
-9 -4 6 4.9398 0.0000
-9 -4 7 -4.1733 0.0000
-9 -4 8 2.0628 0.0000
-9 -4 9 3.8066 0.0000
-9 -4 10 1.2360 0.0000
-9 -4 11 -2.9344 0.0000
-9 -4 12 -0.6594 0.0000
-9 -4 13 1.0655 0.0000
-9 -4 14 1.7646 0.0000
-9 -4 15 -4.2422 0.0000
-9 -4 16 0.8783 0.0000
-9 -4 17 -1.6201 0.0000
-9 -4 18 2.2715 0.0000
-9 -4 19 -2.4770 0.0000
-9 -4 20 -1.5888 0.0000
-9 -4 21 0.0969 0.0000
-9 -4 22 -0.6289 0.0000
-9 -3 1 2.3213 0.0000
-9 -3 2 -3.4413 0.0000
-9 -3 3 -5.3063 0.0000
-9 -3 4 7.7119 0.0000
-9 -3 5 -7.6167 0.0000
-9 -3 6 -1.5460 0.0000
-9 -3 7 -3.2066 0.0000
-9 -3 8 2.2699 0.0000
-9 -3 9 4.3935 0.0000
-9 -3 10 -2.0613 0.0000
-9 -3 11 -3.2771 0.0000
-9 -3 12 5.9497 0.0000
-9 -3 13 -1.2335 0.0000
-9 -3 14 -1.3412 0.0000
-9 -3 15 -0.0590 0.0000
-9 -3 16 0.5894 0.0000
-9 -3 17 1.8971 0.0000
-9 -3 18 -0.4978 0.0000
-9 -3 19 -1.2533 0.0000
-9 -3 20 0.8691 0.0000
-9 -3 21 0.6473 0.0000
-9 -3 22 0.1636 0.0000
-9 -3 23 0.7604 0.0000
-9 -2 1 -1.0603 0.0000
-9 -2 2 -4.4072 0.0000
-9 -2 3 -0.7395 0.0000
-9 -2 4 8.4540 0.0000
-9 -2 5 -15.7296 0.0000
-9 -2 6 3.3418 0.0000
-9 -2 7 1.7522 0.0000
-9 -2 8 -4.6397 0.0000
-9 -2 9 -1.3059 0.0000
-9 -2 10 -5.7298 0.0000
-9 -2 11 0.2974 0.0000
-9 -2 12 5.6433 0.0000
-9 -2 13 -6.2218 0.0000
-9 -2 14 0.5158 0.0000
-9 -2 15 1.0333 0.0000
-9 -2 16 -1.9208 0.0000
-9 -2 17 0.9018 0.0000
-9 -2 18 -1.7666 0.0000
-9 -2 19 1.3292 0.0000
-9 -2 20 1.9606 0.0000
-9 -2 21 -0.4795 0.0000
-9 -2 22 0.6828 0.0000
-9 -2 23 0.5787 0.0000
-9 -1 1 -1.6440 0.0000
-9 -1 2 4.0960 0.0000
-9 -1 3 2.5218 0.0000
-9 -1 4 0.2462 0.0000
-9 -1 5 -7.4734 0.0000
-9 -1 6 8.6576 0.0000
-9 -1 7 4.0330 0.0000
-9 -1 8 -10.4722 0.0000
-9 -1 9 6.2772 0.0000
-9 -1 10 -2.6882 0.0000
-9 -1 11 8.2135 0.0000
-9 -1 12 -4.0009 0.0000
-9 -1 13 -0.6820 0.0000
-9 -1 14 5.3031 0.0000
-9 -1 15 3.6546 0.0000
-9 -1 16 -1.2805 0.0000
-9 -1 17 1.4349 0.0000
-9 -1 18 -0.6161 0.0000
-9 -1 19 1.2797 0.0000
-9 -1 20 -1.2794 0.0000
-9 -1 21 -0.9308 0.0000
-9 -1 22 -1.4423 0.0000
-9 -1 23 -0.2576 0.0000
-9 0 1 1.9910 0.0000
-9 0 2 9.7246 0.0000
-9 0 3 -3.5269 0.0000
-9 0 4 -3.4629 0.0000
-9 0 5 12.5160 0.0000
-9 0 6 5.1800 0.0000
-9 0 7 1.7795 0.0000
-9 0 8 -0.9556 0.0000
-9 0 9 8.9477 0.0000
-9 0 10 3.9796 0.0000
-9 0 11 1.2929 0.0000
-9 0 12 -6.3801 0.0000
-9 0 13 2.5831 0.0000
-9 0 14 0.5740 0.0000
-9 0 15 -2.6383 0.0000
-9 0 16 -0.6184 0.0000
-9 0 17 0.5885 0.0000
-9 0 18 1.2481 0.0000
-9 0 19 -0.9733 0.0000
-9 0 20 -1.1610 0.0000
-9 0 21 0.7502 0.0000
-9 0 22 -0.3776 0.0000
-9 0 23 -1.1172 0.0000
-9 1 1 2.8119 0.0000
-9 1 2 5.4592 0.0000
-9 1 3 -11.8753 0.0000
-9 1 4 1.6116 0.0000
-9 1 5 10.9538 0.0000
-9 1 6 -18.0035 0.0000
-9 1 7 -2.9116 0.0000
-9 1 8 1.8994 0.0000
-9 1 9 -5.3470 0.0000
-9 1 10 0.4838 0.0000
-9 1 11 -8.0261 0.0000
-9 1 12 3.2247 0.0000
-9 1 13 4.4028 0.0000
-9 1 14 -4.9552 0.0000
-9 1 15 -2.2308 0.0000
-9 1 16 0.9157 0.0000
-9 1 17 -0.7524 0.0000
-9 1 18 -0.2739 0.0000
-9 1 19 -2.6766 0.0000
-9 1 20 0.6092 0.0000
-9 1 21 0.7419 0.0000
-9 1 22 0.6736 0.0000
-9 2 1 -3.7607 0.0000
-9 2 2 -0.6460 0.0000
-9 2 3 -7.9200 0.0000
-9 2 4 10.2740 0.0000
-9 2 5 0.4623 0.0000
-9 2 6 -18.3215 0.0000
-9 2 7 13.6998 0.0000
-9 2 8 0.1632 0.0000
-9 2 9 -10.0491 0.0000
-9 2 10 0.0574 0.0000
-9 2 11 -8.2947 0.0000
-9 2 12 8.4612 0.0000
-9 2 13 -5.3532 0.0000
-9 2 14 -3.5413 0.0000
-9 2 15 1.5318 0.0000
-9 2 16 0.9404 0.0000
-9 2 17 -0.0134 0.0000
-9 2 18 -1.4069 0.0000
-9 2 19 1.2272 0.0000
-9 2 20 1.5922 0.0000
-9 2 21 -0.1113 0.0000
-9 2 22 0.8348 0.0000
-9 3 1 -10.7659 0.0000
-9 3 2 6.5524 0.0000
-9 3 3 -7.1537 0.0000
-9 3 4 5.1952 0.0000
-9 3 5 -15.3546 0.0000
-9 3 6 1.1953 0.0000
-9 3 7 11.8453 0.0000
-9 3 8 -6.6028 0.0000
-9 3 9 0.2140 0.0000
-9 3 10 5.5839 0.0000
-9 3 11 1.2339 0.0000
-9 3 12 5.7611 0.0000
-9 3 13 -6.1510 0.0000
-9 3 14 6.3558 0.0000
-9 3 15 3.7389 0.0000
-9 3 16 -0.5749 0.0000
-9 3 17 0.2356 0.0000
-9 3 18 -1.3114 0.0000
-9 3 19 2.0320 0.0000
-9 3 20 -0.4373 0.0000
-9 3 21 -1.7922 0.0000
-9 3 22 0.4246 0.0000
-9 4 1 -6.6683 0.0000
-9 4 2 15.8575 0.0000
-9 4 3 -2.9752 0.0000
-9 4 4 -1.4295 0.0000
-9 4 5 -0.8378 0.0000
-9 4 6 13.3110 0.0000
-9 4 7 -1.5736 0.0000
-9 4 8 -6.2887 0.0000
-9 4 9 11.0275 0.0000
-9 4 10 1.0714 0.0000
-9 4 11 1.9703 0.0000
-9 4 12 -4.8040 0.0000
-9 4 13 -2.4134 0.0000
-9 4 14 2.7456 0.0000
-9 4 15 -2.0171 0.0000
-9 4 16 -3.3069 0.0000
-9 4 17 1.4983 0.0000
-9 4 18 0.4400 0.0000
-9 4 19 2.0448 0.0000
-9 4 20 -0.7736 0.0000
-9 4 21 0.8677 0.0000
-9 4 22 0.8165 0.0000
-9 5 1 -5.4279 0.0000
-9 5 2 10.4720 0.0000
-9 5 3 -1.5936 0.0000
-9 5 4 -1.3763 0.0000
-9 5 5 13.7377 0.0000
-9 5 6 -0.3886 0.0000
-9 5 7 -10.0287 0.0000
-9 5 8 0.8866 0.0000
-9 5 9 3.5236 0.0000
-9 5 10 -3.9725 0.0000
-9 5 11 -0.0475 0.0000
-9 5 12 0.3890 0.0000
-9 5 13 6.5633 0.0000
-9 5 14 -1.9390 0.0000
-9 5 15 -0.7819 0.0000
-9 5 16 -2.6528 0.0000
-9 5 17 2.1381 0.0000
-9 5 18 -0.7204 0.0000
-9 5 19 -0.5080 0.0000
-9 5 20 -0.7660 0.0000
-9 5 21 -0.0624 0.0000
-9 6 1 -4.5659 0.0000
-9 6 2 -3.0238 0.0000
-9 6 3 5.8850 0.0000
-9 6 4 -1.9135 0.0000
-9 6 5 15.4428 0.0000
-9 6 6 -14.3064 0.0000
-9 6 7 9.5981 0.0000
-9 6 8 3.5947 0.0000
-9 6 9 -0.4830 0.0000
-9 6 10 -4.4231 0.0000
-9 6 11 -1.7229 0.0000
-9 6 12 1.1595 0.0000
-9 6 13 1.2000 0.0000
-9 6 14 -4.0488 0.0000
-9 6 15 2.1245 0.0000
-9 6 16 1.3789 0.0000
-9 6 17 0.3320 0.0000
-9 6 18 -0.4115 0.0000
-9 6 19 -1.6185 0.0000
-9 6 20 -0.0053 0.0000
-9 6 21 -1.3112 0.0000
-9 7 1 -7.5702 0.0000
-9 7 2 -16.0328 0.0000
-9 7 3 2.1789 0.0000
-9 7 4 -13.5490 0.0000
-9 7 5 -4.3182 0.0000
-9 7 6 -15.8429 0.0000
-9 7 7 10.8227 0.0000
-9 7 8 -6.7648 0.0000
-9 7 9 -2.3397 0.0000
-9 7 10 3.1549 0.0000
-9 7 11 0.2513 0.0000
-9 7 12 1.8923 0.0000
-9 7 13 -3.5227 0.0000
-9 7 14 0.3273 0.0000
-9 7 15 2.0718 0.0000
-9 7 16 1.5406 0.0000
-9 7 17 -1.7503 0.0000
-9 7 18 0.8499 0.0000
-9 7 19 -0.7368 0.0000
-9 7 20 1.1502 0.0000
-9 8 1 8.6936 0.0000
-9 8 2 -1.8707 0.0000
-9 8 3 8.0643 0.0000
-9 8 4 -4.6589 0.0000
-9 8 5 -3.5235 0.0000
-9 8 6 4.6108 0.0000
-9 8 7 0.4267 0.0000
-9 8 8 -6.6068 0.0000
-9 8 9 -2.0276 0.0000
-9 8 10 3.4888 0.0000
-9 8 11 -1.7415 0.0000
-9 8 12 -1.4711 0.0000
-9 8 13 -0.5623 0.0000
-9 8 14 2.0773 0.0000
-9 8 15 0.4893 0.0000
-9 8 16 -0.1299 0.0000
-9 8 17 -0.7905 0.0000
-9 8 18 2.2538 0.0000
-9 8 19 -0.6477 0.0000
-9 8 20 1.0226 0.0000
-9 9 1 10.9409 0.0000
-9 9 2 1.3505 0.0000
-9 9 3 5.4048 0.0000
-9 9 4 3.0019 0.0000
-9 9 5 5.7293 0.0000
-9 9 6 10.6286 0.0000
-9 9 7 -7.6694 0.0000
-9 9 8 5.0629 0.0000
-9 9 9 -0.0815 0.0000
-9 9 10 4.2122 0.0000
-9 9 11 -2.4584 0.0000
-9 9 12 0.8421 0.0000
-9 9 13 0.3494 0.0000
-9 9 14 0.1964 0.0000
-9 9 15 -2.4947 0.0000
-9 9 16 -0.3460 0.0000
-9 9 17 -0.6132 0.0000
-9 9 18 0.0217 0.0000
-9 9 19 -1.8137 0.0000
-9 10 1 2.0425 0.0000
-9 10 2 -1.8247 0.0000
-9 10 3 -4.0218 0.0000
-9 10 4 2.6561 0.0000
-9 10 5 2.9933 0.0000
-9 10 6 2.5317 0.0000
-9 10 7 -4.6711 0.0000
-9 10 8 9.8194 0.0000
-9 10 9 -2.7671 0.0000
-9 10 10 -1.2681 0.0000
-9 10 11 -1.6587 0.0000
-9 10 12 1.2512 0.0000
-9 10 13 -0.3632 0.0000
-9 10 14 -1.9132 0.0000
-9 10 15 -1.6228 0.0000
-9 10 16 0.4565 0.0000
-9 10 17 0.0268 0.0000
-9 10 18 0.0708 0.0000
-9 11 1 -8.0163 0.0000
-9 11 2 2.1225 0.0000
-9 11 3 -5.5460 0.0000
-9 11 4 1.9764 0.0000
-9 11 5 -6.5158 0.0000
-9 11 6 -3.4569 0.0000
-9 11 7 0.2410 0.0000
-9 11 8 1.7386 0.0000
-9 11 9 -1.6671 0.0000
-9 11 10 -4.0933 0.0000
-9 11 11 3.0205 0.0000
-9 11 12 -1.1233 0.0000
-9 11 13 1.5792 0.0000
-9 11 14 -0.1955 0.0000
-9 11 15 1.9443 0.0000
-9 11 16 0.5815 0.0000
-9 11 17 -0.5798 0.0000
-9 11 18 0.0118 0.0000
-9 12 1 -5.7642 0.0000
-9 12 2 2.1568 0.0000
-9 12 3 -1.0033 0.0000
-9 12 4 -2.1095 0.0000
-9 12 5 -5.9347 0.0000
-9 12 6 -0.2644 0.0000
-9 12 7 0.1275 0.0000
-9 12 8 -3.7352 0.0000
-9 12 9 0.3632 0.0000
-9 12 10 0.8812 0.0000
-9 12 11 2.2231 0.0000
-9 12 12 -2.1908 0.0000
-9 12 13 0.1951 0.0000
-9 12 14 -0.7298 0.0000
-9 12 15 1.4077 0.0000
-9 12 16 -0.6207 0.0000
-9 12 17 0.3297 0.0000
-9 13 1 2.2199 0.0000
-9 13 2 1.8385 0.0000
-9 13 3 3.7436 0.0000
-9 13 4 -0.6256 0.0000
-9 13 5 3.0770 0.0000
-9 13 6 1.6730 0.0000
-9 13 7 0.7169 0.0000
-9 13 8 -2.0428 0.0000
-9 13 9 3.6234 0.0000
-9 13 10 1.5202 0.0000
-9 13 11 0.4173 0.0000
-9 13 12 -0.4008 0.0000
-9 13 13 1.0063 0.0000
-9 13 14 0.8585 0.0000
-9 13 15 0.0945 0.0000
-9 13 16 -0.1477 0.0000
-9 14 1 2.1365 0.0000
-9 14 2 -2.4971 0.0000
-9 14 3 1.1091 0.0000
-9 14 4 -0.1418 0.0000
-9 14 5 4.1456 0.0000
-9 14 6 -1.4456 0.0000
-9 14 7 -0.0943 0.0000
-9 14 8 0.6815 0.0000
-9 14 9 0.5140 0.0000
-9 14 10 -0.2516 0.0000
-9 14 11 -0.7300 0.0000
-9 14 12 1.7400 0.0000
-9 14 13 -0.0112 0.0000
-9 14 14 0.8557 0.0000
-9 14 15 -1.2691 0.0000
-9 15 1 0.8143 0.0000
-9 15 2 -1.7288 0.0000
-9 15 3 0.1961 0.0000
-9 15 4 0.2825 0.0000
-9 15 5 0.0505 0.0000
-9 15 6 -1.0669 0.0000
-9 15 7 0.2289 0.0000
-9 15 8 1.0578 0.0000
-9 15 9 -2.4231 0.0000
-9 15 10 -1.3752 0.0000
-9 15 11 -0.2058 0.0000
-9 15 12 0.2974 0.0000
-9 15 13 -0.0950 0.0000
-9 15 14 -0.4893 0.0000
-9 16 1 -0.7284 0.0000
-9 16 2 0.6155 0.0000
-9 16 3 0.0576 0.0000
-9 16 4 0.3284 0.0000
-9 16 5 -0.9367 0.0000
-9 16 6 0.9465 0.0000
-9 16 7 0.7369 0.0000
-9 16 8 0.3150 0.0000
-9 16 9 -1.4354 0.0000
-9 16 10 0.9366 0.0000
-9 16 11 -0.9634 0.0000
-9 16 12 -0.5511 0.0000
-9 16 13 -1.1468 0.0000
-9 17 1 -0.5422 0.0000
-9 17 2 2.2841 0.0000
-9 17 3 -0.6619 0.0000
-9 17 4 0.0965 0.0000
-9 17 5 -0.6170 0.0000
-9 17 6 0.2038 0.0000
-9 17 7 -0.8687 0.0000
-9 17 8 -0.4869 0.0000
-9 17 9 0.1152 0.0000
-9 17 10 1.5800 0.0000
-9 17 11 -0.4501 0.0000
-9 18 1 -0.8575 0.0000
-9 18 2 1.3350 0.0000
-9 18 3 -1.5383 0.0000
-9 18 4 0.5424 0.0000
-9 18 5 1.4263 0.0000
-9 18 6 -0.6719 0.0000
-9 18 7 0.2537 0.0000
-9 18 8 -0.2036 0.0000
-9 18 9 0.7061 0.0000
-9 18 10 -0.1827 0.0000
-9 19 1 -1.1549 0.0000
-9 19 2 -0.3984 0.0000
-9 19 3 -2.0083 0.0000
-9 19 4 0.3623 0.0000
-9 19 5 -0.2891 0.0000
-9 19 6 -0.2934 0.0000
-9 19 7 0.5109 0.0000
-9 19 8 0.9803 0.0000
-9 20 1 0.2052 0.0000
-9 20 2 -0.2115 0.0000
-9 20 3 1.2911 0.0000
-9 20 4 0.1269 0.0000
-9 20 5 -0.3201 0.0000
-9 20 6 0.3012 0.0000
-9 21 1 -0.9477 0.0000
-9 21 2 0.7663 0.0000
-9 21 3 0.3234 0.0000
-8 -14 3 0.5257 0.0000
-8 -14 4 -0.5323 0.0000
-8 -14 5 -0.6960 0.0000
-8 -14 6 0.2735 0.0000
-8 -14 7 1.6360 0.0000
-8 -14 8 -0.3434 0.0000
-8 -14 9 -0.6595 0.0000
-8 -14 10 -0.2325 0.0000
-8 -14 11 0.6140 0.0000
-8 -14 12 -0.5079 0.0000
-8 -14 13 0.6846 0.0000
-8 -14 14 -0.1058 0.0000
-8 -13 1 -0.7354 0.0000
-8 -13 2 0.9753 0.0000
-8 -13 3 -0.8498 0.0000
-8 -13 4 -1.6352 0.0000
-8 -13 5 0.5045 0.0000
-8 -13 6 0.6878 0.0000
-8 -13 7 0.0936 0.0000
-8 -13 8 -0.6528 0.0000
-8 -13 9 1.0266 0.0000
-8 -13 10 0.8808 0.0000
-8 -13 11 0.7238 0.0000
-8 -13 12 -1.2069 0.0000
-8 -13 13 0.5817 0.0000
-8 -13 14 -0.1130 0.0000
-8 -13 15 1.0724 0.0000
-8 -13 16 -0.3785 0.0000
-8 -12 1 1.6758 0.0000
-8 -12 2 0.8126 0.0000
-8 -12 3 0.6956 0.0000
-8 -12 4 1.6220 0.0000
-8 -12 5 1.9810 0.0000
-8 -12 6 -0.0123 0.0000
-8 -12 7 -1.3752 0.0000
-8 -12 8 -0.1775 0.0000
-8 -12 9 1.2465 0.0000
-8 -12 10 -0.6221 0.0000
-8 -12 11 -0.5128 0.0000
-8 -12 12 -0.2092 0.0000
-8 -12 13 0.7270 0.0000
-8 -12 14 -0.0257 0.0000
-8 -12 15 0.7127 0.0000
-8 -12 16 -0.3226 0.0000
-8 -12 17 1.2340 0.0000
-8 -12 18 -0.6399 0.0000
-8 -11 1 -0.6349 0.0000
-8 -11 2 -2.3353 0.0000
-8 -11 3 0.5641 0.0000
-8 -11 4 -0.0612 0.0000
-8 -11 5 -2.3515 0.0000
-8 -11 6 -1.0835 0.0000
-8 -11 7 -1.5992 0.0000
-8 -11 8 1.6550 0.0000
-8 -11 9 -0.6623 0.0000
-8 -11 10 -2.3494 0.0000
-8 -11 11 -1.1084 0.0000
-8 -11 12 0.4958 0.0000
-8 -11 13 -0.5703 0.0000
-8 -11 14 -0.6644 0.0000
-8 -11 15 0.0093 0.0000
-8 -11 16 -0.7635 0.0000
-8 -11 17 -0.4585 0.0000
-8 -11 18 -1.6553 0.0000
-8 -11 19 1.3707 0.0000
-8 -10 1 -0.8555 0.0000
-8 -10 2 0.0120 0.0000
-8 -10 3 0.8988 0.0000
-8 -10 4 -0.8524 0.0000
-8 -10 5 -1.4050 0.0000
-8 -10 6 1.0596 0.0000
-8 -10 7 0.4675 0.0000
-8 -10 8 0.5416 0.0000
-8 -10 9 -2.1356 0.0000
-8 -10 10 0.7616 0.0000
-8 -10 11 3.7587 0.0000
-8 -10 12 0.7989 0.0000
-8 -10 13 -0.4565 0.0000
-8 -10 14 -1.4131 0.0000
-8 -10 15 1.7360 0.0000
-8 -10 16 -0.6658 0.0000
-8 -10 17 0.0889 0.0000
-8 -10 18 -0.8871 0.0000
-8 -10 19 0.1152 0.0000
-8 -10 20 -1.9437 0.0000
-8 -9 1 -0.6753 0.0000
-8 -9 2 1.4095 0.0000
-8 -9 3 -0.7283 0.0000
-8 -9 4 -1.4428 0.0000
-8 -9 5 1.6250 0.0000
-8 -9 6 2.2869 0.0000
-8 -9 7 1.2278 0.0000
-8 -9 8 -0.3930 0.0000
-8 -9 9 -2.4892 0.0000
-8 -9 10 2.5987 0.0000
-8 -9 11 0.0051 0.0000
-8 -9 12 -2.8490 0.0000
-8 -9 13 0.5688 0.0000
-8 -9 14 -1.1962 0.0000
-8 -9 15 1.1364 0.0000
-8 -9 16 -0.8548 0.0000
-8 -9 17 -0.0210 0.0000
-8 -9 18 2.5359 0.0000
-8 -9 19 -0.3451 0.0000
-8 -9 20 -0.4424 0.0000
-8 -9 21 0.1330 0.0000
-8 -8 1 1.5797 0.0000
-8 -8 2 0.7584 0.0000
-8 -8 3 -0.7831 0.0000
-8 -8 4 1.4242 0.0000
-8 -8 5 1.5668 0.0000
-8 -8 6 -0.5620 0.0000
-8 -8 7 -3.2329 0.0000
-8 -8 8 0.0505 0.0000
-8 -8 9 1.0670 0.0000
-8 -8 10 1.5715 0.0000
-8 -8 11 -3.3081 0.0000
-8 -8 12 -2.0348 0.0000
-8 -8 13 3.9450 0.0000
-8 -8 14 -2.0241 0.0000
-8 -8 15 1.3693 0.0000
-8 -8 16 -1.6954 0.0000
-8 -8 17 0.5798 0.0000
-8 -8 18 0.4728 0.0000
-8 -8 19 -0.5952 0.0000
-8 -8 20 1.0180 0.0000
-8 -8 21 0.8064 0.0000
-8 -7 1 1.8725 0.0000
-8 -7 2 -2.7755 0.0000
-8 -7 3 1.6200 0.0000
-8 -7 4 1.9106 0.0000
-8 -7 5 1.1585 0.0000
-8 -7 6 -1.6165 0.0000
-8 -7 7 -0.5918 0.0000
-8 -7 8 3.3254 0.0000
-8 -7 9 3.1921 0.0000
-8 -7 10 -2.8976 0.0000
-8 -7 11 0.5061 0.0000
-8 -7 12 2.4955 0.0000
-8 -7 13 3.1196 0.0000
-8 -7 14 -2.5310 0.0000
-8 -7 15 1.0527 0.0000
-8 -7 16 0.3081 0.0000
-8 -7 17 1.5916 0.0000
-8 -7 18 -0.9484 0.0000
-8 -7 19 0.0463 0.0000
-8 -7 20 1.2516 0.0000
-8 -7 21 -0.3563 0.0000
-8 -7 22 -0.1768 0.0000
-8 -6 1 -0.7483 0.0000
-8 -6 2 -4.6052 0.0000
-8 -6 3 4.6990 0.0000
-8 -6 4 -1.6863 0.0000
-8 -6 5 -2.9539 0.0000
-8 -6 6 -0.3503 0.0000
-8 -6 7 1.5190 0.0000
-8 -6 8 -0.3125 0.0000
-8 -6 9 0.1409 0.0000
-8 -6 10 -6.6583 0.0000
-8 -6 11 3.9597 0.0000
-8 -6 12 -0.4374 0.0000
-8 -6 13 -3.1179 0.0000
-8 -6 14 -0.4504 0.0000
-8 -6 15 1.4105 0.0000
-8 -6 16 0.8200 0.0000
-8 -6 17 1.7114 0.0000
-8 -6 18 -2.4572 0.0000
-8 -6 19 1.7482 0.0000
-8 -6 20 -0.4224 0.0000
-8 -6 21 -1.4005 0.0000
-8 -6 22 0.7462 0.0000
-8 -5 1 -0.5142 0.0000
-8 -5 2 0.9681 0.0000
-8 -5 3 3.3037 0.0000
-8 -5 4 -5.2004 0.0000
-8 -5 5 -1.9656 0.0000
-8 -5 6 7.3122 0.0000
-8 -5 7 1.7733 0.0000
-8 -5 8 -2.7997 0.0000
-8 -5 9 2.6026 0.0000
-8 -5 10 -1.4263 0.0000
-8 -5 11 4.4284 0.0000
-8 -5 12 -2.3290 0.0000
-8 -5 13 -3.9533 0.0000
-8 -5 14 4.3157 0.0000
-8 -5 15 -2.9842 0.0000
-8 -5 16 -0.7503 0.0000
-8 -5 17 -2.5522 0.0000
-8 -5 18 -1.5605 0.0000
-8 -5 19 1.0457 0.0000
-8 -5 20 -1.1237 0.0000
-8 -5 21 -0.5144 0.0000
-8 -5 22 1.3019 0.0000
-8 -4 1 0.1403 0.0000
-8 -4 2 5.4834 0.0000
-8 -4 3 -7.2941 0.0000
-8 -4 4 -0.1717 0.0000
-8 -4 5 -1.4355 0.0000
-8 -4 6 3.5469 0.0000
-8 -4 7 -6.9367 0.0000
-8 -4 8 -4.6322 0.0000
-8 -4 9 4.4736 0.0000
-8 -4 10 2.5496 0.0000
-8 -4 11 -1.2190 0.0000
-8 -4 12 -0.2798 0.0000
-8 -4 13 1.3503 0.0000
-8 -4 14 3.7614 0.0000
-8 -4 15 -3.3224 0.0000
-8 -4 16 1.4845 0.0000
-8 -4 17 -0.5364 0.0000
-8 -4 18 1.7318 0.0000
-8 -4 19 1.0918 0.0000
-8 -4 20 -0.7967 0.0000
-8 -4 21 1.0995 0.0000
-8 -4 22 -0.2649 0.0000
-8 -4 23 0.1184 0.0000
-8 -3 1 0.2921 0.0000
-8 -3 2 1.2908 0.0000
-8 -3 3 -13.2017 0.0000
-8 -3 4 12.6949 0.0000
-8 -3 5 -2.1130 0.0000
-8 -3 6 -4.5489 0.0000
-8 -3 7 -0.0548 0.0000
-8 -3 8 -1.8848 0.0000
-8 -3 9 2.7018 0.0000
-8 -3 10 -0.1376 0.0000
-8 -3 11 -9.3808 0.0000
-8 -3 12 5.5217 0.0000
-8 -3 13 1.0959 0.0000
-8 -3 14 -2.2241 0.0000
-8 -3 15 0.8103 0.0000
-8 -3 16 0.3070 0.0000
-8 -3 17 1.4947 0.0000
-8 -3 18 0.2143 0.0000
-8 -3 19 -0.5978 0.0000
-8 -3 20 -0.0303 0.0000
-8 -3 21 0.0547 0.0000
-8 -3 22 -0.5035 0.0000
-8 -3 23 0.6835 0.0000
-8 -2 1 -0.0727 0.0000
-8 -2 2 0.9918 0.0000
-8 -2 3 -5.0154 0.0000
-8 -2 4 16.2387 0.0000
-8 -2 5 -10.7182 0.0000
-8 -2 6 -6.4890 0.0000
-8 -2 7 12.6403 0.0000
-8 -2 8 -5.3030 0.0000
-8 -2 9 2.3302 0.0000
-8 -2 10 -2.1178 0.0000
-8 -2 11 -3.7332 0.0000
-8 -2 12 8.0429 0.0000
-8 -2 13 -4.2719 0.0000
-8 -2 14 -2.4695 0.0000
-8 -2 15 6.0491 0.0000
-8 -2 16 -2.1536 0.0000
-8 -2 17 1.5177 0.0000
-8 -2 18 -1.8801 0.0000
-8 -2 19 -0.8105 0.0000
-8 -2 20 0.4266 0.0000
-8 -2 21 -0.9416 0.0000
-8 -2 22 -1.5695 0.0000
-8 -2 23 -0.2433 0.0000
-8 -1 1 -2.7160 0.0000
-8 -1 2 6.3027 0.0000
-8 -1 3 7.7152 0.0000
-8 -1 4 2.4080 0.0000
-8 -1 5 -0.2455 0.0000
-8 -1 6 4.9524 0.0000
-8 -1 7 20.7910 0.0000
-8 -1 8 -11.3136 0.0000
-8 -1 9 9.1136 0.0000
-8 -1 10 -0.4812 0.0000
-8 -1 11 9.6658 0.0000
-8 -1 12 0.4172 0.0000
-8 -1 13 -5.1924 0.0000
-8 -1 14 0.2356 0.0000
-8 -1 15 1.9629 0.0000
-8 -1 16 -4.5361 0.0000
-8 -1 17 0.3489 0.0000
-8 -1 18 -0.4285 0.0000
-8 -1 19 1.4720 0.0000
-8 -1 20 0.2525 0.0000
-8 -1 21 0.4518 0.0000
-8 -1 22 -0.7878 0.0000
-8 -1 23 0.3869 0.0000
-8 0 1 -5.3031 0.0000
-8 0 2 8.4921 0.0000
-8 0 3 -0.9139 0.0000
-8 0 4 -18.7631 0.0000
-8 0 5 4.2857 0.0000
-8 0 6 -3.1919 0.0000
-8 0 7 -10.7043 0.0000
-8 0 8 -10.4594 0.0000
-8 0 9 -3.9678 0.0000
-8 0 10 -0.6218 0.0000
-8 0 11 0.2196 0.0000
-8 0 12 -7.7379 0.0000
-8 0 13 1.3480 0.0000
-8 0 14 2.8858 0.0000
-8 0 15 -2.7910 0.0000
-8 0 16 0.1485 0.0000
-8 0 17 -0.2295 0.0000
-8 0 18 1.5409 0.0000
-8 0 19 -1.3877 0.0000
-8 0 20 -1.3438 0.0000
-8 0 21 0.1410 0.0000
-8 0 22 1.9470 0.0000
-8 0 23 0.6511 0.0000
-8 1 1 -6.2215 0.0000
-8 1 2 0.1474 0.0000
-8 1 3 -9.4154 0.0000
-8 1 4 -13.9825 0.0000
-8 1 5 22.3234 0.0000
-8 1 6 -12.0353 0.0000
-8 1 7 -9.0263 0.0000
-8 1 8 13.0100 0.0000
-8 1 9 -7.2533 0.0000
-8 1 10 2.9388 0.0000
-8 1 11 -9.1846 0.0000
-8 1 12 -2.8427 0.0000
-8 1 13 6.1396 0.0000
-8 1 14 -2.3328 0.0000
-8 1 15 -3.9596 0.0000
-8 1 16 2.4854 0.0000
-8 1 17 -0.1444 0.0000
-8 1 18 1.6058 0.0000
-8 1 19 -0.8400 0.0000
-8 1 20 0.4101 0.0000
-8 1 21 1.5040 0.0000
-8 1 22 0.5801 0.0000
-8 2 1 -5.7857 0.0000
-8 2 2 5.7409 0.0000
-8 2 3 -3.8534 0.0000
-8 2 4 7.3102 0.0000
-8 2 5 12.0030 0.0000
-8 2 6 -15.9295 0.0000
-8 2 7 6.5637 0.0000
-8 2 8 20.0124 0.0000
-8 2 9 -8.8128 0.0000
-8 2 10 11.2072 0.0000
-8 2 11 -6.0781 0.0000
-8 2 12 11.2338 0.0000
-8 2 13 1.7082 0.0000
-8 2 14 -0.8467 0.0000
-8 2 15 3.2179 0.0000
-8 2 16 3.0501 0.0000
-8 2 17 0.2152 0.0000
-8 2 18 -0.9820 0.0000
-8 2 19 -0.5778 0.0000
-8 2 20 1.3282 0.0000
-8 2 21 -0.6834 0.0000
-8 2 22 -0.2741 0.0000
-8 3 1 -16.5831 0.0000
-8 3 2 12.7007 0.0000
-8 3 3 2.4871 0.0000
-8 3 4 10.5013 0.0000
-8 3 5 -6.5922 0.0000
-8 3 6 -0.8611 0.0000
-8 3 7 14.9174 0.0000
-8 3 8 -2.6848 0.0000
-8 3 9 -3.6562 0.0000
-8 3 10 5.5268 0.0000
-8 3 11 -0.4848 0.0000
-8 3 12 3.9090 0.0000
-8 3 13 -8.3566 0.0000
-8 3 14 -2.1466 0.0000
-8 3 15 2.2779 0.0000
-8 3 16 -2.7266 0.0000
-8 3 17 -0.6965 0.0000
-8 3 18 -1.4033 0.0000
-8 3 19 0.9235 0.0000
-8 3 20 0.7018 0.0000
-8 3 21 -1.2303 0.0000
-8 3 22 1.3558 0.0000
-8 4 1 -12.1785 0.0000
-8 4 2 13.4363 0.0000
-8 4 3 0.9639 0.0000
-8 4 4 -5.1466 0.0000
-8 4 5 -7.9346 0.0000
-8 4 6 9.5328 0.0000
-8 4 7 -2.9320 0.0000
-8 4 8 -18.6026 0.0000
-8 4 9 1.7932 0.0000
-8 4 10 -2.1755 0.0000
-8 4 11 0.6484 0.0000
-8 4 12 -1.4563 0.0000
-8 4 13 0.1405 0.0000
-8 4 14 3.2434 0.0000
-8 4 15 1.8298 0.0000
-8 4 16 -4.2884 0.0000
-8 4 17 0.6948 0.0000
-8 4 18 -0.8904 0.0000
-8 4 19 1.9465 0.0000
-8 4 20 -0.6882 0.0000
-8 4 21 -0.4379 0.0000
-8 4 22 0.1418 0.0000
-8 5 1 1.8735 0.0000
-8 5 2 0.0388 0.0000
-8 5 3 0.6360 0.0000
-8 5 4 -9.0079 0.0000
-8 5 5 13.6098 0.0000
-8 5 6 5.8804 0.0000
-8 5 7 -4.2869 0.0000
-8 5 8 -0.0765 0.0000
-8 5 9 10.4848 0.0000
-8 5 10 -3.7545 0.0000
-8 5 11 -1.5193 0.0000
-8 5 12 -5.0210 0.0000
-8 5 13 5.3888 0.0000
-8 5 14 -1.7339 0.0000
-8 5 15 0.3308 0.0000
-8 5 16 -0.5678 0.0000
-8 5 17 1.7257 0.0000
-8 5 18 0.0431 0.0000
-8 5 19 -0.4145 0.0000
-8 5 20 -0.8585 0.0000
-8 5 21 -0.7781 0.0000
-8 6 1 0.1212 0.0000
-8 6 2 -26.6666 0.0000
-8 6 3 -0.3403 0.0000
-8 6 4 -19.1521 0.0000
-8 6 5 8.5978 0.0000
-8 6 6 -24.4222 0.0000
-8 6 7 -0.9750 0.0000
-8 6 8 2.7851 0.0000
-8 6 9 0.4186 0.0000
-8 6 10 -1.8759 0.0000
-8 6 11 -0.3564 0.0000
-8 6 12 1.6185 0.0000
-8 6 13 2.5023 0.0000
-8 6 14 -3.9869 0.0000
-8 6 15 0.0847 0.0000
-8 6 16 2.5966 0.0000
-8 6 17 0.2664 0.0000
-8 6 18 0.6988 0.0000
-8 6 19 -0.6026 0.0000
-8 6 20 0.0042 0.0000
-8 6 21 0.4475 0.0000
-8 7 1 10.3200 0.0000
-8 7 2 -7.3707 0.0000
-8 7 3 19.6233 0.0000
-8 7 4 0.7625 0.0000
-8 7 5 7.1851 0.0000
-8 7 6 -10.6213 0.0000
-8 7 7 12.3917 0.0000
-8 7 8 -0.1324 0.0000
-8 7 9 -7.8346 0.0000
-8 7 10 1.4236 0.0000
-8 7 11 0.2676 0.0000
-8 7 12 1.3530 0.0000
-8 7 13 -2.4344 0.0000
-8 7 14 -1.5262 0.0000
-8 7 15 1.1102 0.0000
-8 7 16 1.2109 0.0000
-8 7 17 -2.0351 0.0000
-8 7 18 1.4957 0.0000
-8 7 19 -0.2922 0.0000
-8 7 20 0.6154 0.0000
-8 8 1 7.8374 0.0000
-8 8 2 4.5283 0.0000
-8 8 3 12.5486 0.0000
-8 8 4 4.9993 0.0000
-8 8 5 -0.9814 0.0000
-8 8 6 11.4555 0.0000
-8 8 7 5.2404 0.0000
-8 8 8 -0.0140 0.0000
-8 8 9 -2.1489 0.0000
-8 8 10 6.8127 0.0000
-8 8 11 2.3854 0.0000
-8 8 12 -1.2219 0.0000
-8 8 13 -0.9901 0.0000
-8 8 14 1.4519 0.0000
-8 8 15 -0.3076 0.0000
-8 8 16 -0.7448 0.0000
-8 8 17 -2.3321 0.0000
-8 8 18 1.4384 0.0000
-8 8 19 -1.3486 0.0000
-8 8 20 -0.5169 0.0000
-8 9 1 3.8318 0.0000
-8 9 2 -1.7423 0.0000
-8 9 3 -7.4190 0.0000
-8 9 4 -4.7338 0.0000
-8 9 5 -5.4768 0.0000
-8 9 6 12.6772 0.0000
-8 9 7 -10.6725 0.0000
-8 9 8 4.3609 0.0000
-8 9 9 -1.8041 0.0000
-8 9 10 1.9993 0.0000
-8 9 11 -4.2196 0.0000
-8 9 12 -1.6203 0.0000
-8 9 13 0.3994 0.0000
-8 9 14 0.8034 0.0000
-8 9 15 -2.0847 0.0000
-8 9 16 -0.3556 0.0000
-8 9 17 0.1341 0.0000
-8 9 18 1.4295 0.0000
-8 9 19 -1.0167 0.0000
-8 10 1 -0.6319 0.0000
-8 10 2 -3.0120 0.0000
-8 10 3 -10.6740 0.0000
-8 10 4 -2.3490 0.0000
-8 10 5 -5.3932 0.0000
-8 10 6 -1.7407 0.0000
-8 10 7 -11.9758 0.0000
-8 10 8 3.9398 0.0000
-8 10 9 0.7102 0.0000
-8 10 10 -3.8507 0.0000
-8 10 11 -0.7208 0.0000
-8 10 12 1.3079 0.0000
-8 10 13 2.9967 0.0000
-8 10 14 0.7252 0.0000
-8 10 15 0.7427 0.0000
-8 10 16 1.4588 0.0000
-8 10 17 0.5619 0.0000
-8 10 18 -0.4226 0.0000
-8 11 1 -5.1073 0.0000
-8 11 2 2.3299 0.0000
-8 11 3 -0.2023 0.0000
-8 11 4 7.1009 0.0000
-8 11 5 -1.9021 0.0000
-8 11 6 -3.0112 0.0000
-8 11 7 0.9430 0.0000
-8 11 8 0.4259 0.0000
-8 11 9 2.1759 0.0000
-8 11 10 -3.8242 0.0000
-8 11 11 4.2638 0.0000
-8 11 12 -0.1679 0.0000
-8 11 13 -0.1052 0.0000
-8 11 14 -2.0495 0.0000
-8 11 15 0.4865 0.0000
-8 11 16 -0.0961 0.0000
-8 11 17 -0.5099 0.0000
-8 12 1 -3.0306 0.0000
-8 12 2 4.0630 0.0000
-8 12 3 6.3867 0.0000
-8 12 4 5.3885 0.0000
-8 12 5 0.6503 0.0000
-8 12 6 3.3412 0.0000
-8 12 7 6.6113 0.0000
-8 12 8 -1.5038 0.0000
-8 12 9 1.2263 0.0000
-8 12 10 0.3493 0.0000
-8 12 11 3.5331 0.0000
-8 12 12 -1.2821 0.0000
-8 12 13 0.2996 0.0000
-8 12 14 -0.5101 0.0000
-8 12 15 1.1892 0.0000
-8 12 16 -0.0059 0.0000
-8 12 17 0.0884 0.0000
-8 13 1 0.6369 0.0000
-8 13 2 -0.9384 0.0000
-8 13 3 -0.5701 0.0000
-8 13 4 -4.6441 0.0000
-8 13 5 1.1232 0.0000
-8 13 6 -0.4676 0.0000
-8 13 7 0.5090 0.0000
-8 13 8 -4.3527 0.0000
-8 13 9 0.5799 0.0000
-8 13 10 0.9725 0.0000
-8 13 11 -1.0582 0.0000
-8 13 12 -1.0028 0.0000
-8 13 13 -0.5888 0.0000
-8 13 14 0.4103 0.0000
-8 13 15 -0.5812 0.0000
-8 13 16 -0.6123 0.0000
-8 14 1 3.5110 0.0000
-8 14 2 -0.8873 0.0000
-8 14 3 -1.3323 0.0000
-8 14 4 -1.8629 0.0000
-8 14 5 2.7594 0.0000
-8 14 6 -1.3474 0.0000
-8 14 7 -2.1902 0.0000
-8 14 8 0.0236 0.0000
-8 14 9 -0.1963 0.0000
-8 14 10 -0.7876 0.0000
-8 14 11 -2.9041 0.0000
-8 14 12 0.3478 0.0000
-8 14 13 -0.1020 0.0000
-8 14 14 0.4824 0.0000
-8 14 15 -0.1499 0.0000
-8 15 1 0.0211 0.0000
-8 15 2 -1.0027 0.0000
-8 15 3 0.2350 0.0000
-8 15 4 1.1834 0.0000
-8 15 5 0.3954 0.0000
-8 15 6 -0.9569 0.0000
-8 15 7 0.5434 0.0000
-8 15 8 2.6814 0.0000
-8 15 9 -0.4445 0.0000
-8 15 10 -0.6970 0.0000
-8 15 11 -0.5526 0.0000
-8 15 12 0.4052 0.0000
-8 15 13 0.0184 0.0000
-8 16 1 -2.0913 0.0000
-8 16 2 0.1418 0.0000
-8 16 3 0.6029 0.0000
-8 16 4 0.3156 0.0000
-8 16 5 -2.0824 0.0000
-8 16 6 0.6066 0.0000
-8 16 7 0.4023 0.0000
-8 16 8 1.5013 0.0000
-8 16 9 -1.9756 0.0000
-8 16 10 2.4350 0.0000
-8 16 11 0.6543 0.0000
-8 16 12 0.1583 0.0000
-8 17 1 -0.7967 0.0000
-8 17 2 0.9859 0.0000
-8 17 3 0.3932 0.0000
-8 17 4 -0.9778 0.0000
-8 17 5 0.8198 0.0000
-8 17 6 0.8876 0.0000
-8 17 7 0.1036 0.0000
-8 17 8 -1.2988 0.0000
-8 17 9 -0.5205 0.0000
-8 17 10 1.3142 0.0000
-8 17 11 0.5275 0.0000
-8 18 1 -0.6213 0.0000
-8 18 2 0.6890 0.0000
-8 18 3 -1.5763 0.0000
-8 18 4 -1.0219 0.0000
-8 18 5 1.2264 0.0000
-8 18 6 -0.5104 0.0000
-8 18 7 -0.7511 0.0000
-8 18 8 -0.2894 0.0000
-8 18 9 0.9413 0.0000
-8 19 1 0.0198 0.0000
-8 19 2 0.1308 0.0000
-8 19 3 -0.6516 0.0000
-8 19 4 0.4851 0.0000
-8 19 5 -0.1148 0.0000
-8 19 6 -0.8487 0.0000
-8 19 7 0.1106 0.0000
-8 20 1 -0.9925 0.0000
-8 20 2 -0.4046 0.0000
-8 20 3 0.4968 0.0000
-8 20 4 0.5176 0.0000
-8 20 5 -1.3588 0.0000
-8 21 1 -0.9264 0.0000
-8 21 2 0.3512 0.0000
-8 21 3 0.3554 0.0000
-7 -15 4 1.1852 0.0000
-7 -15 5 0.1663 0.0000
-7 -15 6 -1.1968 0.0000
-7 -15 7 0.6061 0.0000
-7 -15 8 0.5965 0.0000
-7 -15 9 0.2531 0.0000
-7 -15 10 -0.8112 0.0000
-7 -15 11 0.1902 0.0000
-7 -15 12 -0.1012 0.0000
-7 -15 13 -0.5788 0.0000
-7 -14 1 -0.7212 0.0000
-7 -14 2 -0.1542 0.0000
-7 -14 3 1.6734 0.0000
-7 -14 4 0.3075 0.0000
-7 -14 5 -0.7073 0.0000
-7 -14 6 0.0359 0.0000
-7 -14 7 1.4783 0.0000
-7 -14 8 0.7710 0.0000
-7 -14 9 -0.4632 0.0000
-7 -14 10 -0.1301 0.0000
-7 -14 11 0.8730 0.0000
-7 -14 12 -0.8780 0.0000
-7 -14 13 0.3380 0.0000
-7 -14 14 0.5335 0.0000
-7 -14 15 1.8401 0.0000
-7 -14 16 -0.3455 0.0000
-7 -13 1 0.1851 0.0000
-7 -13 2 1.7572 0.0000
-7 -13 3 1.6218 0.0000
-7 -13 4 -0.6185 0.0000
-7 -13 5 0.9013 0.0000
-7 -13 6 0.7824 0.0000
-7 -13 7 0.1529 0.0000
-7 -13 8 -2.3445 0.0000
-7 -13 9 -0.8093 0.0000
-7 -13 10 0.1434 0.0000
-7 -13 11 0.0776 0.0000
-7 -13 12 -0.8353 0.0000
-7 -13 13 0.0854 0.0000
-7 -13 14 -0.5454 0.0000
-7 -13 15 0.3529 0.0000
-7 -13 16 -1.5371 0.0000
-7 -13 17 1.0256 0.0000
-7 -13 18 0.8152 0.0000
-7 -12 1 -0.3489 0.0000
-7 -12 2 -1.4578 0.0000
-7 -12 3 -2.5408 0.0000
-7 -12 4 -1.4604 0.0000
-7 -12 5 -0.7855 0.0000
-7 -12 6 -0.9566 0.0000
-7 -12 7 -1.8701 0.0000
-7 -12 8 -1.7639 0.0000
-7 -12 9 1.4843 0.0000
-7 -12 10 0.3191 0.0000
-7 -12 11 -1.2013 0.0000
-7 -12 12 -0.6602 0.0000
-7 -12 13 0.4239 0.0000
-7 -12 14 -0.7628 0.0000
-7 -12 15 -0.2653 0.0000
-7 -12 16 -0.2075 0.0000
-7 -12 17 -0.2876 0.0000
-7 -12 18 -0.5683 0.0000
-7 -12 19 -1.8213 0.0000
-7 -11 1 1.6983 0.0000
-7 -11 2 -1.0576 0.0000
-7 -11 3 0.3591 0.0000
-7 -11 4 2.7645 0.0000
-7 -11 5 -0.6545 0.0000
-7 -11 6 1.8334 0.0000
-7 -11 7 -0.8776 0.0000
-7 -11 8 2.8386 0.0000
-7 -11 9 1.9131 0.0000
-7 -11 10 0.4315 0.0000
-7 -11 11 0.8326 0.0000
-7 -11 12 1.6197 0.0000
-7 -11 13 0.7699 0.0000
-7 -11 14 -1.4975 0.0000
-7 -11 15 1.2114 0.0000
-7 -11 16 0.3041 0.0000
-7 -11 17 0.1604 0.0000
-7 -11 18 -1.3453 0.0000
-7 -11 19 -0.2569 0.0000
-7 -11 20 0.3729 0.0000
-7 -10 1 -1.1217 0.0000
-7 -10 2 -0.1257 0.0000
-7 -10 3 1.9797 0.0000
-7 -10 4 -0.1649 0.0000
-7 -10 5 -1.0831 0.0000
-7 -10 6 1.2756 0.0000
-7 -10 7 1.4733 0.0000
-7 -10 8 2.5140 0.0000
-7 -10 9 -2.8897 0.0000
-7 -10 10 -3.0041 0.0000
-7 -10 11 0.6994 0.0000
-7 -10 12 -0.1304 0.0000
-7 -10 13 -0.0790 0.0000
-7 -10 14 -1.4973 0.0000
-7 -10 15 0.5221 0.0000
-7 -10 16 -0.7596 0.0000
-7 -10 17 0.1366 0.0000
-7 -10 18 1.3986 0.0000
-7 -10 19 2.8156 0.0000
-7 -10 20 -0.1315 0.0000
-7 -10 21 -0.3431 0.0000
-7 -9 1 -0.9046 0.0000
-7 -9 2 1.6934 0.0000
-7 -9 3 1.2676 0.0000
-7 -9 4 -1.7828 0.0000
-7 -9 5 -0.6570 0.0000
-7 -9 6 0.9812 0.0000
-7 -9 7 -1.3723 0.0000
-7 -9 8 -0.3884 0.0000
-7 -9 9 -3.2085 0.0000
-7 -9 10 0.6432 0.0000
-7 -9 11 1.4622 0.0000
-7 -9 12 -2.9216 0.0000
-7 -9 13 0.9677 0.0000
-7 -9 14 0.4376 0.0000
-7 -9 15 0.6391 0.0000
-7 -9 16 0.8315 0.0000
-7 -9 17 -0.7297 0.0000
-7 -9 18 1.2859 0.0000
-7 -9 19 0.1447 0.0000
-7 -9 20 -1.2222 0.0000
-7 -9 21 -0.0788 0.0000
-7 -8 1 1.4935 0.0000
-7 -8 2 1.2593 0.0000
-7 -8 3 -3.0270 0.0000
-7 -8 4 -0.1969 0.0000
-7 -8 5 2.7270 0.0000
-7 -8 6 2.1474 0.0000
-7 -8 7 -2.3284 0.0000
-7 -8 8 -0.4681 0.0000
-7 -8 9 3.2118 0.0000
-7 -8 10 1.9626 0.0000
-7 -8 11 2.4549 0.0000
-7 -8 12 -3.3009 0.0000
-7 -8 13 4.9881 0.0000
-7 -8 14 -1.3618 0.0000
-7 -8 15 0.3805 0.0000
-7 -8 16 -0.0552 0.0000
-7 -8 17 0.1271 0.0000
-7 -8 18 -0.5157 0.0000
-7 -8 19 -1.8279 0.0000
-7 -8 20 -0.1780 0.0000
-7 -8 21 0.6523 0.0000
-7 -8 22 1.2143 0.0000
-7 -7 1 1.9460 0.0000
-7 -7 2 -4.6886 0.0000
-7 -7 3 -3.0624 0.0000
-7 -7 4 2.3550 0.0000
-7 -7 5 1.1545 0.0000
-7 -7 6 -2.2811 0.0000
-7 -7 7 -2.7690 0.0000
-7 -7 8 0.1544 0.0000
-7 -7 9 3.3733 0.0000
-7 -7 10 -4.0520 0.0000
-7 -7 11 -1.7146 0.0000
-7 -7 12 -0.7699 0.0000
-7 -7 13 2.0571 0.0000
-7 -7 14 -2.1442 0.0000
-7 -7 15 0.0867 0.0000
-7 -7 16 0.5951 0.0000
-7 -7 17 1.6498 0.0000
-7 -7 18 -0.3512 0.0000
-7 -7 19 -0.0681 0.0000
-7 -7 20 1.4238 0.0000
-7 -7 21 -0.2823 0.0000
-7 -7 22 -1.0039 0.0000
-7 -6 1 1.5687 0.0000
-7 -6 2 -5.0473 0.0000
-7 -6 3 4.7100 0.0000
-7 -6 4 2.8615 0.0000
-7 -6 5 -4.9439 0.0000
-7 -6 6 -2.4051 0.0000
-7 -6 7 5.2791 0.0000
-7 -6 8 -1.0777 0.0000
-7 -6 9 4.5979 0.0000
-7 -6 10 -5.1983 0.0000
-7 -6 11 1.3864 0.0000
-7 -6 12 3.3092 0.0000
-7 -6 13 -4.5535 0.0000
-7 -6 14 -1.5620 0.0000
-7 -6 15 -0.6522 0.0000
-7 -6 16 -2.8156 0.0000
-7 -6 17 -0.2993 0.0000
-7 -6 18 -2.3985 0.0000
-7 -6 19 -0.0454 0.0000
-7 -6 20 0.9253 0.0000
-7 -6 21 -2.2584 0.0000
-7 -6 22 0.5429 0.0000
-7 -5 1 -3.7351 0.0000
-7 -5 2 2.1194 0.0000
-7 -5 3 5.4390 0.0000
-7 -5 4 -1.6294 0.0000
-7 -5 5 -9.3843 0.0000
-7 -5 6 4.0012 0.0000
-7 -5 7 3.5528 0.0000
-7 -5 8 -7.7300 0.0000
-7 -5 9 1.8126 0.0000
-7 -5 10 -0.8427 0.0000
-7 -5 11 2.9135 0.0000
-7 -5 12 3.7656 0.0000
-7 -5 13 -5.7319 0.0000
-7 -5 14 7.2917 0.0000
-7 -5 15 0.5190 0.0000
-7 -5 16 0.6807 0.0000
-7 -5 17 0.8732 0.0000
-7 -5 18 -0.7307 0.0000
-7 -5 19 0.7082 0.0000
-7 -5 20 0.2479 0.0000
-7 -5 21 -1.1818 0.0000
-7 -5 22 1.5050 0.0000
-7 -5 23 -0.0107 0.0000
-7 -4 1 -6.2549 0.0000
-7 -4 2 9.4535 0.0000
-7 -4 3 -9.6203 0.0000
-7 -4 4 -2.5311 0.0000
-7 -4 5 1.8311 0.0000
-7 -4 6 5.7717 0.0000
-7 -4 7 1.3957 0.0000
-7 -4 8 -7.8230 0.0000
-7 -4 9 2.6560 0.0000
-7 -4 10 2.3269 0.0000
-7 -4 11 -2.4426 0.0000
-7 -4 12 -2.2100 0.0000
-7 -4 13 0.5724 0.0000
-7 -4 14 5.1331 0.0000
-7 -4 15 -2.1228 0.0000
-7 -4 16 0.9062 0.0000
-7 -4 17 0.8838 0.0000
-7 -4 18 -0.2917 0.0000
-7 -4 19 1.3803 0.0000
-7 -4 20 -0.4735 0.0000
-7 -4 21 0.2412 0.0000
-7 -4 22 -0.2685 0.0000
-7 -4 23 -0.2948 0.0000
-7 -3 1 -0.2276 0.0000
-7 -3 2 12.5700 0.0000
-7 -3 3 -16.4905 0.0000
-7 -3 4 9.9553 0.0000
-7 -3 5 9.2979 0.0000
-7 -3 6 -10.1010 0.0000
-7 -3 7 -0.0160 0.0000
-7 -3 8 -0.2392 0.0000
-7 -3 9 -0.9940 0.0000
-7 -3 10 7.5425 0.0000
-7 -3 11 -11.5513 0.0000
-7 -3 12 1.1005 0.0000
-7 -3 13 2.5794 0.0000
-7 -3 14 -5.8701 0.0000
-7 -3 15 -0.8351 0.0000
-7 -3 16 -0.1109 0.0000
-7 -3 17 0.2999 0.0000
-7 -3 18 0.0828 0.0000
-7 -3 19 -0.6042 0.0000
-7 -3 20 -0.2015 0.0000
-7 -3 21 -0.4801 0.0000
-7 -3 22 -0.7294 0.0000
-7 -3 23 -0.5476 0.0000
-7 -2 1 -2.3792 0.0000
-7 -2 2 4.6365 0.0000
-7 -2 3 -3.3869 0.0000
-7 -2 4 14.7410 0.0000
-7 -2 5 9.8309 0.0000
-7 -2 6 -18.3054 0.0000
-7 -2 7 22.9294 0.0000
-7 -2 8 1.0349 0.0000
-7 -2 9 2.7451 0.0000
-7 -2 10 5.6159 0.0000
-7 -2 11 -3.5505 0.0000
-7 -2 12 9.5482 0.0000
-7 -2 13 1.3210 0.0000
-7 -2 14 -8.5321 0.0000
-7 -2 15 5.4706 0.0000
-7 -2 16 -3.1786 0.0000
-7 -2 17 -0.0405 0.0000
-7 -2 18 -1.1760 0.0000
-7 -2 19 -0.2570 0.0000
-7 -2 20 0.8767 0.0000
-7 -2 21 1.5500 0.0000
-7 -2 22 -0.5220 0.0000
-7 -2 23 0.6185 0.0000
-7 -1 1 -12.8854 0.0000
-7 -1 2 -5.3292 0.0000
-7 -1 3 6.2437 0.0000
-7 -1 4 -12.7633 0.0000
-7 -1 5 -9.0548 0.0000
-7 -1 6 -19.3818 0.0000
-7 -1 7 13.4063 0.0000
-7 -1 8 -18.6934 0.0000
-7 -1 9 -7.1232 0.0000
-7 -1 10 -6.2891 0.0000
-7 -1 11 0.5428 0.0000
-7 -1 12 2.8833 0.0000
-7 -1 13 -4.9875 0.0000
-7 -1 14 0.9892 0.0000
-7 -1 15 4.9616 0.0000
-7 -1 16 -1.2839 0.0000
-7 -1 17 0.4665 0.0000
-7 -1 18 0.1118 0.0000
-7 -1 19 0.0916 0.0000
-7 -1 20 -0.0472 0.0000
-7 -1 21 -0.0359 0.0000
-7 -1 22 0.0697 0.0000
-7 -1 23 1.7355 0.0000
-7 0 1 -10.0278 0.0000
-7 0 2 -2.8045 0.0000
-7 0 3 9.8840 0.0000
-7 0 4 -23.8206 0.0000
-7 0 5 6.9951 0.0000
-7 0 6 12.8629 0.0000
-7 0 7 -3.1918 0.0000
-7 0 8 -1.0990 0.0000
-7 0 9 -0.6309 0.0000
-7 0 10 -0.0254 0.0000
-7 0 11 4.2442 0.0000
-7 0 12 -7.5209 0.0000
-7 0 13 -1.1163 0.0000
-7 0 14 4.5194 0.0000
-7 0 15 -4.4471 0.0000
-7 0 16 -0.5417 0.0000
-7 0 17 -0.3030 0.0000
-7 0 18 3.1104 0.0000
-7 0 19 1.2546 0.0000
-7 0 20 -0.1141 0.0000
-7 0 21 -0.5290 0.0000
-7 0 22 0.7592 0.0000
-7 0 23 0.0321 0.0000
-7 1 1 14.2118 0.0000
-7 1 2 8.6041 0.0000
-7 1 3 14.4759 0.0000
-7 1 4 -13.7038 0.0000
-7 1 5 25.4566 0.0000
-7 1 6 10.7238 0.0000
-7 1 7 -21.8886 0.0000
-7 1 8 25.0357 0.0000
-7 1 9 -0.3285 0.0000
-7 1 10 10.8666 0.0000
-7 1 11 -1.1066 0.0000
-7 1 12 -3.2418 0.0000
-7 1 13 5.9129 0.0000
-7 1 14 4.4423 0.0000
-7 1 15 -3.2648 0.0000
-7 1 16 4.2338 0.0000
-7 1 17 0.2318 0.0000
-7 1 18 0.3256 0.0000
-7 1 19 -1.4456 0.0000
-7 1 20 -1.7175 0.0000
-7 1 21 0.9170 0.0000
-7 1 22 0.1127 0.0000
-7 2 1 -7.8388 0.0000
-7 2 2 -4.2431 0.0000
-7 2 3 -0.5697 0.0000
-7 2 4 2.1968 0.0000
-7 2 5 12.3109 0.0000
-7 2 6 -6.7099 0.0000
-7 2 7 -13.4585 0.0000
-7 2 8 24.0961 0.0000
-7 2 9 -13.0778 0.0000
-7 2 10 6.9021 0.0000
-7 2 11 -7.0575 0.0000
-7 2 12 3.6673 0.0000
-7 2 13 0.8104 0.0000
-7 2 14 -5.1128 0.0000
-7 2 15 -1.7071 0.0000
-7 2 16 0.9684 0.0000
-7 2 17 -1.9132 0.0000
-7 2 18 -1.7166 0.0000
-7 2 19 -1.8979 0.0000
-7 2 20 0.3222 0.0000
-7 2 21 -0.5615 0.0000
-7 2 22 -0.4308 0.0000
-7 3 1 -22.6562 0.0000
-7 3 2 -0.8671 0.0000
-7 3 3 1.4952 0.0000
-7 3 4 3.9717 0.0000
-7 3 5 -13.0628 0.0000
-7 3 6 -12.6975 0.0000
-7 3 7 5.5802 0.0000
-7 3 8 -6.7673 0.0000
-7 3 9 -14.4790 0.0000
-7 3 10 -1.0974 0.0000
-7 3 11 -2.8438 0.0000
-7 3 12 5.5015 0.0000
-7 3 13 -1.1968 0.0000
-7 3 14 -2.0670 0.0000
-7 3 15 4.6028 0.0000
-7 3 16 -1.2421 0.0000
-7 3 17 -0.0564 0.0000
-7 3 18 -0.4179 0.0000
-7 3 19 2.2099 0.0000
-7 3 20 1.8070 0.0000
-7 3 21 -0.7979 0.0000
-7 3 22 0.7512 0.0000
-7 4 1 -13.6850 0.0000
-7 4 2 9.4538 0.0000
-7 4 3 1.8301 0.0000
-7 4 4 -1.9010 0.0000
-7 4 5 -10.0504 0.0000
-7 4 6 12.2883 0.0000
-7 4 7 14.8322 0.0000
-7 4 8 -11.9816 0.0000
-7 4 9 6.6046 0.0000
-7 4 10 1.4464 0.0000
-7 4 11 1.7009 0.0000
-7 4 12 -4.6566 0.0000
-7 4 13 -1.3819 0.0000
-7 4 14 -0.9905 0.0000
-7 4 15 3.6783 0.0000
-7 4 16 -2.7053 0.0000
-7 4 17 1.5546 0.0000
-7 4 18 -1.4483 0.0000
-7 4 19 0.1148 0.0000
-7 4 20 -0.4778 0.0000
-7 4 21 -0.5899 0.0000
-7 5 1 7.6900 0.0000
-7 5 2 -12.2509 0.0000
-7 5 3 -6.6367 0.0000
-7 5 4 -22.1656 0.0000
-7 5 5 1.1591 0.0000
-7 5 6 -1.9266 0.0000
-7 5 7 -7.5192 0.0000
-7 5 8 -10.1876 0.0000
-7 5 9 10.3841 0.0000
-7 5 10 -0.8479 0.0000
-7 5 11 2.5924 0.0000
-7 5 12 -4.8962 0.0000
-7 5 13 5.4119 0.0000
-7 5 14 -0.3283 0.0000
-7 5 15 -0.9739 0.0000
-7 5 16 -0.0877 0.0000
-7 5 17 1.7237 0.0000
-7 5 18 0.2583 0.0000
-7 5 19 0.6339 0.0000
-7 5 20 -0.2059 0.0000
-7 5 21 0.6506 0.0000
-7 6 1 35.3903 0.0000
-7 6 2 -12.0216 0.0000
-7 6 3 22.3735 0.0000
-7 6 4 1.0775 0.0000
-7 6 5 28.5628 0.0000
-7 6 6 -7.0285 0.0000
-7 6 7 0.0087 0.0000
-7 6 8 8.4679 0.0000
-7 6 9 1.3675 0.0000
-7 6 10 -1.5488 0.0000
-7 6 11 -1.3085 0.0000
-7 6 12 0.1934 0.0000
-7 6 13 3.2582 0.0000
-7 6 14 -2.6072 0.0000
-7 6 15 -2.3021 0.0000
-7 6 16 1.7712 0.0000
-7 6 17 -0.4774 0.0000
-7 6 18 0.7251 0.0000
-7 6 19 1.2428 0.0000
-7 6 20 0.0048 0.0000
-7 6 21 1.1477 0.0000
-7 7 1 11.8330 0.0000
-7 7 2 -13.9833 0.0000
-7 7 3 16.9165 0.0000
-7 7 4 2.5956 0.0000
-7 7 5 7.1486 0.0000
-7 7 6 -9.5215 0.0000
-7 7 7 8.0086 0.0000
-7 7 8 8.4475 0.0000
-7 7 9 -6.0060 0.0000
-7 7 10 0.4739 0.0000
-7 7 11 2.4554 0.0000
-7 7 12 2.1605 0.0000
-7 7 13 -1.1187 0.0000
-7 7 14 -1.3464 0.0000
-7 7 15 -0.0906 0.0000
-7 7 16 1.9114 0.0000
-7 7 17 -3.1957 0.0000
-7 7 18 0.3173 0.0000
-7 7 19 -1.0152 0.0000
-7 7 20 -1.3729 0.0000
-7 8 1 -12.1507 0.0000
-7 8 2 -7.3188 0.0000
-7 8 3 -5.9725 0.0000
-7 8 4 -5.3581 0.0000
-7 8 5 -18.5768 0.0000
-7 8 6 5.2395 0.0000
-7 8 7 -1.9595 0.0000
-7 8 8 -0.9226 0.0000
-7 8 9 -9.0463 0.0000
-7 8 10 0.4344 0.0000
-7 8 11 0.2648 0.0000
-7 8 12 -2.0530 0.0000
-7 8 13 -2.8825 0.0000
-7 8 14 1.8227 0.0000
-7 8 15 -0.2725 0.0000
-7 8 16 0.0212 0.0000
-7 8 17 -2.1813 0.0000
-7 8 18 1.0853 0.0000
-7 8 19 0.0708 0.0000
-7 9 1 -1.6037 0.0000
-7 9 2 6.2211 0.0000
-7 9 3 -8.5457 0.0000
-7 9 4 -1.8550 0.0000
-7 9 5 -13.9930 0.0000
-7 9 6 11.5334 0.0000
-7 9 7 -13.7091 0.0000
-7 9 8 -0.4076 0.0000
-7 9 9 0.6733 0.0000
-7 9 10 3.8342 0.0000
-7 9 11 -0.1893 0.0000
-7 9 12 -0.3392 0.0000
-7 9 13 1.7688 0.0000
-7 9 14 3.6365 0.0000
-7 9 15 -0.2804 0.0000
-7 9 16 0.6400 0.0000
-7 9 17 0.2335 0.0000
-7 9 18 1.7685 0.0000
-7 9 19 -0.0742 0.0000
-7 10 1 8.6123 0.0000
-7 10 2 10.2826 0.0000
-7 10 3 -0.9389 0.0000
-7 10 4 10.7675 0.0000
-7 10 5 4.8461 0.0000
-7 10 6 7.0573 0.0000
-7 10 7 -4.1437 0.0000
-7 10 8 2.1483 0.0000
-7 10 9 7.3844 0.0000
-7 10 10 -2.3099 0.0000
-7 10 11 -0.6700 0.0000
-7 10 12 -0.0507 0.0000
-7 10 13 0.9954 0.0000
-7 10 14 -1.4131 0.0000
-7 10 15 -1.2535 0.0000
-7 10 16 0.1464 0.0000
-7 10 17 0.5885 0.0000
-7 10 18 -0.2044 0.0000
-7 11 1 -2.5834 0.0000
-7 11 2 -1.1386 0.0000
-7 11 3 -1.6297 0.0000
-7 11 4 8.5315 0.0000
-7 11 5 2.9648 0.0000
-7 11 6 -1.8181 0.0000
-7 11 7 5.9769 0.0000
-7 11 8 0.4457 0.0000
-7 11 9 3.2167 0.0000
-7 11 10 -5.7364 0.0000
-7 11 11 1.2911 0.0000
-7 11 12 0.5344 0.0000
-7 11 13 0.1861 0.0000
-7 11 14 -1.9173 0.0000
-7 11 15 0.9933 0.0000
-7 11 16 0.5799 0.0000
-7 11 17 0.4244 0.0000
-7 12 1 -6.3600 0.0000
-7 12 2 -4.5826 0.0000
-7 12 3 -1.1900 0.0000
-7 12 4 -2.8218 0.0000
-7 12 5 -4.3827 0.0000
-7 12 6 -5.8280 0.0000
-7 12 7 3.8086 0.0000
-7 12 8 -4.9727 0.0000
-7 12 9 -1.9155 0.0000
-7 12 10 -1.4521 0.0000
-7 12 11 2.3599 0.0000
-7 12 12 -0.4226 0.0000
-7 12 13 -0.8416 0.0000
-7 12 14 -0.3747 0.0000
-7 12 15 -0.0365 0.0000
-7 12 16 -0.3364 0.0000
-7 13 1 1.0811 0.0000
-7 13 2 2.8947 0.0000
-7 13 3 3.0609 0.0000
-7 13 4 -4.3753 0.0000
-7 13 5 1.7893 0.0000
-7 13 6 0.4750 0.0000
-7 13 7 1.1281 0.0000
-7 13 8 -3.1120 0.0000
-7 13 9 -1.4419 0.0000
-7 13 10 2.7062 0.0000
-7 13 11 -1.1746 0.0000
-7 13 12 -0.7233 0.0000
-7 13 13 -0.6941 0.0000
-7 13 14 0.9383 0.0000
-7 13 15 -0.2233 0.0000
-7 14 1 2.5252 0.0000
-7 14 2 0.9824 0.0000
-7 14 3 -0.4881 0.0000
-7 14 4 -2.2265 0.0000
-7 14 5 3.4358 0.0000
-7 14 6 0.8947 0.0000
-7 14 7 -1.2120 0.0000
-7 14 8 1.5800 0.0000
-7 14 9 1.8779 0.0000
-7 14 10 2.0067 0.0000
-7 14 11 -1.7145 0.0000
-7 14 12 -0.0238 0.0000
-7 14 13 0.4970 0.0000
-7 14 14 0.5461 0.0000
-7 15 1 -0.0624 0.0000
-7 15 2 -2.7076 0.0000
-7 15 3 -0.9285 0.0000
-7 15 4 1.0266 0.0000
-7 15 5 0.1353 0.0000
-7 15 6 -1.2016 0.0000
-7 15 7 -1.2457 0.0000
-7 15 8 3.4476 0.0000
-7 15 9 -0.3043 0.0000
-7 15 10 0.5023 0.0000
-7 15 11 -0.2666 0.0000
-7 15 12 0.7165 0.0000
-7 15 13 0.1044 0.0000
-7 16 1 -0.7196 0.0000
-7 16 2 -1.1458 0.0000
-7 16 3 1.5053 0.0000
-7 16 4 1.0666 0.0000
-7 16 5 -2.1878 0.0000
-7 16 6 0.3542 0.0000
-7 16 7 -0.3276 0.0000
-7 16 8 1.2211 0.0000
-7 16 9 -3.4760 0.0000
-7 16 10 -0.0029 0.0000
-7 16 11 1.0872 0.0000
-7 16 12 0.0727 0.0000
-7 17 1 -0.5295 0.0000
-7 17 2 0.0451 0.0000
-7 17 3 1.0246 0.0000
-7 17 4 -2.3359 0.0000
-7 17 5 -0.2993 0.0000
-7 17 6 0.8308 0.0000
-7 17 7 0.3263 0.0000
-7 17 8 -1.3417 0.0000
-7 17 9 -1.0161 0.0000
-7 17 10 0.3701 0.0000
-7 18 1 0.6775 0.0000
-7 18 2 1.0564 0.0000
-7 18 3 -0.7840 0.0000
-7 18 4 -1.1652 0.0000
-7 18 5 1.0241 0.0000
-7 18 6 -0.0406 0.0000
-7 18 7 -0.3624 0.0000
-7 18 8 -0.7488 0.0000
-7 18 9 1.6744 0.0000
-7 19 1 0.5350 0.0000
-7 19 2 0.0436 0.0000
-7 19 3 -0.1490 0.0000
-7 19 4 1.5472 0.0000
-7 19 5 0.5353 0.0000
-7 19 6 -1.4539 0.0000
-7 19 7 -0.3114 0.0000
-7 20 1 -0.8330 0.0000
-7 20 2 -0.3501 0.0000
-7 20 3 -0.6372 0.0000
-7 20 4 0.9849 0.0000
-7 20 5 -0.9273 0.0000
-7 21 1 0.1258 0.0000
-7 21 2 0.3044 0.0000
-6 -16 5 0.9704 0.0000
-6 -16 6 0.1709 0.0000
-6 -16 7 -0.3539 0.0000
-6 -16 8 -0.7567 0.0000
-6 -16 9 0.1214 0.0000
-6 -16 10 -0.8421 0.0000
-6 -16 11 -0.7065 0.0000
-6 -16 12 -0.0359 0.0000
-6 -15 1 0.7727 0.0000
-6 -15 2 -0.2560 0.0000
-6 -15 3 -1.2139 0.0000
-6 -15 4 1.6129 0.0000
-6 -15 5 0.8431 0.0000
-6 -15 6 -1.0033 0.0000
-6 -15 7 -0.1792 0.0000
-6 -15 8 0.8354 0.0000
-6 -15 9 0.5509 0.0000
-6 -15 10 -0.8152 0.0000
-6 -15 11 -0.0307 0.0000
-6 -15 12 0.4757 0.0000
-6 -15 13 -0.7164 0.0000
-6 -15 14 0.2153 0.0000
-6 -15 15 0.6175 0.0000
-6 -14 1 -0.0816 0.0000
-6 -14 2 -1.3555 0.0000
-6 -14 3 0.7039 0.0000
-6 -14 4 1.3334 0.0000
-6 -14 5 -1.2004 0.0000
-6 -14 6 -0.6057 0.0000
-6 -14 7 0.2039 0.0000
-6 -14 8 0.8271 0.0000
-6 -14 9 -1.0657 0.0000
-6 -14 10 -0.1163 0.0000
-6 -14 11 1.0264 0.0000
-6 -14 12 -0.2836 0.0000
-6 -14 13 -0.7668 0.0000
-6 -14 14 -1.7395 0.0000
-6 -14 15 1.6175 0.0000
-6 -14 16 -1.0346 0.0000
-6 -14 17 0.1745 0.0000
-6 -13 1 -1.3359 0.0000
-6 -13 2 -0.7617 0.0000
-6 -13 3 0.0869 0.0000
-6 -13 4 -2.1293 0.0000
-6 -13 5 -1.0343 0.0000
-6 -13 6 -0.4119 0.0000
-6 -13 7 1.3976 0.0000
-6 -13 8 -0.8912 0.0000
-6 -13 9 -1.2412 0.0000
-6 -13 10 1.7123 0.0000
-6 -13 11 0.2117 0.0000
-6 -13 12 -0.8309 0.0000
-6 -13 13 0.4265 0.0000
-6 -13 14 0.0477 0.0000
-6 -13 15 1.1065 0.0000
-6 -13 16 -1.4473 0.0000
-6 -13 17 -0.2687 0.0000
-6 -13 18 -0.2055 0.0000
-6 -13 19 -0.1553 0.0000
-6 -12 1 1.2636 0.0000
-6 -12 2 0.9718 0.0000
-6 -12 3 -0.1732 0.0000
-6 -12 4 0.5854 0.0000
-6 -12 5 1.6093 0.0000
-6 -12 6 2.2208 0.0000
-6 -12 7 0.5153 0.0000
-6 -12 8 -0.5913 0.0000
-6 -12 9 0.4045 0.0000
-6 -12 10 2.4720 0.0000
-6 -12 11 -0.3187 0.0000
-6 -12 12 -0.2135 0.0000
-6 -12 13 0.6777 0.0000
-6 -12 14 -0.5263 0.0000
-6 -12 15 -1.4473 0.0000
-6 -12 16 1.4820 0.0000
-6 -12 17 -0.4149 0.0000
-6 -12 18 1.5980 0.0000
-6 -12 19 -1.7314 0.0000
-6 -12 20 0.4575 0.0000
-6 -11 1 0.6753 0.0000
-6 -11 2 0.1385 0.0000
-6 -11 3 -0.9999 0.0000
-6 -11 4 2.5082 0.0000
-6 -11 5 -1.5004 0.0000
-6 -11 6 0.7050 0.0000
-6 -11 7 -2.2604 0.0000
-6 -11 8 0.8729 0.0000
-6 -11 9 -0.2280 0.0000
-6 -11 10 -2.6301 0.0000
-6 -11 11 -1.5341 0.0000
-6 -11 12 -0.2607 0.0000
-6 -11 13 1.8970 0.0000
-6 -11 14 -1.5406 0.0000
-6 -11 15 0.9140 0.0000
-6 -11 16 0.4113 0.0000
-6 -11 17 -0.0289 0.0000
-6 -11 18 0.5529 0.0000
-6 -11 19 0.2358 0.0000
-6 -11 20 1.7338 0.0000
-6 -10 1 -0.0894 0.0000
-6 -10 2 -1.7487 0.0000
-6 -10 3 2.4164 0.0000
-6 -10 4 0.7887 0.0000
-6 -10 5 -2.9533 0.0000
-6 -10 6 -0.9086 0.0000
-6 -10 7 -1.6551 0.0000
-6 -10 8 3.1754 0.0000
-6 -10 9 -0.5865 0.0000
-6 -10 10 -1.5573 0.0000
-6 -10 11 0.2083 0.0000
-6 -10 12 0.6008 0.0000
-6 -10 13 -0.0663 0.0000
-6 -10 14 1.3205 0.0000
-6 -10 15 1.2853 0.0000
-6 -10 16 0.3791 0.0000
-6 -10 17 -0.9315 0.0000
-6 -10 18 -0.8069 0.0000
-6 -10 19 1.6801 0.0000
-6 -10 20 -0.1938 0.0000
-6 -10 21 -0.5513 0.0000
-6 -9 1 -1.4318 0.0000
-6 -9 2 -0.2628 0.0000
-6 -9 3 0.5929 0.0000
-6 -9 4 -2.1014 0.0000
-6 -9 5 -1.9026 0.0000
-6 -9 6 3.5240 0.0000
-6 -9 7 0.7865 0.0000
-6 -9 8 0.3138 0.0000
-6 -9 9 0.3939 0.0000
-6 -9 10 0.3556 0.0000
-6 -9 11 4.8525 0.0000
-6 -9 12 -1.1844 0.0000
-6 -9 13 0.0722 0.0000
-6 -9 14 0.3438 0.0000
-6 -9 15 -1.9669 0.0000
-6 -9 16 -0.7698 0.0000
-6 -9 17 -0.0226 0.0000
-6 -9 18 -0.3082 0.0000
-6 -9 19 0.2667 0.0000
-6 -9 20 -2.4189 0.0000
-6 -9 21 -1.0283 0.0000
-6 -9 22 0.7037 0.0000
-6 -8 1 -0.1123 0.0000
-6 -8 2 2.6575 0.0000
-6 -8 3 -3.2457 0.0000
-6 -8 4 -3.0670 0.0000
-6 -8 5 2.0854 0.0000
-6 -8 6 3.4279 0.0000
-6 -8 7 -1.9652 0.0000
-6 -8 8 -4.3288 0.0000
-6 -8 9 1.7785 0.0000
-6 -8 10 -2.2579 0.0000
-6 -8 11 1.3048 0.0000
-6 -8 12 -5.1079 0.0000
-6 -8 13 1.2897 0.0000
-6 -8 14 0.4043 0.0000
-6 -8 15 -1.7542 0.0000
-6 -8 16 1.0300 0.0000
-6 -8 17 1.9048 0.0000
-6 -8 18 0.6790 0.0000
-6 -8 19 -0.7851 0.0000
-6 -8 20 -0.7183 0.0000
-6 -8 21 0.8942 0.0000
-6 -8 22 1.0461 0.0000
-6 -7 1 5.6974 0.0000
-6 -7 2 0.4042 0.0000
-6 -7 3 -4.4440 0.0000
-6 -7 4 2.6653 0.0000
-6 -7 5 3.2990 0.0000
-6 -7 6 -3.2388 0.0000
-6 -7 7 -1.2862 0.0000
-6 -7 8 -2.0175 0.0000
-6 -7 9 5.7293 0.0000
-6 -7 10 -1.4430 0.0000
-6 -7 11 -1.6878 0.0000
-6 -7 12 -0.1355 0.0000
-6 -7 13 1.3578 0.0000
-6 -7 14 -1.8282 0.0000
-6 -7 15 -1.7838 0.0000
-6 -7 16 -1.3112 0.0000
-6 -7 17 -1.5709 0.0000
-6 -7 18 -1.8193 0.0000
-6 -7 19 -1.4663 0.0000
-6 -7 20 1.5389 0.0000
-6 -7 21 0.6486 0.0000
-6 -7 22 -0.3247 0.0000
-6 -6 1 1.1494 0.0000
-6 -6 2 -6.0096 0.0000
-6 -6 3 0.7227 0.0000
-6 -6 4 8.9496 0.0000
-6 -6 5 -3.0970 0.0000
-6 -6 6 -7.8372 0.0000
-6 -6 7 6.0094 0.0000
-6 -6 8 -2.3058 0.0000
-6 -6 9 2.8268 0.0000
-6 -6 10 -0.1821 0.0000
-6 -6 11 -2.5113 0.0000
-6 -6 12 9.2273 0.0000
-6 -6 13 -1.7379 0.0000
-6 -6 14 0.3443 0.0000
-6 -6 15 4.2866 0.0000
-6 -6 16 0.4179 0.0000
-6 -6 17 0.5603 0.0000
-6 -6 18 1.0541 0.0000
-6 -6 19 -0.6539 0.0000
-6 -6 20 2.2330 0.0000
-6 -6 21 -2.1061 0.0000
-6 -6 22 -0.7692 0.0000
-6 -6 23 -0.3512 0.0000
-6 -5 1 -8.4015 0.0000
-6 -5 2 -0.2946 0.0000
-6 -5 3 2.2655 0.0000
-6 -5 4 2.4605 0.0000
-6 -5 5 -9.2745 0.0000
-6 -5 6 -0.0311 0.0000
-6 -5 7 12.2895 0.0000
-6 -5 8 -6.2404 0.0000
-6 -5 9 -0.5699 0.0000
-6 -5 10 0.2451 0.0000
-6 -5 11 -1.9736 0.0000
-6 -5 12 4.8942 0.0000
-6 -5 13 -7.7883 0.0000
-6 -5 14 3.1294 0.0000
-6 -5 15 3.2541 0.0000
-6 -5 16 -1.5648 0.0000
-6 -5 17 2.3277 0.0000
-6 -5 18 0.2541 0.0000
-6 -5 19 0.2859 0.0000
-6 -5 20 0.9397 0.0000
-6 -5 21 -0.8687 0.0000
-6 -5 22 0.3652 0.0000
-6 -5 23 1.0358 0.0000
-6 -4 1 -5.3786 0.0000
-6 -4 2 19.4431 0.0000
-6 -4 3 -0.9514 0.0000
-6 -4 4 -6.5486 0.0000
-6 -4 5 4.1811 0.0000
-6 -4 6 2.3617 0.0000
-6 -4 7 2.9921 0.0000
-6 -4 8 -8.1682 0.0000
-6 -4 9 -2.8602 0.0000
-6 -4 10 4.1377 0.0000
-6 -4 11 -3.5831 0.0000
-6 -4 12 -5.9339 0.0000
-6 -4 13 -4.0641 0.0000
-6 -4 14 1.9974 0.0000
-6 -4 15 -3.5903 0.0000
-6 -4 16 -1.8577 0.0000
-6 -4 17 0.6018 0.0000
-6 -4 18 -1.1241 0.0000
-6 -4 19 0.0980 0.0000
-6 -4 20 0.0612 0.0000
-6 -4 21 -0.1239 0.0000
-6 -4 22 0.3131 0.0000
-6 -4 23 0.5602 0.0000
-6 -3 1 -5.6073 0.0000
-6 -3 2 13.9941 0.0000
-6 -3 3 -12.1971 0.0000
-6 -3 4 -5.3751 0.0000
-6 -3 5 24.4380 0.0000
-6 -3 7 -0.6633 0.0000
-6 -3 8 8.8278 0.0000
-6 -3 9 -2.1446 0.0000
-6 -3 10 13.8781 0.0000
-6 -3 11 -2.4357 0.0000
-6 -3 12 0.0925 0.0000
-6 -3 13 11.2160 0.0000
-6 -3 14 -3.8473 0.0000
-6 -3 15 -1.6597 0.0000
-6 -3 16 -0.6212 0.0000
-6 -3 17 -1.1222 0.0000
-6 -3 18 -0.4120 0.0000
-6 -3 19 -0.5904 0.0000
-6 -3 20 0.6216 0.0000
-6 -3 21 0.3904 0.0000
-6 -3 22 0.8742 0.0000
-6 -3 23 -0.3157 0.0000
-6 -2 1 -10.3520 0.0000
-6 -2 2 -13.4611 0.0000
-6 -2 3 -4.2185 0.0000
-6 -2 4 -11.3170 0.0000
-6 -2 5 17.2526 0.0000
-6 -2 6 -39.6813 0.0000
-6 -2 7 3.2710 0.0000
-6 -2 8 1.0238 0.0000
-6 -2 9 -12.5414 0.0000
-6 -2 10 1.4588 0.0000
-6 -2 11 -8.3561 0.0000
-6 -2 12 3.4284 0.0000
-6 -2 13 6.2538 0.0000
-6 -2 14 -8.3676 0.0000
-6 -2 15 6.0424 0.0000
-6 -2 16 2.1054 0.0000
-6 -2 17 2.1912 0.0000
-6 -2 18 0.6253 0.0000
-6 -2 19 -0.9196 0.0000
-6 -2 20 -0.3801 0.0000
-6 -2 21 0.7013 0.0000
-6 -2 22 -0.4034 0.0000
-6 -2 23 0.5360 0.0000
-6 -1 1 -7.9909 0.0000
-6 -1 2 -15.3278 0.0000
-6 -1 3 21.5309 0.0000
-6 -1 4 -7.8826 0.0000
-6 -1 5 5.7496 0.0000
-6 -1 6 -12.2301 0.0000
-6 -1 7 21.5629 0.0000
-6 -1 8 2.2439 0.0000
-6 -1 9 -6.3559 0.0000
-6 -1 10 -2.2050 0.0000
-6 -1 11 -1.9188 0.0000
-6 -1 12 2.6321 0.0000
-6 -1 13 -5.3145 0.0000
-6 -1 14 -1.6980 0.0000
-6 -1 15 2.7015 0.0000
-6 -1 16 -2.0284 0.0000
-6 -1 17 -1.0806 0.0000
-6 -1 18 0.5301 0.0000
-6 -1 19 0.7442 0.0000
-6 -1 20 1.4568 0.0000
-6 -1 21 -0.1473 0.0000
-6 -1 22 -1.5290 0.0000
-6 -1 23 0.3425 0.0000
-6 0 1 18.9051 0.0000
-6 0 2 6.8695 0.0000
-6 0 3 37.4200 0.0000
-6 0 4 -11.3496 0.0000
-6 0 5 -1.3829 0.0000
-6 0 6 26.0572 0.0000
-6 0 7 -1.7987 0.0000
-6 0 8 2.7790 0.0000
-6 0 9 5.2250 0.0000
-6 0 10 3.3328 0.0000
-6 0 11 8.6957 0.0000
-6 0 12 -2.0749 0.0000
-6 0 13 -3.6194 0.0000
-6 0 14 9.4421 0.0000
-6 0 15 -1.2863 0.0000
-6 0 16 -0.3372 0.0000
-6 0 17 -1.5152 0.0000
-6 0 18 0.5761 0.0000
-6 0 19 0.7587 0.0000
-6 0 20 -1.0318 0.0000
-6 0 21 -0.4954 0.0000
-6 0 22 -0.6147 0.0000
-6 0 23 0.0370 0.0000
-6 1 1 8.4524 0.0000
-6 1 2 -14.6630 0.0000
-6 1 3 2.8198 0.0000
-6 1 4 -15.9338 0.0000
-6 1 5 -2.6166 0.0000
-6 1 6 32.4489 0.0000
-6 1 7 -39.4951 0.0000
-6 1 8 13.4874 0.0000
-6 1 9 -2.6211 0.0000
-6 1 10 5.1724 0.0000
-6 1 11 2.4290 0.0000
-6 1 12 -3.4920 0.0000
-6 1 13 -0.2856 0.0000
-6 1 14 3.0078 0.0000
-6 1 15 -7.6816 0.0000
-6 1 16 0.2632 0.0000
-6 1 17 -0.2890 0.0000
-6 1 18 0.2711 0.0000
-6 1 19 -1.2171 0.0000
-6 1 20 -2.7488 0.0000
-6 1 21 -0.6048 0.0000
-6 1 22 -0.0221 0.0000
-6 2 1 4.9732 0.0000
-6 2 2 -20.9354 0.0000
-6 2 3 -7.6855 0.0000
-6 2 4 -1.5512 0.0000
-6 2 5 -5.5703 0.0000
-6 2 6 -2.0679 0.0000
-6 2 7 -33.3574 0.0000
-6 2 8 14.7604 0.0000
-6 2 9 -14.1736 0.0000
-6 2 10 -3.1350 0.0000
-6 2 11 -7.3776 0.0000
-6 2 12 -1.8756 0.0000
-6 2 13 3.0733 0.0000
-6 2 14 -2.4586 0.0000
-6 2 15 -0.1849 0.0000
-6 2 16 3.8808 0.0000
-6 2 17 1.4409 0.0000
-6 2 18 0.1024 0.0000
-6 2 19 0.3798 0.0000
-6 2 20 1.7937 0.0000
-6 2 21 1.1926 0.0000
-6 2 22 0.8308 0.0000
-6 3 1 -15.9344 0.0000
-6 3 2 -8.5968 0.0000
-6 3 3 1.5638 0.0000
-6 3 4 12.5750 0.0000
-6 3 5 -5.5216 0.0000
-6 3 6 -7.6844 0.0000
-6 3 7 16.2667 0.0000
-6 3 8 10.9747 0.0000
-6 3 9 -4.4098 0.0000
-6 3 10 1.7085 0.0000
-6 3 11 -1.3665 0.0000
-6 3 12 1.0605 0.0000
-6 3 13 0.9590 0.0000
-6 3 14 -4.7523 0.0000
-6 3 15 4.8249 0.0000
-6 3 16 -0.5609 0.0000
-6 3 17 -0.2487 0.0000
-6 3 18 -2.8547 0.0000
-6 3 19 -0.4671 0.0000
-6 3 20 0.7763 0.0000
-6 3 21 -0.3612 0.0000
-6 3 22 0.6055 0.0000
-6 4 1 -17.2971 0.0000
-6 4 2 11.0406 0.0000
-6 4 3 2.1424 0.0000
-6 4 4 -2.5140 0.0000
-6 4 5 -13.0815 0.0000
-6 4 6 -5.2038 0.0000
-6 4 7 19.4827 0.0000
-6 4 8 -15.6561 0.0000
-6 4 9 4.1819 0.0000
-6 4 10 0.8762 0.0000
-6 4 11 9.1384 0.0000
-6 4 12 -1.0950 0.0000
-6 4 13 3.5971 0.0000
-6 4 14 -1.0859 0.0000
-6 4 15 3.1876 0.0000
-6 4 16 -2.8091 0.0000
-6 4 17 1.7061 0.0000
-6 4 18 1.1058 0.0000
-6 4 19 0.5934 0.0000
-6 4 20 0.4160 0.0000
-6 4 21 -0.1939 0.0000
-6 5 1 31.2735 0.0000
-6 5 2 16.2751 0.0000
-6 5 3 16.8351 0.0000
-6 5 4 -0.1415 0.0000
-6 5 5 18.3871 0.0000
-6 5 6 13.4780 0.0000
-6 5 7 5.0732 0.0000
-6 5 8 -9.5150 0.0000
-6 5 9 7.9704 0.0000
-6 5 10 -0.9211 0.0000
-6 5 11 2.5849 0.0000
-6 5 12 -6.8626 0.0000
-6 5 13 1.3869 0.0000
-6 5 14 -0.1172 0.0000
-6 5 15 -2.5123 0.0000
-6 5 16 -1.7223 0.0000
-6 5 17 1.0619 0.0000
-6 5 18 -0.6737 0.0000
-6 5 19 0.9481 0.0000
-6 5 20 -0.0800 0.0000
-6 5 21 1.6396 0.0000
-6 6 1 32.3626 0.0000
-6 6 2 -26.5239 0.0000
-6 6 3 0.8158 0.0000
-6 6 4 -15.3257 0.0000
-6 6 5 14.5824 0.0000
-6 6 6 -8.4864 0.0000
-6 6 7 -12.4034 0.0000
-6 6 8 3.1426 0.0000
-6 6 9 1.0861 0.0000
-6 6 10 -2.6257 0.0000
-6 6 11 -1.9677 0.0000
-6 6 12 -1.7229 0.0000
-6 6 13 2.0529 0.0000
-6 6 14 -0.1129 0.0000
-6 6 15 -3.0531 0.0000
-6 6 16 1.5090 0.0000
-6 6 17 -1.4997 0.0000
-6 6 18 -1.8079 0.0000
-6 6 19 0.0499 0.0000
-6 6 20 -1.1809 0.0000
-6 7 1 -1.1927 0.0000
-6 7 2 -30.6736 0.0000
-6 7 3 -2.5406 0.0000
-6 7 4 -4.7788 0.0000
-6 7 5 -4.5034 0.0000
-6 7 6 -11.9519 0.0000
-6 7 7 -4.7175 0.0000
-6 7 8 8.4057 0.0000
-6 7 9 -5.8131 0.0000
-6 7 10 -3.7571 0.0000
-6 7 11 -0.6469 0.0000
-6 7 12 2.9305 0.0000
-6 7 13 -1.0054 0.0000
-6 7 14 0.4778 0.0000
-6 7 15 -1.1156 0.0000
-6 7 16 2.9840 0.0000
-6 7 17 -1.6088 0.0000
-6 7 18 0.8014 0.0000
-6 7 19 0.7972 0.0000
-6 7 20 -0.5420 0.0000
-6 8 1 -8.8597 0.0000
-6 8 2 8.5786 0.0000
-6 8 3 3.8164 0.0000
-6 8 4 11.4896 0.0000
-6 8 5 -17.8069 0.0000
-6 8 6 8.7121 0.0000
-6 8 7 0.2054 0.0000
-6 8 8 4.7928 0.0000
-6 8 9 -3.4921 0.0000
-6 8 10 2.9090 0.0000
-6 8 11 3.4936 0.0000
-6 8 12 2.4341 0.0000
-6 8 13 -2.3413 0.0000
-6 8 14 2.9901 0.0000
-6 8 15 1.3379 0.0000
-6 8 16 1.7057 0.0000
-6 8 17 -0.2550 0.0000
-6 8 18 0.8660 0.0000
-6 8 19 1.0318 0.0000
-6 9 1 1.9338 0.0000
-6 9 2 22.5015 0.0000
-6 9 3 1.1669 0.0000
-6 9 4 13.2362 0.0000
-6 9 5 -4.8023 0.0000
-6 9 6 20.3147 0.0000
-6 9 7 -1.5044 0.0000
-6 9 8 -2.5655 0.0000
-6 9 9 1.3004 0.0000
-6 9 10 2.1829 0.0000
-6 9 11 -1.0089 0.0000
-6 9 12 -1.9152 0.0000
-6 9 13 -1.7680 0.0000
-6 9 14 1.9676 0.0000
-6 9 15 -1.2119 0.0000
-6 9 16 -0.8350 0.0000
-6 9 17 -0.9669 0.0000
-6 9 18 0.1479 0.0000
-6 10 1 -2.7623 0.0000
-6 10 2 1.7856 0.0000
-6 10 3 -13.7377 0.0000
-6 10 4 1.1627 0.0000
-6 10 5 0.7481 0.0000
-6 10 6 1.2155 0.0000
-6 10 7 -2.6806 0.0000
-6 10 8 -4.1277 0.0000
-6 10 9 6.3631 0.0000
-6 10 10 -2.1614 0.0000
-6 10 11 -2.9558 0.0000
-6 10 12 -0.8866 0.0000
-6 10 13 1.4200 0.0000
-6 10 14 -1.0449 0.0000
-6 10 15 -1.0700 0.0000
-6 10 16 -0.5338 0.0000
-6 10 17 0.7920 0.0000
-6 10 18 -0.0469 0.0000
-6 11 1 -0.9816 0.0000
-6 11 2 -5.0451 0.0000
-6 11 3 -7.4192 0.0000
-6 11 4 -0.1069 0.0000
-6 11 5 0.3311 0.0000
-6 11 6 -12.1172 0.0000
-6 11 7 1.9064 0.0000
-6 11 8 -2.0916 0.0000
-6 11 9 3.4900 0.0000
-6 11 10 -3.6171 0.0000
-6 11 11 0.4746 0.0000
-6 11 12 1.9149 0.0000
-6 11 13 1.4339 0.0000
-6 11 14 -1.8187 0.0000
-6 11 15 0.2082 0.0000
-6 11 16 0.4788 0.0000
-6 11 17 0.3600 0.0000
-6 12 1 -0.6877 0.0000
-6 12 2 -1.0826 0.0000
-6 12 3 5.3361 0.0000
-6 12 4 0.1687 0.0000
-6 12 5 1.8269 0.0000
-6 12 6 -4.1862 0.0000
-6 12 7 7.0688 0.0000
-6 12 8 -0.5244 0.0000
-6 12 9 -2.8684 0.0000
-6 12 10 -0.7053 0.0000
-6 12 11 1.1338 0.0000
-6 12 12 0.9087 0.0000
-6 12 13 -1.4352 0.0000
-6 12 14 0.0937 0.0000
-6 12 15 0.4711 0.0000
-6 12 16 1.0720 0.0000
-6 13 1 -2.1446 0.0000
-6 13 2 1.0164 0.0000
-6 13 3 4.5538 0.0000
-6 13 4 -4.3525 0.0000
-6 13 5 0.8054 0.0000
-6 13 6 2.5019 0.0000
-6 13 7 1.8578 0.0000
-6 13 8 -0.3870 0.0000
-6 13 9 -2.6052 0.0000
-6 13 10 3.8912 0.0000
-6 13 11 0.3546 0.0000
-6 13 12 -0.4529 0.0000
-6 13 13 -1.0213 0.0000
-6 13 14 1.3159 0.0000
-6 13 15 -0.3591 0.0000
-6 14 1 0.9064 0.0000
-6 14 2 -0.1119 0.0000
-6 14 3 -0.2983 0.0000
-6 14 4 -3.0392 0.0000
-6 14 5 2.2220 0.0000
-6 14 6 1.4939 0.0000
-6 14 7 -3.0721 0.0000
-6 14 8 0.3575 0.0000
-6 14 9 0.3637 0.0000
-6 14 10 2.3131 0.0000
-6 14 11 -1.0324 0.0000
-6 14 12 -0.5884 0.0000
-6 14 13 -0.0192 0.0000
-6 14 14 0.3117 0.0000
-6 15 1 2.9300 0.0000
-6 15 2 -1.7403 0.0000
-6 15 3 -1.2511 0.0000
-6 15 4 1.6576 0.0000
-6 15 5 -0.3264 0.0000
-6 15 6 -0.7813 0.0000
-6 15 7 -3.7099 0.0000
-6 15 8 2.7233 0.0000
-6 15 9 -1.2099 0.0000
-6 15 10 -0.7332 0.0000
-6 15 11 -0.7183 0.0000
-6 15 12 0.4998 0.0000
-6 15 13 0.7865 0.0000
-6 16 1 0.0820 0.0000
-6 16 2 -2.1201 0.0000
-6 16 3 1.5518 0.0000
-6 16 4 1.3967 0.0000
-6 16 5 -2.3712 0.0000
-6 16 6 -0.1481 0.0000
-6 16 7 0.1455 0.0000
-6 16 8 1.8621 0.0000
-6 16 9 -1.8107 0.0000
-6 16 10 -1.3028 0.0000
-6 16 11 0.6420 0.0000
-6 17 1 -0.1737 0.0000
-6 17 2 0.8511 0.0000
-6 17 3 1.9832 0.0000
-6 17 4 -1.6193 0.0000
-6 17 5 -1.0496 0.0000
-6 17 6 0.8050 0.0000
-6 17 7 1.2093 0.0000
-6 17 8 -0.5466 0.0000
-6 17 9 0.1020 0.0000
-6 17 10 0.2093 0.0000
-6 18 1 0.8605 0.0000
-6 18 2 1.5061 0.0000
-6 18 3 0.1088 0.0000
-6 18 4 -0.1003 0.0000
-6 18 5 2.6023 0.0000
-6 18 6 0.2459 0.0000
-6 18 7 0.3799 0.0000
-6 18 8 -1.5922 0.0000
-6 19 1 0.3143 0.0000
-6 19 2 -0.6205 0.0000
-6 19 3 -2.4576 0.0000
-6 19 4 0.4508 0.0000
-6 19 5 1.1899 0.0000
-6 19 6 -0.6778 0.0000
-6 20 1 0.0426 0.0000
-6 20 2 1.0380 0.0000
-6 20 3 0.6001 0.0000
-6 20 4 1.4104 0.0000
-6 21 1 -0.3464 0.0000
-5 -17 7 0.4110 0.0000
-5 -17 8 -1.1801 0.0000
-5 -17 9 -0.8129 0.0000
-5 -17 10 -1.0981 0.0000
-5 -16 2 0.2451 0.0000
-5 -16 3 -0.5749 0.0000
-5 -16 4 -0.6242 0.0000
-5 -16 5 1.1310 0.0000
-5 -16 6 0.7242 0.0000
-5 -16 7 0.0597 0.0000
-5 -16 8 -0.0051 0.0000
-5 -16 9 0.9855 0.0000
-5 -16 10 0.7734 0.0000
-5 -16 11 -0.5663 0.0000
-5 -16 12 0.3301 0.0000
-5 -16 13 -0.5376 0.0000
-5 -16 14 0.7736 0.0000
-5 -15 1 0.7075 0.0000
-5 -15 2 0.7012 0.0000
-5 -15 3 -2.2318 0.0000
-5 -15 4 1.2108 0.0000
-5 -15 5 1.0964 0.0000
-5 -15 6 -0.3915 0.0000
-5 -15 7 -1.0449 0.0000
-5 -15 8 0.8676 0.0000
-5 -15 9 0.8857 0.0000
-5 -15 10 0.4786 0.0000
-5 -15 11 -0.3507 0.0000
-5 -15 12 1.2068 0.0000
-5 -15 13 -0.0230 0.0000
-5 -15 14 -1.7736 0.0000
-5 -15 15 -0.4068 0.0000
-5 -15 16 -0.3088 0.0000
-5 -15 17 -0.0351 0.0000
-5 -14 1 0.0514 0.0000
-5 -14 2 -0.5331 0.0000
-5 -14 3 -1.6056 0.0000
-5 -14 4 1.7281 0.0000
-5 -14 5 -1.4924 0.0000
-5 -14 6 -1.4631 0.0000
-5 -14 7 -0.6728 0.0000
-5 -14 8 1.3662 0.0000
-5 -14 9 -1.5255 0.0000
-5 -14 10 -0.6337 0.0000
-5 -14 11 0.6722 0.0000
-5 -14 12 -0.0714 0.0000
-5 -14 13 0.4348 0.0000
-5 -14 14 -2.2050 0.0000
-5 -14 15 2.1187 0.0000
-5 -14 16 -0.2320 0.0000
-5 -14 17 0.3905 0.0000
-5 -14 18 -0.3135 0.0000
-5 -13 1 -0.4986 0.0000
-5 -13 2 -0.6048 0.0000
-5 -13 3 1.4820 0.0000
-5 -13 4 -0.8456 0.0000
-5 -13 5 -0.1971 0.0000
-5 -13 6 0.0490 0.0000
-5 -13 7 1.5064 0.0000
-5 -13 8 1.0105 0.0000
-5 -13 9 -2.9205 0.0000
-5 -13 10 1.0694 0.0000
-5 -13 11 1.2041 0.0000
-5 -13 12 -1.0049 0.0000
-5 -13 13 -0.3501 0.0000
-5 -13 14 0.1334 0.0000
-5 -13 15 -0.0217 0.0000
-5 -13 16 0.2658 0.0000
-5 -13 17 -0.1946 0.0000
-5 -13 18 0.1106 0.0000
-5 -13 19 0.6602 0.0000
-5 -12 1 0.7193 0.0000
-5 -12 2 1.7838 0.0000
-5 -12 3 0.2477 0.0000
-5 -12 4 -0.4703 0.0000
-5 -12 5 -0.1909 0.0000
-5 -12 6 2.0086 0.0000
-5 -12 7 -0.8919 0.0000
-5 -12 8 0.1073 0.0000
-5 -12 9 -2.0381 0.0000
-5 -12 10 0.0787 0.0000
-5 -12 11 -0.5154 0.0000
-5 -12 12 -0.7920 0.0000
-5 -12 13 2.1944 0.0000
-5 -12 14 1.8609 0.0000
-5 -12 15 -1.2687 0.0000
-5 -12 16 2.0442 0.0000
-5 -12 17 -1.6448 0.0000
-5 -12 18 1.7688 0.0000
-5 -12 19 -1.1283 0.0000
-5 -12 20 0.0656 0.0000
-5 -11 1 0.1112 0.0000
-5 -11 2 -0.5362 0.0000
-5 -11 3 -2.5804 0.0000
-5 -11 4 2.0163 0.0000
-5 -11 5 -0.4649 0.0000
-5 -11 6 -0.1035 0.0000
-5 -11 7 -3.0607 0.0000
-5 -11 8 1.8040 0.0000
-5 -11 9 2.6596 0.0000
-5 -11 10 0.3606 0.0000
-5 -11 11 -0.5592 0.0000
-5 -11 12 -0.7646 0.0000
-5 -11 13 0.9364 0.0000
-5 -11 14 -1.0242 0.0000
-5 -11 15 0.5098 0.0000
-5 -11 16 1.0098 0.0000
-5 -11 17 -1.5822 0.0000
-5 -11 18 0.0568 0.0000
-5 -11 19 -1.5313 0.0000
-5 -11 20 1.0962 0.0000
-5 -11 21 0.0029 0.0000
-5 -10 1 0.2804 0.0000
-5 -10 2 -4.3468 0.0000
-5 -10 3 -0.0020 0.0000
-5 -10 4 3.1972 0.0000
-5 -10 5 -2.5379 0.0000
-5 -10 6 0.0900 0.0000
-5 -10 7 -1.4575 0.0000
-5 -10 8 2.2400 0.0000
-5 -10 9 0.6315 0.0000
-5 -10 10 -0.2608 0.0000
-5 -10 11 0.6372 0.0000
-5 -10 12 1.7375 0.0000
-5 -10 13 -2.1234 0.0000
-5 -10 14 -0.4203 0.0000
-5 -10 15 -0.4965 0.0000
-5 -10 16 -1.1560 0.0000
-5 -10 17 -0.5196 0.0000
-5 -10 18 -1.4542 0.0000
-5 -10 19 0.5295 0.0000
-5 -10 20 -0.3845 0.0000
-5 -10 21 -0.8929 0.0000
-5 -9 1 -0.6992 0.0000
-5 -9 2 1.5102 0.0000
-5 -9 3 3.8812 0.0000
-5 -9 4 -0.6011 0.0000
-5 -9 5 -4.2576 0.0000
-5 -9 6 2.4286 0.0000
-5 -9 7 3.0168 0.0000
-5 -9 8 -2.7529 0.0000
-5 -9 9 -0.3766 0.0000
-5 -9 10 -4.0439 0.0000
-5 -9 11 2.0244 0.0000
-5 -9 12 -1.3731 0.0000
-5 -9 13 -1.5893 0.0000
-5 -9 14 2.0081 0.0000
-5 -9 15 -0.4388 0.0000
-5 -9 16 -2.0362 0.0000
-5 -9 17 1.9538 0.0000
-5 -9 18 0.7968 0.0000
-5 -9 19 2.4627 0.0000
-5 -9 20 -0.9017 0.0000
-5 -9 21 -0.1755 0.0000
-5 -9 22 0.3245 0.0000
-5 -8 1 -0.1909 0.0000
-5 -8 2 4.6558 0.0000
-5 -8 3 -0.4075 0.0000
-5 -8 4 -5.8698 0.0000
-5 -8 5 -0.1391 0.0000
-5 -8 6 3.5306 0.0000
-5 -8 7 0.8190 0.0000
-5 -8 8 -5.3393 0.0000
-5 -8 9 2.8710 0.0000
-5 -8 10 0.3610 0.0000
-5 -8 11 2.2952 0.0000
-5 -8 12 -1.8185 0.0000
-5 -8 13 -0.6725 0.0000
-5 -8 14 2.5958 0.0000
-5 -8 15 -2.4787 0.0000
-5 -8 16 -1.3890 0.0000
-5 -8 17 0.9795 0.0000
-5 -8 18 -0.8002 0.0000
-5 -8 19 -0.5476 0.0000
-5 -8 20 -1.4181 0.0000
-5 -8 21 0.8588 0.0000
-5 -8 22 0.3433 0.0000
-5 -7 1 3.2744 0.0000
-5 -7 2 1.4963 0.0000
-5 -7 3 -6.2600 0.0000
-5 -7 4 0.8371 0.0000
-5 -7 5 9.2025 0.0000
-5 -7 6 -2.9747 0.0000
-5 -7 7 0.4997 0.0000
-5 -7 8 -2.7005 0.0000
-5 -7 9 4.3899 0.0000
-5 -7 10 3.0894 0.0000
-5 -7 11 -3.0657 0.0000
-5 -7 12 1.8989 0.0000
-5 -7 13 2.7461 0.0000
-5 -7 14 0.7472 0.0000
-5 -7 15 0.5121 0.0000
-5 -7 16 3.5974 0.0000
-5 -7 17 0.0971 0.0000
-5 -7 18 0.6498 0.0000
-5 -7 19 -1.5773 0.0000
-5 -7 20 0.9385 0.0000
-5 -7 21 0.1933 0.0000
-5 -7 22 -0.7495 0.0000
-5 -7 23 -0.8468 0.0000
-5 -6 1 0.8713 0.0000
-5 -6 2 -3.7744 0.0000
-5 -6 3 -6.8677 0.0000
-5 -6 4 9.2555 0.0000
-5 -6 5 2.3768 0.0000
-5 -6 6 -11.9658 0.0000
-5 -6 7 4.6066 0.0000
-5 -6 8 1.5805 0.0000
-5 -6 9 -3.2568 0.0000
-5 -6 10 2.2509 0.0000
-5 -6 11 -8.9837 0.0000
-5 -6 12 6.9226 0.0000
-5 -6 13 0.3955 0.0000
-5 -6 14 -4.6806 0.0000
-5 -6 15 3.7368 0.0000
-5 -6 16 0.7658 0.0000
-5 -6 17 -1.6721 0.0000
-5 -6 18 2.0465 0.0000
-5 -6 19 -0.8288 0.0000
-5 -6 20 2.6047 0.0000
-5 -6 21 0.3181 0.0000
-5 -6 22 0.0878 0.0000
-5 -6 23 0.4566 0.0000
-5 -5 1 -6.0123 0.0000
-5 -5 2 6.1798 0.0000
-5 -5 3 7.1509 0.0000
-5 -5 4 6.0385 0.0000
-5 -5 5 -4.2285 0.0000
-5 -5 6 -9.3245 0.0000
-5 -5 7 11.9436 0.0000
-5 -5 8 -3.8854 0.0000
-5 -5 9 -6.9558 0.0000
-5 -5 10 1.4948 0.0000
-5 -5 11 -4.2287 0.0000
-5 -5 12 2.2581 0.0000
-5 -5 13 -7.3493 0.0000
-5 -5 14 -5.2225 0.0000
-5 -5 15 2.9485 0.0000
-5 -5 16 -4.2322 0.0000
-5 -5 17 0.6422 0.0000
-5 -5 18 0.1287 0.0000
-5 -5 19 -0.4899 0.0000
-5 -5 20 0.1969 0.0000
-5 -5 21 -0.2539 0.0000
-5 -5 22 -0.6132 0.0000
-5 -5 23 0.9758 0.0000
-5 -4 1 -16.8260 0.0000
-5 -4 2 11.1495 0.0000
-5 -4 3 4.2990 0.0000
-5 -4 4 -16.2208 0.0000
-5 -4 5 2.7730 0.0000
-5 -4 6 6.3099 0.0000
-5 -4 7 5.6388 0.0000
-5 -4 8 1.7264 0.0000
-5 -4 9 -1.3473 0.0000
-5 -4 10 11.1755 0.0000
-5 -4 11 6.3399 0.0000
-5 -4 12 -1.5011 0.0000
-5 -4 13 0.9026 0.0000
-5 -4 14 4.3831 0.0000
-5 -4 15 -0.4341 0.0000
-5 -4 16 -2.1951 0.0000
-5 -4 17 -0.3217 0.0000
-5 -4 18 -1.4975 0.0000
-5 -4 19 -0.8194 0.0000
-5 -4 20 0.0986 0.0000
-5 -4 21 -0.4432 0.0000
-5 -4 22 -0.0349 0.0000
-5 -4 23 0.6760 0.0000
-5 -3 1 -5.3612 0.0000
-5 -3 2 -1.7048 0.0000
-5 -3 3 -1.1157 0.0000
-5 -3 4 -30.6311 0.0000
-5 -3 5 21.8349 0.0000
-5 -3 6 -6.0127 0.0000
-5 -3 7 -18.6895 0.0000
-5 -3 8 4.4500 0.0000
-5 -3 9 -9.3473 0.0000
-5 -3 10 1.5784 0.0000
-5 -3 11 -1.1903 0.0000
-5 -3 12 -9.8062 0.0000
-5 -3 13 11.2889 0.0000
-5 -3 14 0.3112 0.0000
-5 -3 15 -0.0901 0.0000
-5 -3 16 3.1964 0.0000
-5 -3 17 1.8188 0.0000
-5 -3 18 2.0667 0.0000
-5 -3 19 -0.6276 0.0000
-5 -3 20 -0.2352 0.0000
-5 -3 21 -0.6581 0.0000
-5 -3 22 0.3881 0.0000
-5 -3 23 0.2639 0.0000
-5 -2 1 14.2136 0.0000
-5 -2 2 -24.0446 0.0000
-5 -2 3 16.6009 0.0000
-5 -2 4 -16.1942 0.0000
-5 -2 5 36.7371 0.0000
-5 -2 6 -17.3327 0.0000
-5 -2 7 -5.4831 0.0000
-5 -2 8 20.6767 0.0000
-5 -2 9 -10.2118 0.0000
-5 -2 10 -1.0123 0.0000
-5 -2 11 -5.7589 0.0000
-5 -2 12 -2.1366 0.0000
-5 -2 13 7.7405 0.0000
-5 -2 14 -7.7141 0.0000
-5 -2 15 -0.6224 0.0000
-5 -2 16 -0.3461 0.0000
-5 -2 17 -0.9028 0.0000
-5 -2 18 1.3211 0.0000
-5 -2 19 -1.5719 0.0000
-5 -2 20 0.5786 0.0000
-5 -2 21 0.6222 0.0000
-5 -2 22 -1.1184 0.0000
-5 -2 23 -0.4363 0.0000
-5 -1 1 21.3422 0.0000
-5 -1 2 -15.2122 0.0000
-5 -1 3 44.7241 0.0000
-5 -1 4 4.3370 0.0000
-5 -1 5 7.5549 0.0000
-5 -1 6 -8.7370 0.0000
-5 -1 7 11.3924 0.0000
-5 -1 8 14.2490 0.0000
-5 -1 9 -0.5055 0.0000
-5 -1 10 4.2252 0.0000
-5 -1 11 4.2375 0.0000
-5 -1 12 5.1440 0.0000
-5 -1 13 -3.5164 0.0000
-5 -1 14 -1.8026 0.0000
-5 -1 15 4.1194 0.0000
-5 -1 16 -0.1073 0.0000
-5 -1 17 -1.4611 0.0000
-5 -1 18 -0.6667 0.0000
-5 -1 19 -0.1437 0.0000
-5 -1 20 1.5344 0.0000
-5 -1 21 1.5641 0.0000
-5 -1 22 -1.5675 0.0000
-5 -1 23 0.4356 0.0000
-5 0 1 -6.1481 0.0000
-5 0 2 -23.6790 0.0000
-5 0 3 11.3964 0.0000
-5 0 4 -7.0305 0.0000
-5 0 5 -36.6786 0.0000
-5 0 6 26.1694 0.0000
-5 0 7 -7.0812 0.0000
-5 0 8 -7.8190 0.0000
-5 0 9 -2.0649 0.0000
-5 0 10 0.1582 0.0000
-5 0 11 4.4467 0.0000
-5 0 12 2.5593 0.0000
-5 0 13 -10.2779 0.0000
-5 0 14 5.7992 0.0000
-5 0 15 -2.0944 0.0000
-5 0 16 -2.1837 0.0000
-5 0 17 -2.4726 0.0000
-5 0 18 -0.5395 0.0000
-5 0 19 0.8916 0.0000
-5 0 20 -2.0018 0.0000
-5 0 21 -0.9683 0.0000
-5 0 22 -1.1026 0.0000
-5 1 1 22.2312 0.0000
-5 1 2 -8.6421 0.0000
-5 1 3 -20.1880 0.0000
-5 1 4 -1.0511 0.0000
-5 1 5 -40.9924 0.0000
-5 1 6 39.6857 0.0000
-5 1 7 -39.2229 0.0000
-5 1 8 -6.8486 0.0000
-5 1 9 -3.9872 0.0000
-5 1 10 -7.5999 0.0000
-5 1 11 -2.9723 0.0000
-5 1 12 -5.3211 0.0000
-5 1 13 -2.5234 0.0000
-5 1 14 6.5140 0.0000
-5 1 15 -3.3643 0.0000
-5 1 16 1.7478 0.0000
-5 1 17 1.8454 0.0000
-5 1 18 2.8884 0.0000
-5 1 19 1.0380 0.0000
-5 1 20 -0.0790 0.0000
-5 1 21 0.4258 0.0000
-5 1 22 1.0467 0.0000
-5 2 1 31.5865 0.0000
-5 2 2 -13.2901 0.0000
-5 2 3 -16.2187 0.0000
-5 2 4 21.8759 0.0000
-5 2 5 -1.2614 0.0000
-5 2 6 22.9386 0.0000
-5 2 7 -18.5225 0.0000
-5 2 8 22.5116 0.0000
-5 2 9 6.9909 0.0000
-5 2 10 3.6252 0.0000
-5 2 11 2.4276 0.0000
-5 2 12 -0.2575 0.0000
-5 2 13 5.2165 0.0000
-5 2 14 -1.9219 0.0000
-5 2 15 -1.5030 0.0000
-5 2 16 1.9556 0.0000
-5 2 17 1.9607 0.0000
-5 2 18 -1.2172 0.0000
-5 2 19 -1.6594 0.0000
-5 2 20 0.4487 0.0000
-5 2 21 0.5638 0.0000
-5 2 22 0.2458 0.0000
-5 3 1 0.9204 0.0000
-5 3 2 1.9325 0.0000
-5 3 3 9.4240 0.0000
-5 3 4 22.1370 0.0000
-5 3 5 5.5424 0.0000
-5 3 6 -18.9914 0.0000
-5 3 7 9.1732 0.0000
-5 3 8 8.7083 0.0000
-5 3 9 0.3757 0.0000
-5 3 10 -1.5786 0.0000
-5 3 11 5.1697 0.0000
-5 3 12 0.2411 0.0000
-5 3 13 5.8295 0.0000
-5 3 14 -5.5913 0.0000
-5 3 15 3.7616 0.0000
-5 3 16 -0.5706 0.0000
-5 3 17 0.8114 0.0000
-5 3 18 -0.7342 0.0000
-5 3 19 -0.4123 0.0000
-5 3 20 -0.0922 0.0000
-5 3 21 -0.8072 0.0000
-5 3 22 -0.3136 0.0000
-5 4 1 -23.9725 0.0000
-5 4 2 18.0221 0.0000
-5 4 3 17.3938 0.0000
-5 4 4 4.9686 0.0000
-5 4 5 5.8225 0.0000
-5 4 6 -11.1902 0.0000
-5 4 7 26.7532 0.0000
-5 4 8 -12.8138 0.0000
-5 4 9 -0.8262 0.0000
-5 4 10 -9.1869 0.0000
-5 4 11 3.3295 0.0000
-5 4 12 -7.1246 0.0000
-5 4 13 -1.1189 0.0000
-5 4 14 -3.0553 0.0000
-5 4 15 1.3695 0.0000
-5 4 16 -3.8005 0.0000
-5 4 17 -2.1835 0.0000
-5 4 18 -0.4685 0.0000
-5 4 19 -0.5903 0.0000
-5 4 20 -0.2930 0.0000
-5 4 21 1.3178 0.0000
-5 5 1 -2.5134 0.0000
-5 5 2 -1.8979 0.0000
-5 5 3 -9.9847 0.0000
-5 5 4 -29.7187 0.0000
-5 5 5 -6.2466 0.0000
-5 5 6 -2.4046 0.0000
-5 5 7 -0.6675 0.0000
-5 5 8 -17.0480 0.0000
-5 5 9 1.1034 0.0000
-5 5 10 -2.1458 0.0000
-5 5 11 4.5610 0.0000
-5 5 12 -3.2106 0.0000
-5 5 13 0.9673 0.0000
-5 5 14 2.4079 0.0000
-5 5 15 -0.7117 0.0000
-5 5 16 -1.4008 0.0000
-5 5 17 1.2044 0.0000
-5 5 18 -0.7622 0.0000
-5 5 19 0.5856 0.0000
-5 5 20 0.1489 0.0000
-5 5 21 0.6468 0.0000
-5 6 1 28.7806 0.0000
-5 6 2 -20.1330 0.0000
-5 6 3 -3.9235 0.0000
-5 6 4 -14.1245 0.0000
-5 6 5 12.1946 0.0000
-5 6 6 3.5826 0.0000
-5 6 7 -9.4954 0.0000
-5 6 8 2.2266 0.0000
-5 6 9 5.9261 0.0000
-5 6 10 2.3113 0.0000
-5 6 11 0.1825 0.0000
-5 6 12 1.2366 0.0000
-5 6 13 1.2868 0.0000
-5 6 14 3.1291 0.0000
-5 6 15 -2.0963 0.0000
-5 6 16 2.7316 0.0000
-5 6 17 1.4662 0.0000
-5 6 18 0.2354 0.0000
-5 6 19 1.2221 0.0000
-5 6 20 0.9375 0.0000
-5 7 1 21.3155 0.0000
-5 7 2 -6.6223 0.0000
-5 7 3 6.6225 0.0000
-5 7 4 16.8767 0.0000
-5 7 5 2.4512 0.0000
-5 7 6 0.6243 0.0000
-5 7 7 -5.6086 0.0000
-5 7 8 11.6820 0.0000
-5 7 9 1.2088 0.0000
-5 7 10 0.0635 0.0000
-5 7 11 -2.6581 0.0000
-5 7 12 3.4372 0.0000
-5 7 13 -1.7430 0.0000
-5 7 14 1.1555 0.0000
-5 7 15 -0.8395 0.0000
-5 7 16 2.5548 0.0000
-5 7 17 -0.1980 0.0000
-5 7 18 0.0014 0.0000
-5 7 19 0.1059 0.0000
-5 8 1 -11.1164 0.0000
-5 8 2 10.1987 0.0000
-5 8 3 2.7652 0.0000
-5 8 4 21.2424 0.0000
-5 8 5 -13.2147 0.0000
-5 8 6 8.1861 0.0000
-5 8 7 3.1822 0.0000
-5 8 8 3.2075 0.0000
-5 8 9 -5.1852 0.0000
-5 8 10 -2.0522 0.0000
-5 8 11 -1.2507 0.0000
-5 8 12 1.5768 0.0000
-5 8 13 -3.7034 0.0000
-5 8 14 0.3318 0.0000
-5 8 15 0.0271 0.0000
-5 8 16 -0.0640 0.0000
-5 8 17 -1.2261 0.0000
-5 8 18 -0.7605 0.0000
-5 8 19 0.1697 0.0000
-5 9 1 -21.9213 0.0000
-5 9 2 7.9292 0.0000
-5 9 3 -15.0663 0.0000
-5 9 4 -1.9676 0.0000
-5 9 5 -16.1260 0.0000
-5 9 6 6.2344 0.0000
-5 9 7 0.9261 0.0000
-5 9 8 -6.2353 0.0000
-5 9 9 -0.3091 0.0000
-5 9 10 2.5209 0.0000
-5 9 11 -0.1550 0.0000
-5 9 12 -0.9201 0.0000
-5 9 13 -1.7295 0.0000
-5 9 14 1.0691 0.0000
-5 9 15 0.0311 0.0000
-5 9 16 -0.9992 0.0000
-5 9 17 -0.5168 0.0000
-5 9 18 -0.7943 0.0000
-5 10 1 0.5059 0.0000
-5 10 2 8.7537 0.0000
-5 10 3 -10.4514 0.0000
-5 10 4 -2.7037 0.0000
-5 10 5 3.9704 0.0000
-5 10 6 -2.4437 0.0000
-5 10 7 -1.6415 0.0000
-5 10 8 -7.0639 0.0000
-5 10 9 5.3710 0.0000
-5 10 10 1.5613 0.0000
-5 10 11 -0.9456 0.0000
-5 10 12 -0.7489 0.0000
-5 10 13 2.9263 0.0000
-5 10 14 0.1835 0.0000
-5 10 15 -0.2219 0.0000
-5 10 16 -0.8096 0.0000
-5 10 17 0.5889 0.0000
-5 11 1 5.8687 0.0000
-5 11 2 -0.7096 0.0000
-5 11 3 -0.6195 0.0000
-5 11 4 1.2017 0.0000
-5 11 5 10.6753 0.0000
-5 11 6 -8.5872 0.0000
-5 11 7 2.8902 0.0000
-5 11 8 0.2169 0.0000
-5 11 9 2.9517 0.0000
-5 11 10 -2.1278 0.0000
-5 11 11 -1.4763 0.0000
-5 11 12 0.8530 0.0000
-5 11 13 1.3146 0.0000
-5 11 14 -1.7692 0.0000
-5 11 15 -0.9574 0.0000
-5 11 16 0.6072 0.0000
-5 12 1 -0.5273 0.0000
-5 12 2 -4.4625 0.0000
-5 12 3 6.0254 0.0000
-5 12 4 -0.4557 0.0000
-5 12 5 1.3609 0.0000
-5 12 6 -5.1927 0.0000
-5 12 7 4.3154 0.0000
-5 12 8 3.5197 0.0000
-5 12 9 -3.5325 0.0000
-5 12 10 -0.4028 0.0000
-5 12 11 0.3045 0.0000
-5 12 12 1.6212 0.0000
-5 12 13 -1.3565 0.0000
-5 12 14 -0.7578 0.0000
-5 12 15 0.0628 0.0000
-5 13 1 -3.2641 0.0000
-5 13 2 -1.7618 0.0000
-5 13 3 4.4368 0.0000
-5 13 4 -3.5783 0.0000
-5 13 5 -1.7463 0.0000
-5 13 6 3.1099 0.0000
-5 13 7 1.5051 0.0000
-5 13 8 0.9943 0.0000
-5 13 9 -3.9603 0.0000
-5 13 10 2.1150 0.0000
-5 13 11 0.7768 0.0000
-5 13 12 0.0992 0.0000
-5 13 13 -1.5573 0.0000
-5 13 14 1.2573 0.0000
-5 14 1 2.3949 0.0000
-5 14 2 1.1653 0.0000
-5 14 3 -0.2773 0.0000
-5 14 4 -2.6708 0.0000
-5 14 5 -0.0102 0.0000
-5 14 6 2.8095 0.0000
-5 14 7 -4.2767 0.0000
-5 14 8 -0.4313 0.0000
-5 14 9 -0.8646 0.0000
-5 14 10 1.6288 0.0000
-5 14 11 -0.5427 0.0000
-5 14 12 -0.7671 0.0000
-5 14 13 -0.0800 0.0000
-5 15 1 3.4184 0.0000
-5 15 2 -0.6261 0.0000
-5 15 3 -1.3773 0.0000
-5 15 4 2.7453 0.0000
-5 15 5 0.2499 0.0000
-5 15 6 0.4096 0.0000
-5 15 7 -3.8938 0.0000
-5 15 8 2.1389 0.0000
-5 15 9 0.3105 0.0000
-5 15 10 -0.7268 0.0000
-5 15 11 -0.6190 0.0000
-5 15 12 -0.1632 0.0000
-5 16 1 0.4472 0.0000
-5 16 2 -2.1130 0.0000
-5 16 3 1.4987 0.0000
-5 16 4 2.1213 0.0000
-5 16 5 -1.7538 0.0000
-5 16 6 -0.8654 0.0000
-5 16 7 0.5059 0.0000
-5 16 8 2.2470 0.0000
-5 16 9 0.4085 0.0000
-5 16 10 -0.3948 0.0000
-5 16 11 1.0127 0.0000
-5 17 1 -1.8926 0.0000
-5 17 2 0.2999 0.0000
-5 17 3 2.4050 0.0000
-5 17 4 0.0222 0.0000
-5 17 5 0.8711 0.0000
-5 17 6 1.4229 0.0000
-5 17 7 2.2687 0.0000
-5 17 8 -0.7368 0.0000
-5 17 9 0.2475 0.0000
-5 18 1 0.0125 0.0000
-5 18 2 0.8893 0.0000
-5 18 3 -1.9157 0.0000
-5 18 4 -3.0145 0.0000
-5 18 5 1.1670 0.0000
-5 18 6 -0.1985 0.0000
-5 18 7 0.2213 0.0000
-5 18 8 -1.3157 0.0000
-5 19 1 1.1540 0.0000
-5 19 2 1.6594 0.0000
-5 19 3 -0.7578 0.0000
-5 19 4 0.1274 0.0000
-5 19 5 0.8695 0.0000
-5 19 6 -0.9314 0.0000
-5 20 1 -1.2945 0.0000
-5 20 2 -1.0453 0.0000
-5 20 3 -0.1870 0.0000
-4 -17 3 0.9566 0.0000
-4 -17 4 0.2373 0.0000
-4 -17 5 0.1492 0.0000
-4 -17 6 0.4587 0.0000
-4 -17 7 1.2804 0.0000
-4 -17 8 0.1903 0.0000
-4 -17 9 1.0532 0.0000
-4 -17 10 0.0487 0.0000
-4 -17 11 1.1043 0.0000
-4 -17 12 -1.0206 0.0000
-4 -17 13 -0.6776 0.0000
-4 -16 1 0.2054 0.0000
-4 -16 2 1.0180 0.0000
-4 -16 3 -0.3462 0.0000
-4 -16 4 -1.2697 0.0000
-4 -16 5 0.1191 0.0000
-4 -16 6 0.5608 0.0000
-4 -16 7 -0.5634 0.0000
-4 -16 8 -0.6494 0.0000
-4 -16 9 -0.4559 0.0000
-4 -16 10 0.9594 0.0000
-4 -16 11 -0.5301 0.0000
-4 -16 12 -0.3178 0.0000
-4 -16 13 0.4338 0.0000
-4 -16 14 -0.0715 0.0000
-4 -16 15 -0.0709 0.0000
-4 -16 16 -0.7107 0.0000
-4 -15 1 -0.5197 0.0000
-4 -15 2 1.7374 0.0000
-4 -15 3 -3.1590 0.0000
-4 -15 4 -0.1624 0.0000
-4 -15 5 0.3387 0.0000
-4 -15 6 -0.2861 0.0000
-4 -15 7 -2.3318 0.0000
-4 -15 8 -0.1678 0.0000
-4 -15 9 -0.9443 0.0000
-4 -15 10 0.1434 0.0000
-4 -15 11 -0.7409 0.0000
-4 -15 12 0.2266 0.0000
-4 -15 13 1.9450 0.0000
-4 -15 14 -1.1387 0.0000
-4 -15 15 -0.5471 0.0000
-4 -15 16 1.1970 0.0000
-4 -15 17 0.1127 0.0000
-4 -14 1 -1.1392 0.0000
-4 -14 2 1.1374 0.0000
-4 -14 3 -1.9156 0.0000
-4 -14 4 2.2395 0.0000
-4 -14 5 0.5743 0.0000
-4 -14 6 -0.7631 0.0000
-4 -14 7 -0.4067 0.0000
-4 -14 8 1.9725 0.0000
-4 -14 9 -0.3842 0.0000
-4 -14 10 -0.9365 0.0000
-4 -14 11 1.5764 0.0000
-4 -14 12 0.4128 0.0000
-4 -14 13 1.1291 0.0000
-4 -14 14 -1.6158 0.0000
-4 -14 15 0.6747 0.0000
-4 -14 16 -0.2624 0.0000
-4 -14 17 0.0316 0.0000
-4 -14 18 -0.9768 0.0000
-4 -14 19 -0.4776 0.0000
-4 -13 1 0.6973 0.0000
-4 -13 2 -0.4267 0.0000
-4 -13 3 2.9498 0.0000
-4 -13 4 0.2110 0.0000
-4 -13 5 -0.9189 0.0000
-4 -13 6 0.6552 0.0000
-4 -13 7 0.4680 0.0000
-4 -13 8 2.2156 0.0000
-4 -13 9 -1.5144 0.0000
-4 -13 10 -1.8537 0.0000
-4 -13 11 0.8709 0.0000
-4 -13 12 -0.2246 0.0000
-4 -13 13 -0.4341 0.0000
-4 -13 14 2.6190 0.0000
-4 -13 15 -0.4301 0.0000
-4 -13 16 1.0492 0.0000
-4 -13 17 -0.0585 0.0000
-4 -13 18 -0.6380 0.0000
-4 -13 19 0.3622 0.0000
-4 -13 20 -0.7873 0.0000
-4 -12 1 -1.2747 0.0000
-4 -12 2 0.5385 0.0000
-4 -12 3 -1.0715 0.0000
-4 -12 4 -2.0450 0.0000
-4 -12 5 -1.8060 0.0000
-4 -12 6 2.2865 0.0000
-4 -12 7 -1.9806 0.0000
-4 -12 8 1.0350 0.0000
-4 -12 9 1.9906 0.0000
-4 -12 10 0.5053 0.0000
-4 -12 11 1.2656 0.0000
-4 -12 12 -2.7851 0.0000
-4 -12 13 -0.5693 0.0000
-4 -12 14 -0.0904 0.0000
-4 -12 15 -2.8299 0.0000
-4 -12 16 1.2974 0.0000
-4 -12 17 -2.5867 0.0000
-4 -12 18 0.7006 0.0000
-4 -12 19 -1.0952 0.0000
-4 -12 20 -0.2224 0.0000
-4 -12 21 0.7359 0.0000
-4 -11 1 1.6246 0.0000
-4 -11 2 0.2226 0.0000
-4 -11 3 -3.3223 0.0000
-4 -11 4 1.6592 0.0000
-4 -11 5 2.4954 0.0000
-4 -11 6 1.6142 0.0000
-4 -11 7 -4.2425 0.0000
-4 -11 8 -0.4016 0.0000
-4 -11 9 0.4864 0.0000
-4 -11 10 1.0091 0.0000
-4 -11 11 -0.2867 0.0000
-4 -11 12 0.6549 0.0000
-4 -11 13 0.4901 0.0000
-4 -11 14 -1.2955 0.0000
-4 -11 15 -0.6213 0.0000
-4 -11 16 1.8866 0.0000
-4 -11 17 -1.0400 0.0000
-4 -11 18 1.2296 0.0000
-4 -11 19 -1.5281 0.0000
-4 -11 20 0.6517 0.0000
-4 -11 21 0.2380 0.0000
-4 -10 1 3.4563 0.0000
-4 -10 2 -1.9381 0.0000
-4 -10 3 -0.6610 0.0000
-4 -10 4 5.4068 0.0000
-4 -10 5 -1.1476 0.0000
-4 -10 6 -1.8264 0.0000
-4 -10 7 0.6937 0.0000
-4 -10 8 1.0150 0.0000
-4 -10 9 0.6700 0.0000
-4 -10 10 -2.3148 0.0000
-4 -10 11 -1.6105 0.0000
-4 -10 12 1.5260 0.0000
-4 -10 13 -1.2101 0.0000
-4 -10 14 -0.2474 0.0000
-4 -10 15 2.0334 0.0000
-4 -10 16 -0.8468 0.0000
-4 -10 17 0.3958 0.0000
-4 -10 18 0.6755 0.0000
-4 -10 19 1.6384 0.0000
-4 -10 20 1.5726 0.0000
-4 -10 21 -0.6964 0.0000
-4 -10 22 0.0433 0.0000
-4 -9 1 -4.3760 0.0000
-4 -9 2 -3.1814 0.0000
-4 -9 3 4.1032 0.0000
-4 -9 4 0.6823 0.0000
-4 -9 5 -6.6101 0.0000
-4 -9 6 -1.8096 0.0000
-4 -9 7 5.5405 0.0000
-4 -9 8 -2.4396 0.0000
-4 -9 9 0.8800 0.0000
-4 -9 10 -2.6777 0.0000
-4 -9 11 2.2227 0.0000
-4 -9 12 1.4530 0.0000
-4 -9 13 -2.2106 0.0000
-4 -9 14 2.3323 0.0000
-4 -9 15 2.7382 0.0000
-4 -9 16 -3.5411 0.0000
-4 -9 17 0.2854 0.0000
-4 -9 18 -1.1457 0.0000
-4 -9 19 1.0631 0.0000
-4 -9 20 -1.1328 0.0000
-4 -9 21 -0.1877 0.0000
-4 -9 22 0.1471 0.0000
-4 -8 1 0.1610 0.0000
-4 -8 2 5.1818 0.0000
-4 -8 3 4.8457 0.0000
-4 -8 4 -5.0298 0.0000
-4 -8 5 0.4598 0.0000
-4 -8 6 4.6246 0.0000
-4 -8 7 4.9500 0.0000
-4 -8 8 -5.0317 0.0000
-4 -8 9 0.4315 0.0000
-4 -8 10 2.0962 0.0000
-4 -8 11 1.8505 0.0000
-4 -8 12 0.2035 0.0000
-4 -8 13 -1.5607 0.0000
-4 -8 14 2.9627 0.0000
-4 -8 15 -0.6163 0.0000
-4 -8 16 -0.9772 0.0000
-4 -8 17 2.5129 0.0000
-4 -8 18 0.1848 0.0000
-4 -8 19 0.6274 0.0000
-4 -8 20 -1.1111 0.0000
-4 -8 21 0.4013 0.0000
-4 -8 22 -0.8381 0.0000
-4 -7 1 3.9637 0.0000
-4 -7 2 4.3979 0.0000
-4 -7 3 -7.3537 0.0000
-4 -7 4 -7.0318 0.0000
-4 -7 5 9.4231 0.0000
-4 -7 6 -2.8379 0.0000
-4 -7 7 -4.1936 0.0000
-4 -7 8 -1.8884 0.0000
-4 -7 9 -2.1554 0.0000
-4 -7 10 6.0115 0.0000
-4 -7 11 -5.9603 0.0000
-4 -7 12 -0.3280 0.0000
-4 -7 13 2.7105 0.0000
-4 -7 14 -0.1531 0.0000
-4 -7 15 -3.1679 0.0000
-4 -7 16 4.0142 0.0000
-4 -7 17 -1.2051 0.0000
-4 -7 18 1.2341 0.0000
-4 -7 19 -1.0146 0.0000
-4 -7 20 0.6937 0.0000
-4 -7 21 1.0121 0.0000
-4 -7 22 0.1813 0.0000
-4 -7 23 0.8540 0.0000
-4 -6 1 -0.0364 0.0000
-4 -6 2 1.6809 0.0000
-4 -6 3 -6.5145 0.0000
-4 -6 4 6.9435 0.0000
-4 -6 5 11.2773 0.0000
-4 -6 6 -12.1547 0.0000
-4 -6 7 -1.5252 0.0000
-4 -6 8 7.7307 0.0000
-4 -6 9 -6.2245 0.0000
-4 -6 10 3.1741 0.0000
-4 -6 11 -9.5687 0.0000
-4 -6 12 -1.5637 0.0000
-4 -6 13 3.2095 0.0000
-4 -6 14 -9.3090 0.0000
-4 -6 15 0.5794 0.0000
-4 -6 16 1.1538 0.0000
-4 -6 17 -2.7690 0.0000
-4 -6 18 0.9306 0.0000
-4 -6 19 -1.4099 0.0000
-4 -6 20 -0.1680 0.0000
-4 -6 21 0.0525 0.0000
-4 -6 22 -0.0988 0.0000
-4 -6 23 0.7977 0.0000
-4 -5 1 -17.9523 0.0000
-4 -5 2 -4.2745 0.0000
-4 -5 3 4.5769 0.0000
-4 -5 4 0.8871 0.0000
-4 -5 5 -1.1844 0.0000
-4 -5 6 -10.9898 0.0000
-4 -5 7 10.9907 0.0000
-4 -5 8 8.8211 0.0000
-4 -5 9 -6.0278 0.0000
-4 -5 10 6.1051 0.0000
-4 -5 11 4.6632 0.0000
-4 -5 12 4.9788 0.0000
-4 -5 13 2.9818 0.0000
-4 -5 14 -4.0910 0.0000
-4 -5 15 4.6485 0.0000
-4 -5 16 -2.7581 0.0000
-4 -5 17 -0.9361 0.0000
-4 -5 18 -0.8869 0.0000
-4 -5 19 -0.8973 0.0000
-4 -5 20 -0.1021 0.0000
-4 -5 21 0.3153 0.0000
-4 -5 22 -0.8339 0.0000
-4 -5 23 0.1367 0.0000
-4 -4 1 -14.1842 0.0000
-4 -4 2 1.5778 0.0000
-4 -4 3 17.1312 0.0000
-4 -4 4 -18.1408 0.0000
-4 -4 5 -5.2748 0.0000
-4 -4 6 6.5815 0.0000
-4 -4 7 -2.6795 0.0000
-4 -4 8 -4.2590 0.0000
-4 -4 9 -8.2998 0.0000
-4 -4 10 -0.1838 0.0000
-4 -4 11 8.3056 0.0000
-4 -4 12 -5.6341 0.0000
-4 -4 13 0.7173 0.0000
-4 -4 14 3.7256 0.0000
-4 -4 15 3.3172 0.0000
-4 -4 16 1.1669 0.0000
-4 -4 17 3.1029 0.0000
-4 -4 18 0.8578 0.0000
-4 -4 19 0.6229 0.0000
-4 -4 20 0.1114 0.0000
-4 -4 21 -0.4730 0.0000
-4 -4 22 -0.9012 0.0000
-4 -4 23 0.4771 0.0000
-4 -3 1 23.8963 0.0000
-4 -3 2 -10.5826 0.0000
-4 -3 3 20.4692 0.0000
-4 -3 4 -32.7197 0.0000
-4 -3 5 16.8870 0.0000
-4 -3 6 19.4443 0.0000
-4 -3 7 -19.4034 0.0000
-4 -3 8 7.6236 0.0000
-4 -3 9 2.0299 0.0000
-4 -3 10 -5.0688 0.0000
-4 -3 11 2.5939 0.0000
-4 -3 12 -13.5564 0.0000
-4 -3 13 4.9384 0.0000
-4 -3 14 2.1942 0.0000
-4 -3 15 -4.6236 0.0000
-4 -3 16 -0.5400 0.0000
-4 -3 17 -2.5600 0.0000
-4 -3 18 1.7962 0.0000
-4 -3 19 -0.6238 0.0000
-4 -3 20 -0.2137 0.0000
-4 -3 21 -0.2589 0.0000
-4 -3 22 -0.7408 0.0000
-4 -3 23 0.2026 0.0000
-4 -2 1 52.9504 0.0000
-4 -2 2 -29.8823 0.0000
-4 -2 3 34.6685 0.0000
-4 -2 4 -10.3404 0.0000
-4 -2 5 27.7500 0.0000
-4 -2 6 4.8718 0.0000
-4 -2 7 -21.8909 0.0000
-4 -2 8 24.4142 0.0000
-4 -2 9 5.6871 0.0000
-4 -2 10 -1.5009 0.0000
-4 -2 11 2.6265 0.0000
-4 -2 12 -4.1653 0.0000
-4 -2 13 6.1821 0.0000
-4 -2 14 -4.0593 0.0000
-4 -2 15 -2.5427 0.0000
-4 -2 16 1.1553 0.0000
-4 -2 17 -2.1748 0.0000
-4 -2 18 2.8475 0.0000
-4 -2 19 -1.2810 0.0000
-4 -2 20 1.1792 0.0000
-4 -2 21 2.9607 0.0000
-4 -2 22 -0.1629 0.0000
-4 -2 23 0.3514 0.0000
-4 -1 1 -1.8844 0.0000
-4 -1 2 -61.5707 0.0000
-4 -1 3 9.4473 0.0000
-4 -1 4 1.0427 0.0000
-4 -1 5 -15.8174 0.0000
-4 -1 6 -9.8984 0.0000
-4 -1 7 -7.0611 0.0000
-4 -1 8 5.8100 0.0000
-4 -1 9 -9.4222 0.0000
-4 -1 10 -3.9163 0.0000
-4 -1 11 1.2269 0.0000
-4 -1 12 7.0478 0.0000
-4 -1 13 -3.2276 0.0000
-4 -1 14 -4.3038 0.0000
-4 -1 15 1.7044 0.0000
-4 -1 16 0.7507 0.0000
-4 -1 17 -1.7248 0.0000
-4 -1 18 -1.8876 0.0000
-4 -1 19 -2.0583 0.0000
-4 -1 20 -1.4990 0.0000
-4 -1 21 0.5648 0.0000
-4 -1 22 -1.3517 0.0000
-4 -1 23 0.4609 0.0000
-4 0 1 -8.8992 0.0000
-4 0 2 -1.5053 0.0000
-4 0 3 -15.3016 0.0000
-4 0 4 22.0193 0.0000
-4 0 5 -60.9013 0.0000
-4 0 6 16.1546 0.0000
-4 0 7 0.4394 0.0000
-4 0 8 -13.3403 0.0000
-4 0 9 -7.8496 0.0000
-4 0 10 -2.7933 0.0000
-4 0 11 -4.0550 0.0000
-4 0 12 4.9992 0.0000
-4 0 13 -10.2637 0.0000
-4 0 14 6.2888 0.0000
-4 0 15 3.6295 0.0000
-4 0 16 2.0803 0.0000
-4 0 17 -0.0073 0.0000
-4 0 18 0.7332 0.0000
-4 0 19 2.6918 0.0000
-4 0 20 0.1823 0.0000
-4 0 21 0.0719 0.0000
-4 0 22 -0.3479 0.0000
-4 1 1 29.6245 0.0000
-4 1 2 46.0671 0.0000
-4 1 3 -33.5641 0.0000
-4 1 4 44.4188 0.0000
-4 1 5 -35.9823 0.0000
-4 1 6 53.3026 0.0000
-4 1 7 0.3181 0.0000
-4 1 8 -1.0255 0.0000
-4 1 9 17.0144 0.0000
-4 1 10 6.5206 0.0000
-4 1 11 5.5364 0.0000
-4 1 12 2.5312 0.0000
-4 1 13 -1.8868 0.0000
-4 1 14 6.4262 0.0000
-4 1 15 -3.5315 0.0000
-4 1 16 -0.9092 0.0000
-4 1 17 -0.3362 0.0000
-4 1 18 2.3024 0.0000
-4 1 19 0.5795 0.0000
-4 1 20 0.4279 0.0000
-4 1 21 0.3355 0.0000
-4 1 22 -0.0222 0.0000
-4 2 1 53.4286 0.0000
-4 2 2 31.2124 0.0000
-4 2 3 -20.4977 0.0000
-4 2 4 39.0372 0.0000
-4 2 5 1.5840 0.0000
-4 2 6 18.2018 0.0000
-4 2 7 -19.8584 0.0000
-4 2 8 2.0340 0.0000
-4 2 9 7.1741 0.0000
-4 2 10 -4.6447 0.0000
-4 2 11 0.6277 0.0000
-4 2 12 -3.8296 0.0000
-4 2 13 5.0577 0.0000
-4 2 14 -2.7123 0.0000
-4 2 15 -3.1998 0.0000
-4 2 16 -1.3822 0.0000
-4 2 17 1.1508 0.0000
-4 2 18 -0.3621 0.0000
-4 2 19 -2.2844 0.0000
-4 2 20 -1.6798 0.0000
-4 2 21 -1.6056 0.0000
-4 2 22 -0.2170 0.0000
-4 3 1 -24.6364 0.0000
-4 3 2 -31.8972 0.0000
-4 3 3 -10.5518 0.0000
-4 3 4 0.5255 0.0000
-4 3 5 16.3222 0.0000
-4 3 6 -27.9435 0.0000
-4 3 7 2.6235 0.0000
-4 3 8 -0.8639 0.0000
-4 3 9 1.6409 0.0000
-4 3 10 -14.2347 0.0000
-4 3 11 0.1650 0.0000
-4 3 12 -7.6778 0.0000
-4 3 13 2.9706 0.0000
-4 3 14 -7.1623 0.0000
-4 3 15 1.5664 0.0000
-4 3 16 -0.7703 0.0000
-4 3 17 -1.3150 0.0000
-4 3 18 -1.3486 0.0000
-4 3 19 0.0349 0.0000
-4 3 20 -0.0065 0.0000
-4 3 21 0.4831 0.0000
-4 4 1 -47.0166 0.0000
-4 4 2 -12.4288 0.0000
-4 4 3 5.1686 0.0000
-4 4 4 -24.7333 0.0000
-4 4 5 -4.4507 0.0000
-4 4 6 -30.6989 0.0000
-4 4 7 16.6966 0.0000
-4 4 8 -9.2023 0.0000
-4 4 9 0.9781 0.0000
-4 4 10 -5.8540 0.0000
-4 4 11 8.5910 0.0000
-4 4 12 1.0129 0.0000
-4 4 13 2.1364 0.0000
-4 4 14 0.6815 0.0000
-4 4 15 4.0727 0.0000
-4 4 16 1.5754 0.0000
-4 4 17 0.8292 0.0000
-4 4 18 1.7059 0.0000
-4 4 19 1.6881 0.0000
-4 4 20 -0.1937 0.0000
-4 4 21 1.1738 0.0000
-4 5 1 -4.5252 0.0000
-4 5 2 17.7107 0.0000
-4 5 3 19.6249 0.0000
-4 5 4 -13.9881 0.0000
-4 5 5 7.7416 0.0000
-4 5 6 8.4152 0.0000
-4 5 7 17.3245 0.0000
-4 5 8 -5.5066 0.0000
-4 5 9 4.9398 0.0000
-4 5 10 2.6547 0.0000
-4 5 11 5.5636 0.0000
-4 5 12 0.5790 0.0000
-4 5 13 -0.4888 0.0000
-4 5 14 3.2894 0.0000
-4 5 15 0.4750 0.0000
-4 5 16 -0.3412 0.0000
-4 5 17 1.0063 0.0000
-4 5 18 -0.2474 0.0000
-4 5 19 -0.8056 0.0000
-4 5 20 0.0776 0.0000
-4 6 1 40.2052 0.0000
-4 6 2 7.9669 0.0000
-4 6 3 4.2955 0.0000
-4 6 4 -3.2297 0.0000
-4 6 5 9.1128 0.0000
-4 6 6 10.3594 0.0000
-4 6 7 -7.0397 0.0000
-4 6 8 -2.4612 0.0000
-4 6 9 0.8418 0.0000
-4 6 10 2.9128 0.0000
-4 6 11 -4.9620 0.0000
-4 6 12 -0.4934 0.0000
-4 6 13 -2.7064 0.0000
-4 6 14 2.1998 0.0000
-4 6 15 -2.3850 0.0000
-4 6 16 0.0273 0.0000
-4 6 17 -0.3035 0.0000
-4 6 18 -0.7630 0.0000
-4 6 19 -0.9602 0.0000
-4 6 20 0.8831 0.0000
-4 7 1 12.1018 0.0000
-4 7 2 -9.3985 0.0000
-4 7 3 -12.6273 0.0000
-4 7 4 15.3198 0.0000
-4 7 5 -1.2236 0.0000
-4 7 6 1.2633 0.0000
-4 7 7 -9.5978 0.0000
-4 7 8 4.7786 0.0000
-4 7 9 -1.2534 0.0000
-4 7 10 -0.5060 0.0000
-4 7 11 -5.3095 0.0000
-4 7 12 2.0360 0.0000
-4 7 13 -1.1956 0.0000
-4 7 14 -0.3478 0.0000
-4 7 15 -1.5475 0.0000
-4 7 16 0.0556 0.0000
-4 7 17 -0.4403 0.0000
-4 7 18 0.0985 0.0000
-4 7 19 0.6692 0.0000
-4 8 1 -25.3967 0.0000
-4 8 2 -6.2702 0.0000
-4 8 3 -13.7865 0.0000
-4 8 4 9.9792 0.0000
-4 8 5 -18.2571 0.0000
-4 8 6 -5.4107 0.0000
-4 8 7 0.7682 0.0000
-4 8 8 3.8229 0.0000
-4 8 9 -1.6417 0.0000
-4 8 10 0.4961 0.0000
-4 8 11 0.0822 0.0000
-4 8 12 2.5078 0.0000
-4 8 13 -1.9592 0.0000
-4 8 14 -0.9854 0.0000
-4 8 15 -0.2081 0.0000
-4 8 16 0.2438 0.0000
-4 8 17 -0.5774 0.0000
-4 8 18 -0.9643 0.0000
-4 9 1 -14.8102 0.0000
-4 9 2 17.6772 0.0000
-4 9 3 -0.6458 0.0000
-4 9 4 3.6627 0.0000
-4 9 5 -6.8255 0.0000
-4 9 6 2.6328 0.0000
-4 9 7 5.6487 0.0000
-4 9 8 -5.3039 0.0000
-4 9 9 -1.9283 0.0000
-4 9 10 1.8508 0.0000
-4 9 11 1.5550 0.0000
-4 9 12 -0.9240 0.0000
-4 9 13 -0.7090 0.0000
-4 9 14 0.3446 0.0000
-4 9 15 1.5219 0.0000
-4 9 16 0.1981 0.0000
-4 9 17 0.6294 0.0000
-4 9 18 -0.0167 0.0000
-4 10 1 1.0641 0.0000
-4 10 2 11.9929 0.0000
-4 10 3 -2.4956 0.0000
-4 10 4 -6.5470 0.0000
-4 10 5 9.4770 0.0000
-4 10 6 1.1827 0.0000
-4 10 7 2.9485 0.0000
-4 10 8 -5.7906 0.0000
-4 10 9 3.1335 0.0000
-4 10 10 1.8317 0.0000
-4 10 11 -0.1606 0.0000
-4 10 12 -2.3966 0.0000
-4 10 13 1.6586 0.0000
-4 10 14 0.4182 0.0000
-4 10 15 -0.0448 0.0000
-4 10 16 -0.7507 0.0000
-4 10 17 -0.3224 0.0000
-4 11 1 6.5254 0.0000
-4 11 2 -2.3292 0.0000
-4 11 3 0.4305 0.0000
-4 11 4 -2.9434 0.0000
-4 11 5 11.5113 0.0000
-4 11 6 -6.0707 0.0000
-4 11 7 -1.1586 0.0000
-4 11 8 0.7951 0.0000
-4 11 9 1.3849 0.0000
-4 11 10 -0.9591 0.0000
-4 11 11 -2.0845 0.0000
-4 11 12 0.4239 0.0000
-4 11 13 2.0045 0.0000
-4 11 14 -0.2069 0.0000
-4 11 15 -1.3807 0.0000
-4 11 16 0.5825 0.0000
-4 12 1 -0.2671 0.0000
-4 12 2 -8.4565 0.0000
-4 12 3 3.2911 0.0000
-4 12 4 0.5533 0.0000
-4 12 5 0.9462 0.0000
-4 12 6 -3.7723 0.0000
-4 12 7 0.8466 0.0000
-4 12 8 5.9229 0.0000
-4 12 9 -2.4373 0.0000
-4 12 10 -0.6908 0.0000
-4 12 11 -0.1857 0.0000
-4 12 12 1.9260 0.0000
-4 12 13 0.3237 0.0000
-4 12 14 -0.6981 0.0000
-4 12 15 -1.0479 0.0000
-4 13 1 -0.4376 0.0000
-4 13 2 -0.8870 0.0000
-4 13 3 4.3928 0.0000
-4 13 4 -1.8903 0.0000
-4 13 5 -5.5812 0.0000
-4 13 6 0.7841 0.0000
-4 13 7 -0.7293 0.0000
-4 13 8 1.4878 0.0000
-4 13 9 -3.3374 0.0000
-4 13 10 1.3333 0.0000
-4 13 11 0.8085 0.0000
-4 13 12 0.4294 0.0000
-4 13 13 -2.1381 0.0000
-4 13 14 0.4651 0.0000
-4 14 1 1.1875 0.0000
-4 14 2 2.6574 0.0000
-4 14 3 -0.2127 0.0000
-4 14 4 -0.6933 0.0000
-4 14 5 -0.9678 0.0000
-4 14 6 4.9338 0.0000
-4 14 7 -2.6612 0.0000
-4 14 8 -0.5136 0.0000
-4 14 9 -0.6763 0.0000
-4 14 10 1.1115 0.0000
-4 14 11 0.5763 0.0000
-4 14 12 -0.3652 0.0000
-4 14 13 -0.1658 0.0000
-4 15 1 2.1213 0.0000
-4 15 2 -1.2017 0.0000
-4 15 3 -2.8997 0.0000
-4 15 4 2.2768 0.0000
-4 15 5 1.1444 0.0000
-4 15 6 1.7188 0.0000
-4 15 7 -2.3651 0.0000
-4 15 8 1.5267 0.0000
-4 15 9 1.8107 0.0000
-4 15 10 0.0263 0.0000
-4 15 11 -0.1186 0.0000
-4 15 12 -0.7932 0.0000
-4 16 1 -0.3679 0.0000
-4 16 2 -3.1925 0.0000
-4 16 3 0.8145 0.0000
-4 16 4 3.0759 0.0000
-4 16 5 0.9392 0.0000
-4 16 6 -0.1123 0.0000
-4 16 7 0.3162 0.0000
-4 16 8 0.9602 0.0000
-4 16 9 -0.3427 0.0000
-4 16 10 -1.7596 0.0000
-4 17 1 -1.4604 0.0000
-4 17 2 -0.0540 0.0000
-4 17 3 1.1079 0.0000
-4 17 4 -2.9235 0.0000
-4 17 5 -2.0462 0.0000
-4 17 6 -1.4715 0.0000
-4 17 7 0.4771 0.0000
-4 17 8 -1.2791 0.0000
-4 17 9 0.2189 0.0000
-4 18 1 -0.2938 0.0000
-4 18 2 2.6959 0.0000
-4 18 3 0.0678 0.0000
-4 18 4 -2.5099 0.0000
-4 18 5 -0.3111 0.0000
-4 18 6 0.2101 0.0000
-4 18 7 -0.4503 0.0000
-4 19 1 -0.1471 0.0000
-4 19 2 -0.0811 0.0000
-4 19 3 -0.7104 0.0000
-4 19 4 0.1991 0.0000
-4 19 5 0.5317 0.0000
-4 20 1 -0.3343 0.0000
-4 20 2 -1.6591 0.0000
-3 -18 4 0.6120 0.0000
-3 -18 5 0.1206 0.0000
-3 -18 6 -0.8898 0.0000
-3 -18 7 -0.2229 0.0000
-3 -18 8 -0.5388 0.0000
-3 -18 9 0.2858 0.0000
-3 -18 10 -0.9984 0.0000
-3 -18 11 0.6280 0.0000
-3 -17 1 0.4721 0.0000
-3 -17 2 -0.5578 0.0000
-3 -17 3 0.0904 0.0000
-3 -17 4 -0.5888 0.0000
-3 -17 5 -0.8325 0.0000
-3 -17 6 -0.6452 0.0000
-3 -17 7 0.2170 0.0000
-3 -17 8 -0.9567 0.0000
-3 -17 9 0.0172 0.0000
-3 -17 10 -0.5973 0.0000
-3 -17 11 1.6719 0.0000
-3 -17 12 -0.0051 0.0000
-3 -17 13 -0.4050 0.0000
-3 -17 14 0.3503 0.0000
-3 -17 15 0.4147 0.0000
-3 -16 1 -0.4017 0.0000
-3 -16 2 0.6676 0.0000
-3 -16 3 0.2425 0.0000
-3 -16 4 -1.2172 0.0000
-3 -16 5 -0.2844 0.0000
-3 -16 6 0.6366 0.0000
-3 -16 7 -0.2342 0.0000
-3 -16 8 -0.0171 0.0000
-3 -16 9 -0.4279 0.0000
-3 -16 10 0.4577 0.0000
-3 -16 11 0.9996 0.0000
-3 -16 12 -1.1835 0.0000
-3 -16 13 0.5768 0.0000
-3 -16 14 1.0309 0.0000
-3 -16 15 -1.2597 0.0000
-3 -16 16 0.5147 0.0000
-3 -16 17 -0.0150 0.0000
-3 -15 1 -1.2829 0.0000
-3 -15 2 3.6958 0.0000
-3 -15 3 -1.6470 0.0000
-3 -15 4 0.3070 0.0000
-3 -15 5 1.2880 0.0000
-3 -15 6 1.4184 0.0000
-3 -15 7 -0.6110 0.0000
-3 -15 8 1.0321 0.0000
-3 -15 9 -0.2817 0.0000
-3 -15 10 -0.7581 0.0000
-3 -15 11 0.6677 0.0000
-3 -15 12 -0.6080 0.0000
-3 -15 13 2.4922 0.0000
-3 -15 14 0.3188 0.0000
-3 -15 15 -1.4732 0.0000
-3 -15 16 0.3040 0.0000
-3 -15 17 -1.2352 0.0000
-3 -14 1 -1.9974 0.0000
-3 -14 2 0.0451 0.0000
-3 -14 3 -1.6690 0.0000
-3 -14 4 0.8930 0.0000
-3 -14 5 1.2795 0.0000
-3 -14 6 -0.8466 0.0000
-3 -14 7 0.1458 0.0000
-3 -14 8 0.7175 0.0000
-3 -14 9 0.4325 0.0000
-3 -14 10 -2.2296 0.0000
-3 -14 11 -0.5750 0.0000
-3 -14 12 0.2182 0.0000
-3 -14 13 -0.2811 0.0000
-3 -14 14 -0.1951 0.0000
-3 -14 15 0.4460 0.0000
-3 -14 16 -0.0222 0.0000
-3 -14 17 1.1206 0.0000
-3 -14 18 -0.0313 0.0000
-3 -14 19 -1.4911 0.0000
-3 -13 1 -0.0121 0.0000
-3 -13 2 -1.8840 0.0000
-3 -13 3 1.8761 0.0000
-3 -13 4 0.4256 0.0000
-3 -13 5 -2.7343 0.0000
-3 -13 6 -0.2667 0.0000
-3 -13 7 0.1608 0.0000
-3 -13 8 0.0688 0.0000
-3 -13 9 3.8834 0.0000
-3 -13 10 -0.0915 0.0000
-3 -13 11 1.0096 0.0000
-3 -13 12 -0.4118 0.0000
-3 -13 13 -3.7695 0.0000
-3 -13 14 0.1518 0.0000
-3 -13 15 -2.0604 0.0000
-3 -13 16 -1.0392 0.0000
-3 -13 17 -0.3004 0.0000
-3 -13 18 -0.9082 0.0000
-3 -13 19 0.2536 0.0000
-3 -13 20 0.9278 0.0000
-3 -12 1 -0.8037 0.0000
-3 -12 2 3.1509 0.0000
-3 -12 3 2.0345 0.0000
-3 -12 4 -0.8579 0.0000
-3 -12 5 -0.4823 0.0000
-3 -12 6 4.0831 0.0000
-3 -12 7 -1.7215 0.0000
-3 -12 8 -3.6949 0.0000
-3 -12 9 0.9668 0.0000
-3 -12 10 -1.6096 0.0000
-3 -12 11 1.9703 0.0000
-3 -12 12 -0.6620 0.0000
-3 -12 13 1.2249 0.0000
-3 -12 14 2.3954 0.0000
-3 -12 15 -0.7678 0.0000
-3 -12 16 3.2407 0.0000
-3 -12 17 0.1634 0.0000
-3 -12 18 1.8333 0.0000
-3 -12 19 -0.1083 0.0000
-3 -12 20 -0.9060 0.0000
-3 -12 21 0.2409 0.0000
-3 -11 1 3.0190 0.0000
-3 -11 2 2.0174 0.0000
-3 -11 3 -4.6681 0.0000
-3 -11 4 -2.2428 0.0000
-3 -11 5 1.9201 0.0000
-3 -11 6 2.8157 0.0000
-3 -11 7 -2.6491 0.0000
-3 -11 8 0.4984 0.0000
-3 -11 9 0.1939 0.0000
-3 -11 10 0.0743 0.0000
-3 -11 11 -1.7006 0.0000
-3 -11 12 -0.4324 0.0000
-3 -11 13 1.5599 0.0000
-3 -11 14 -0.8384 0.0000
-3 -11 15 -1.1900 0.0000
-3 -11 16 1.4259 0.0000
-3 -11 17 -1.1126 0.0000
-3 -11 18 1.6991 0.0000
-3 -11 19 -0.1732 0.0000
-3 -11 20 1.5120 0.0000
-3 -11 21 1.0014 0.0000
-3 -10 1 1.4012 0.0000
-3 -10 2 -4.8502 0.0000
-3 -10 3 -3.8190 0.0000
-3 -10 4 4.2541 0.0000
-3 -10 5 1.9794 0.0000
-3 -10 6 -6.0698 0.0000
-3 -10 7 0.0272 0.0000
-3 -10 8 -0.2670 0.0000
-3 -10 9 1.7557 0.0000
-3 -10 10 -1.0751 0.0000
-3 -10 11 -1.0349 0.0000
-3 -10 12 2.5686 0.0000
-3 -10 13 0.4981 0.0000
-3 -10 14 -1.6480 0.0000
-3 -10 15 3.1052 0.0000
-3 -10 16 0.1210 0.0000
-3 -10 17 -2.1517 0.0000
-3 -10 18 -0.9505 0.0000
-3 -10 19 -0.9449 0.0000
-3 -10 20 1.1068 0.0000
-3 -10 21 -0.8048 0.0000
-3 -10 22 -1.1086 0.0000
-3 -9 1 1.6609 0.0000
-3 -9 2 -2.5152 0.0000
-3 -9 3 6.7550 0.0000
-3 -9 4 6.3530 0.0000
-3 -9 5 -2.9818 0.0000
-3 -9 6 -4.5278 0.0000
-3 -9 7 7.9575 0.0000
-3 -9 8 -0.3130 0.0000
-3 -9 9 1.1949 0.0000
-3 -9 10 -1.9775 0.0000
-3 -9 11 1.0631 0.0000
-3 -9 12 2.6689 0.0000
-3 -9 13 -3.1104 0.0000
-3 -9 14 -1.8624 0.0000
-3 -9 15 3.8919 0.0000
-3 -9 16 -2.6392 0.0000
-3 -9 17 0.8500 0.0000
-3 -9 18 -0.0984 0.0000
-3 -9 19 1.1324 0.0000
-3 -9 20 -0.6689 0.0000
-3 -9 21 -1.0164 0.0000
-3 -9 22 -0.5817 0.0000
-3 -8 1 -3.5385 0.0000
-3 -8 2 1.2681 0.0000
-3 -8 3 4.9239 0.0000
-3 -8 4 -7.7813 0.0000
-3 -8 5 -5.0504 0.0000
-3 -8 6 1.2726 0.0000
-3 -8 7 4.4383 0.0000
-3 -8 8 -3.7115 0.0000
-3 -8 9 -3.8817 0.0000
-3 -8 10 1.7947 0.0000
-3 -8 11 -0.0743 0.0000
-3 -8 12 -0.2850 0.0000
-3 -8 13 -1.8470 0.0000
-3 -8 14 3.0236 0.0000
-3 -8 15 -0.8224 0.0000
-3 -8 16 -1.3043 0.0000
-3 -8 17 1.0013 0.0000
-3 -8 18 -0.4109 0.0000
-3 -8 19 0.0268 0.0000
-3 -8 20 -0.6966 0.0000
-3 -8 21 0.7494 0.0000
-3 -8 22 1.0457 0.0000
-3 -7 1 1.2396 0.0000
-3 -7 2 6.9685 0.0000
-3 -7 3 -3.0894 0.0000
-3 -7 4 -9.8094 0.0000
-3 -7 5 8.9206 0.0000
-3 -7 6 6.0271 0.0000
-3 -7 7 -7.8677 0.0000
-3 -7 8 2.2232 0.0000
-3 -7 9 -6.0398 0.0000
-3 -7 10 6.1007 0.0000
-3 -7 11 -4.8678 0.0000
-3 -7 12 -6.2676 0.0000
-3 -7 13 1.7070 0.0000
-3 -7 14 0.0195 0.0000
-3 -7 15 -6.2172 0.0000
-3 -7 16 2.7957 0.0000
-3 -7 17 -1.2858 0.0000
-3 -7 18 0.4176 0.0000
-3 -7 19 0.0622 0.0000
-3 -7 20 -0.2379 0.0000
-3 -7 21 0.5473 0.0000
-3 -7 22 -0.0929 0.0000
-3 -7 23 0.2973 0.0000
-3 -6 1 -3.4940 0.0000
-3 -6 2 -3.4032 0.0000
-3 -6 3 -7.6385 0.0000
-3 -6 4 -2.3310 0.0000
-3 -6 5 13.9344 0.0000
-3 -6 6 -6.7724 0.0000
-3 -6 7 -9.6835 0.0000
-3 -6 8 14.4624 0.0000
-3 -6 9 -1.4362 0.0000
-3 -6 10 6.0847 0.0000
-3 -6 11 3.0313 0.0000
-3 -6 12 -1.6148 0.0000
-3 -6 13 10.6047 0.0000
-3 -6 14 -3.9614 0.0000
-3 -6 15 -0.0559 0.0000
-3 -6 16 2.2463 0.0000
-3 -6 17 -1.8940 0.0000
-3 -6 18 0.2710 0.0000
-3 -6 19 -0.2687 0.0000
-3 -6 20 -0.6224 0.0000
-3 -6 21 -0.2312 0.0000
-3 -6 22 -0.7130 0.0000
-3 -6 23 0.0292 0.0000
-3 -5 1 -12.1908 0.0000
-3 -5 2 -8.7227 0.0000
-3 -5 3 11.8673 0.0000
-3 -5 4 5.1207 0.0000
-3 -5 5 2.3835 0.0000
-3 -5 6 -9.5061 0.0000
-3 -5 7 1.4966 0.0000
-3 -5 8 10.6258 0.0000
-3 -5 9 -8.2639 0.0000
-3 -5 10 -4.7870 0.0000
-3 -5 11 6.3155 0.0000
-3 -5 12 -0.8392 0.0000
-3 -5 13 4.9618 0.0000
-3 -5 14 -3.4799 0.0000
-3 -5 15 5.0668 0.0000
-3 -5 16 1.1317 0.0000
-3 -5 17 2.2559 0.0000
-3 -5 18 0.6186 0.0000
-3 -5 19 -0.3062 0.0000
-3 -5 20 -0.6995 0.0000
-3 -5 21 0.3072 0.0000
-3 -5 22 -0.9708 0.0000
-3 -5 23 0.7350 0.0000
-3 -4 1 0.3645 0.0000
-3 -4 2 -6.8396 0.0000
-3 -4 3 23.9564 0.0000
-3 -4 4 -12.5306 0.0000
-3 -4 5 -15.5169 0.0000
-3 -4 6 11.3094 0.0000
-3 -4 7 4.4342 0.0000
-3 -4 8 -5.4286 0.0000
-3 -4 9 -1.6544 0.0000
-3 -4 10 -10.4585 0.0000
-3 -4 11 7.7428 0.0000
-3 -4 12 -8.4933 0.0000
-3 -4 13 -3.3161 0.0000
-3 -4 14 -0.7002 0.0000
-3 -4 15 -0.2049 0.0000
-3 -4 16 -3.3462 0.0000
-3 -4 17 -0.4739 0.0000
-3 -4 18 -1.0089 0.0000
-3 -4 19 0.8082 0.0000
-3 -4 20 0.3756 0.0000
-3 -4 21 0.4804 0.0000
-3 -4 22 -0.9380 0.0000
-3 -4 23 0.2454 0.0000
-3 -3 1 50.2153 0.0000
-3 -3 2 -9.7547 0.0000
-3 -3 3 31.4974 0.0000
-3 -3 4 -13.2800 0.0000
-3 -3 5 -5.4930 0.0000
-3 -3 6 32.8978 0.0000
-3 -3 7 -17.8589 0.0000
-3 -3 8 -5.8771 0.0000
-3 -3 9 16.1069 0.0000
-3 -3 10 -3.3709 0.0000
-3 -3 11 7.5816 0.0000
-3 -3 12 -9.1170 0.0000
-3 -3 13 -3.1106 0.0000
-3 -3 14 4.2589 0.0000
-3 -3 15 -4.7432 0.0000
-3 -3 16 1.1039 0.0000
-3 -3 17 -3.1919 0.0000
-3 -3 18 2.3772 0.0000
-3 -3 19 1.4526 0.0000
-3 -3 20 0.6940 0.0000
-3 -3 21 2.4477 0.0000
-3 -3 22 0.5983 0.0000
-3 -3 23 -0.1188 0.0000
-3 -2 1 43.9582 0.0000
-3 -2 2 -70.3868 0.0000
-3 -2 3 -6.2044 0.0000
-3 -2 4 -12.8888 0.0000
-3 -2 5 -5.6383 0.0000
-3 -2 6 14.7712 0.0000
-3 -2 7 -29.6036 0.0000
-3 -2 8 3.3388 0.0000
-3 -2 9 10.3077 0.0000
-3 -2 10 -9.1626 0.0000
-3 -2 11 2.9667 0.0000
-3 -2 12 -0.7872 0.0000
-3 -2 13 5.5892 0.0000
-3 -2 14 1.9613 0.0000
-3 -2 15 -2.7699 0.0000
-3 -2 16 3.5782 0.0000
-3 -2 17 -2.9639 0.0000
-3 -2 18 0.5587 0.0000
-3 -2 19 -3.2622 0.0000
-3 -2 20 -3.9206 0.0000
-3 -2 21 0.6607 0.0000
-3 -2 22 -0.6051 0.0000
-3 -2 23 -0.0775 0.0000
-3 -1 1 18.9110 0.0000
-3 -1 2 -37.6544 0.0000
-3 -1 3 -13.1925 0.0000
-3 -1 4 26.3695 0.0000
-3 -1 5 -23.5175 0.0000
-3 -1 6 -6.1322 0.0000
-3 -1 7 -5.1159 0.0000
-3 -1 8 10.4333 0.0000
-3 -1 9 -7.0263 0.0000
-3 -1 10 -5.0903 0.0000
-3 -1 11 -5.4689 0.0000
-3 -1 12 8.3310 0.0000
-3 -1 13 -0.1821 0.0000
-3 -1 14 -1.2401 0.0000
-3 -1 15 2.6401 0.0000
-3 -1 16 4.7597 0.0000
-3 -1 17 1.2570 0.0000
-3 -1 18 0.7915 0.0000
-3 -1 19 0.6184 0.0000
-3 -1 20 0.0025 0.0000
-3 -1 21 0.5384 0.0000
-3 -1 22 -0.8990 0.0000
-3 0 1 -21.6098 0.0000
-3 0 2 67.9127 0.0000
-3 0 3 -19.6876 0.0000
-3 0 4 69.4278 0.0000
-3 0 5 -31.3250 0.0000
-3 0 6 13.7504 0.0000
-3 0 7 28.0174 0.0000
-3 0 8 1.5870 0.0000
-3 0 9 0.8713 0.0000
-3 0 10 10.8636 0.0000
-3 0 11 0.8725 0.0000
-3 0 12 10.8837 0.0000
-3 0 13 -8.4584 0.0000
-3 0 14 0.2019 0.0000
-3 0 15 0.3049 0.0000
-3 0 16 -0.7510 0.0000
-3 0 17 -1.4947 0.0000
-3 0 18 -0.4119 0.0000
-3 0 19 2.3289 0.0000
-3 0 20 1.5810 0.0000
-3 0 21 1.1030 0.0000
-3 0 22 0.0599 0.0000
-3 1 1 -13.4311 0.0000
-3 1 2 112.4170 0.0000
-3 1 3 -45.6264 0.0000
-3 1 4 57.0753 0.0000
-3 1 5 -30.4429 0.0000
-3 1 6 22.6258 0.0000
-3 1 7 4.4388 0.0000
-3 1 8 -21.4334 0.0000
-3 1 9 0.7189 0.0000
-3 1 10 0.0121 0.0000
-3 1 11 -4.9164 0.0000
-3 1 12 -1.7589 0.0000
-3 1 13 -5.6178 0.0000
-3 1 14 4.0540 0.0000
-3 1 15 -2.9763 0.0000
-3 1 16 -2.9581 0.0000
-3 1 17 -2.5610 0.0000
-3 1 18 -0.1655 0.0000
-3 1 19 -1.1915 0.0000
-3 1 20 -1.7918 0.0000
-3 1 21 -1.5651 0.0000
-3 1 22 -0.2678 0.0000
-3 2 1 -33.8689 0.0000
-3 2 2 -11.2749 0.0000
-3 2 3 -81.0917 0.0000
-3 2 4 -11.8067 0.0000
-3 2 5 -7.8376 0.0000
-3 2 6 0.0362 0.0000
-3 2 7 -12.0765 0.0000
-3 2 8 -14.2091 0.0000
-3 2 9 9.9999 0.0000
-3 2 10 -8.0349 0.0000
-3 2 11 -1.3510 0.0000
-3 2 12 -7.7093 0.0000
-3 2 13 4.6929 0.0000
-3 2 14 -0.8447 0.0000
-3 2 15 -0.9916 0.0000
-3 2 16 -0.7788 0.0000
-3 2 17 1.4640 0.0000
-3 2 18 0.8582 0.0000
-3 2 19 1.6258 0.0000
-3 2 20 1.2586 0.0000
-3 2 21 -0.5464 0.0000
-3 3 1 18.2144 0.0000
-3 3 2 -27.7933 0.0000
-3 3 3 1.7577 0.0000
-3 3 4 -17.0890 0.0000
-3 3 5 23.0129 0.0000
-3 3 6 -27.7762 0.0000
-3 3 7 1.1851 0.0000
-3 3 8 -1.8061 0.0000
-3 3 9 13.8863 0.0000
-3 3 10 -6.2809 0.0000
-3 3 11 8.3489 0.0000
-3 3 12 0.6727 0.0000
-3 3 13 7.7464 0.0000
-3 3 14 -1.7717 0.0000
-3 3 15 3.0778 0.0000
-3 3 16 4.0552 0.0000
-3 3 17 3.1217 0.0000
-3 3 18 0.6791 0.0000
-3 3 19 1.6413 0.0000
-3 3 20 -0.6262 0.0000
-3 3 21 -2.2343 0.0000
-3 4 1 -14.4359 0.0000
-3 4 2 -4.5559 0.0000
-3 4 3 50.4629 0.0000
-3 4 4 0.7310 0.0000
-3 4 5 24.1961 0.0000
-3 4 6 -12.0041 0.0000
-3 4 7 25.2423 0.0000
-3 4 8 6.3596 0.0000
-3 4 9 6.1200 0.0000
-3 4 10 -4.5777 0.0000
-3 4 11 4.4146 0.0000
-3 4 12 0.9591 0.0000
-3 4 13 -0.6372 0.0000
-3 4 14 -1.1211 0.0000
-3 4 15 0.2733 0.0000
-3 4 16 -0.5131 0.0000
-3 4 17 -1.6831 0.0000
-3 4 18 -2.2198 0.0000
-3 4 19 -1.0686 0.0000
-3 4 20 -2.0801 0.0000
-3 5 1 -10.8589 0.0000
-3 5 2 6.4004 0.0000
-3 5 3 25.7937 0.0000
-3 5 4 -18.3019 0.0000
-3 5 5 -2.1209 0.0000
-3 5 6 -4.6116 0.0000
-3 5 7 8.5109 0.0000
-3 5 8 -8.3756 0.0000
-3 5 9 -8.5594 0.0000
-3 5 10 -1.7169 0.0000
-3 5 11 -2.5416 0.0000
-3 5 12 -0.8533 0.0000
-3 5 13 -4.7558 0.0000
-3 5 14 1.1286 0.0000
-3 5 15 -1.0356 0.0000
-3 5 16 -0.8472 0.0000
-3 5 17 -1.0372 0.0000
-3 5 18 0.0387 0.0000
-3 5 19 -0.8784 0.0000
-3 5 20 0.9607 0.0000
-3 6 1 8.0646 0.0000
-3 6 2 3.0784 0.0000
-3 6 3 -12.0846 0.0000
-3 6 4 -8.7151 0.0000
-3 6 5 -1.9564 0.0000
-3 6 6 8.0501 0.0000
-3 6 7 -7.1247 0.0000
-3 6 8 -3.4669 0.0000
-3 6 9 -4.4660 0.0000
-3 6 10 6.3426 0.0000
-3 6 11 -3.6582 0.0000
-3 6 12 0.5804 0.0000
-3 6 13 -2.2071 0.0000
-3 6 14 1.1371 0.0000
-3 6 15 -1.4289 0.0000
-3 6 16 -0.2690 0.0000
-3 6 17 -0.4936 0.0000
-3 6 18 0.7920 0.0000
-3 6 19 0.3109 0.0000
-3 7 1 7.4550 0.0000
-3 7 2 -3.6446 0.0000
-3 7 3 -23.2449 0.0000
-3 7 4 8.2947 0.0000
-3 7 5 -2.5609 0.0000
-3 7 6 -1.1292 0.0000
-3 7 7 -8.7251 0.0000
-3 7 8 5.0569 0.0000
-3 7 9 3.2874 0.0000
-3 7 10 4.0665 0.0000
-3 7 11 -1.9588 0.0000
-3 7 12 1.3241 0.0000
-3 7 13 0.9359 0.0000
-3 7 14 -0.1356 0.0000
-3 7 15 -0.7397 0.0000
-3 7 16 -0.2505 0.0000
-3 7 17 -0.4107 0.0000
-3 7 18 -0.9963 0.0000
-3 7 19 0.2684 0.0000
-3 8 1 -6.4677 0.0000
-3 8 2 4.7515 0.0000
-3 8 3 -2.9056 0.0000
-3 8 4 18.1809 0.0000
-3 8 5 -2.2782 0.0000
-3 8 6 -3.3333 0.0000
-3 8 7 1.6261 0.0000
-3 8 8 3.9198 0.0000
-3 8 9 -1.6928 0.0000
-3 8 10 -2.0552 0.0000
-3 8 11 -0.4890 0.0000
-3 8 12 1.6286 0.0000
-3 8 13 -0.1303 0.0000
-3 8 14 -0.3611 0.0000
-3 8 15 0.3918 0.0000
-3 8 16 1.7417 0.0000
-3 8 17 1.9429 0.0000
-3 8 18 0.3339 0.0000
-3 9 1 -15.4932 0.0000
-3 9 2 10.0632 0.0000
-3 9 3 5.0383 0.0000
-3 9 4 -0.2201 0.0000
-3 9 5 -2.7717 0.0000
-3 9 6 -0.2960 0.0000
-3 9 7 8.5104 0.0000
-3 9 8 -2.1849 0.0000
-3 9 9 -1.3931 0.0000
-3 9 10 0.2228 0.0000
-3 9 11 3.4767 0.0000
-3 9 12 -0.0556 0.0000
-3 9 13 -0.3791 0.0000
-3 9 14 -0.4430 0.0000
-3 9 15 0.5548 0.0000
-3 9 16 0.0355 0.0000
-3 9 17 -0.8165 0.0000
-3 10 1 -3.3074 0.0000
-3 10 2 7.9483 0.0000
-3 10 3 4.5310 0.0000
-3 10 4 -10.7238 0.0000
-3 10 5 6.7308 0.0000
-3 10 6 0.8643 0.0000
-3 10 7 2.2027 0.0000
-3 10 8 -5.6431 0.0000
-3 10 9 -0.1607 0.0000
-3 10 10 0.7984 0.0000
-3 10 11 0.2539 0.0000
-3 10 12 -2.0879 0.0000
-3 10 13 0.4200 0.0000
-3 10 14 0.9032 0.0000
-3 10 15 0.1470 0.0000
-3 10 16 0.2266 0.0000
-3 11 1 4.6246 0.0000
-3 11 2 -5.1527 0.0000
-3 11 3 -2.9663 0.0000
-3 11 4 -7.1089 0.0000
-3 11 5 7.5621 0.0000
-3 11 6 -1.5348 0.0000
-3 11 7 -2.9299 0.0000
-3 11 8 2.3265 0.0000
-3 11 9 1.6733 0.0000
-3 11 10 0.5299 0.0000
-3 11 11 -2.0467 0.0000
-3 11 12 -0.6236 0.0000
-3 11 13 1.6541 0.0000
-3 11 14 1.5084 0.0000
-3 11 15 -1.6411 0.0000
-3 12 1 5.3992 0.0000
-3 12 2 -5.6091 0.0000
-3 12 3 1.4414 0.0000
-3 12 4 1.9297 0.0000
-3 12 5 -1.0980 0.0000
-3 12 6 -3.8590 0.0000
-3 12 7 -4.1072 0.0000
-3 12 8 4.3758 0.0000
-3 12 9 -0.9085 0.0000
-3 12 10 -0.1578 0.0000
-3 12 11 -0.0033 0.0000
-3 12 12 0.7031 0.0000
-3 12 13 0.4970 0.0000
-3 12 14 -0.2078 0.0000
-3 13 1 -2.1931 0.0000
-3 13 2 -1.7469 0.0000
-3 13 3 3.4476 0.0000
-3 13 4 2.9069 0.0000
-3 13 5 -3.7217 0.0000
-3 13 6 2.7036 0.0000
-3 13 7 -0.0399 0.0000
-3 13 8 1.8345 0.0000
-3 13 9 -3.0352 0.0000
-3 13 10 0.1018 0.0000
-3 13 11 0.9895 0.0000
-3 13 12 1.8232 0.0000
-3 13 13 -0.5849 0.0000
-3 14 1 -1.6123 0.0000
-3 14 2 2.2436 0.0000
-3 14 3 -0.9933 0.0000
-3 14 4 -0.0925 0.0000
-3 14 5 -2.2954 0.0000
-3 14 6 4.3093 0.0000
-3 14 7 -0.5123 0.0000
-3 14 8 -0.4274 0.0000
-3 14 9 0.0253 0.0000
-3 14 10 0.0802 0.0000
-3 14 11 0.1879 0.0000
-3 14 12 -1.5502 0.0000
-3 15 1 2.5161 0.0000
-3 15 2 0.0727 0.0000
-3 15 3 -3.4052 0.0000
-3 15 4 0.9894 0.0000
-3 15 5 1.3767 0.0000
-3 15 6 1.8406 0.0000
-3 15 7 -1.6471 0.0000
-3 15 8 -0.7118 0.0000
-3 15 9 0.7504 0.0000
-3 15 10 -1.0333 0.0000
-3 15 11 -0.4128 0.0000
-3 16 1 2.1971 0.0000
-3 16 2 -2.1209 0.0000
-3 16 3 -0.7291 0.0000
-3 16 4 -0.0173 0.0000
-3 16 5 -1.0591 0.0000
-3 16 6 -1.7425 0.0000
-3 16 7 -1.1622 0.0000
-3 16 8 0.3886 0.0000
-3 16 9 1.0078 0.0000
-3 17 1 -2.3226 0.0000
-3 17 2 -0.6422 0.0000
-3 17 3 1.9653 0.0000
-3 17 4 -1.2023 0.0000
-3 17 5 -1.8230 0.0000
-3 17 6 -0.4984 0.0000
-3 17 7 0.5923 0.0000
-3 17 8 -0.2684 0.0000
-3 18 1 -1.5224 0.0000
-3 18 2 2.3219 0.0000
-3 18 3 1.6403 0.0000
-3 18 4 0.6199 0.0000
-3 18 5 0.0042 0.0000
-3 18 6 1.3395 0.0000
-3 19 1 0.8640 0.0000
-3 19 2 0.0949 0.0000
-3 19 3 -1.5361 0.0000
-3 19 4 0.8630 0.0000
-3 20 1 1.8606 0.0000
-2 -18 1 0.5806 0.0000
-2 -18 2 -0.5352 0.0000
-2 -18 3 0.1581 0.0000
-2 -18 4 0.3472 0.0000
-2 -18 5 0.4411 0.0000
-2 -18 6 -0.0789 0.0000
-2 -18 7 0.9545 0.0000
-2 -18 8 0.0544 0.0000
-2 -18 9 1.2645 0.0000
-2 -18 10 -0.9271 0.0000
-2 -18 11 0.1578 0.0000
-2 -18 12 1.0498 0.0000
-2 -18 13 -0.2348 0.0000
-2 -17 1 -0.2893 0.0000
-2 -17 2 -0.3513 0.0000
-2 -17 3 0.5030 0.0000
-2 -17 4 0.0434 0.0000
-2 -17 5 -0.0598 0.0000
-2 -17 6 -0.1343 0.0000
-2 -17 7 1.0253 0.0000
-2 -17 8 -0.4320 0.0000
-2 -17 9 0.2960 0.0000
-2 -17 10 -1.3170 0.0000
-2 -17 11 1.3211 0.0000
-2 -17 12 0.7551 0.0000
-2 -17 13 -1.1152 0.0000
-2 -17 14 0.4382 0.0000
-2 -17 15 -0.7208 0.0000
-2 -17 16 0.0334 0.0000
-2 -16 1 0.0316 0.0000
-2 -16 2 0.8335 0.0000
-2 -16 3 1.0421 0.0000
-2 -16 4 -0.6131 0.0000
-2 -16 5 0.2706 0.0000
-2 -16 6 0.7422 0.0000
-2 -16 7 0.1160 0.0000
-2 -16 8 -0.4512 0.0000
-2 -16 9 0.2613 0.0000
-2 -16 10 -1.8856 0.0000
-2 -16 11 1.3951 0.0000
-2 -16 12 -0.5330 0.0000
-2 -16 13 -0.3604 0.0000
-2 -16 14 2.2857 0.0000
-2 -16 15 -1.3890 0.0000
-2 -16 16 -0.3349 0.0000
-2 -16 17 -1.0521 0.0000
-2 -15 1 -4.2246 0.0000
-2 -15 2 1.3013 0.0000
-2 -15 3 -1.9539 0.0000
-2 -15 4 -0.9950 0.0000
-2 -15 5 1.0556 0.0000
-2 -15 6 -0.0109 0.0000
-2 -15 7 -0.1164 0.0000
-2 -15 8 0.8149 0.0000
-2 -15 9 1.3801 0.0000
-2 -15 10 -1.9433 0.0000
-2 -15 11 -0.0776 0.0000
-2 -15 12 -1.8370 0.0000
-2 -15 13 -0.2374 0.0000
-2 -15 14 0.2740 0.0000
-2 -15 15 -0.9502 0.0000
-2 -15 16 0.6800 0.0000
-2 -15 17 0.1738 0.0000
-2 -15 18 2.0738 0.0000
-2 -15 19 -0.7583 0.0000
-2 -14 1 2.2184 0.0000
-2 -14 2 1.1368 0.0000
-2 -14 3 0.5979 0.0000
-2 -14 4 0.7348 0.0000
-2 -14 5 1.0410 0.0000
-2 -14 6 -2.4761 0.0000
-2 -14 7 0.9061 0.0000
-2 -14 8 -0.0067 0.0000
-2 -14 9 1.9930 0.0000
-2 -14 10 1.3760 0.0000
-2 -14 11 -0.7364 0.0000
-2 -14 12 0.8180 0.0000
-2 -14 13 -1.5091 0.0000
-2 -14 14 -1.4730 0.0000
-2 -14 15 0.1114 0.0000
-2 -14 16 -1.4050 0.0000
-2 -14 17 0.4262 0.0000
-2 -14 18 0.9154 0.0000
-2 -14 19 -1.5096 0.0000
-2 -14 20 1.2892 0.0000
-2 -13 1 -0.8960 0.0000
-2 -13 2 -2.0495 0.0000
-2 -13 3 2.3416 0.0000
-2 -13 4 1.5827 0.0000
-2 -13 5 -0.9983 0.0000
-2 -13 6 -0.7147 0.0000
-2 -13 7 2.2511 0.0000
-2 -13 9 0.2569 0.0000
-2 -13 10 -0.8927 0.0000
-2 -13 11 0.3675 0.0000
-2 -13 12 2.4314 0.0000
-2 -13 13 -0.0668 0.0000
-2 -13 14 2.3478 0.0000
-2 -13 15 2.5744 0.0000
-2 -13 16 1.1586 0.0000
-2 -13 17 1.7189 0.0000
-2 -13 18 0.3775 0.0000
-2 -13 19 -0.3253 0.0000
-2 -13 20 0.7990 0.0000
-2 -12 1 -3.6292 0.0000
-2 -12 2 0.2681 0.0000
-2 -12 3 0.8452 0.0000
-2 -12 4 -4.6030 0.0000
-2 -12 5 -3.4936 0.0000
-2 -12 6 3.3499 0.0000
-2 -12 7 2.2548 0.0000
-2 -12 8 -2.8902 0.0000
-2 -12 9 2.2421 0.0000
-2 -12 10 -0.8252 0.0000
-2 -12 11 0.6294 0.0000
-2 -12 12 -1.5429 0.0000
-2 -12 13 -0.8783 0.0000
-2 -12 14 1.1633 0.0000
-2 -12 15 -2.1006 0.0000
-2 -12 16 -0.7172 0.0000
-2 -12 17 -0.8964 0.0000
-2 -12 18 0.7092 0.0000
-2 -12 19 1.2602 0.0000
-2 -12 20 -0.1136 0.0000
-2 -12 21 0.3230 0.0000
-2 -11 1 2.0591 0.0000
-2 -11 2 4.0594 0.0000
-2 -11 3 -1.7534 0.0000
-2 -11 4 -2.7445 0.0000
-2 -11 5 2.4206 0.0000
-2 -11 6 2.2184 0.0000
-2 -11 7 -3.3192 0.0000
-2 -11 8 -1.6435 0.0000
-2 -11 9 1.1234 0.0000
-2 -11 10 0.4113 0.0000
-2 -11 11 0.0520 0.0000
-2 -11 12 -1.2047 0.0000
-2 -11 13 2.8659 0.0000
-2 -11 14 0.3962 0.0000
-2 -11 16 1.2241 0.0000
-2 -11 17 -1.9222 0.0000
-2 -11 18 -0.7041 0.0000
-2 -11 19 -2.0270 0.0000
-2 -11 20 -0.4541 0.0000
-2 -11 21 1.0600 0.0000
-2 -10 1 8.7066 0.0000
-2 -10 2 -1.0860 0.0000
-2 -10 3 -2.8048 0.0000
-2 -10 4 3.3817 0.0000
-2 -10 5 7.6075 0.0000
-2 -10 6 -4.6506 0.0000
-2 -10 7 0.7485 0.0000
-2 -10 8 1.4420 0.0000
-2 -10 9 2.4149 0.0000
-2 -10 10 -0.3132 0.0000
-2 -10 11 -2.4619 0.0000
-2 -10 12 1.2084 0.0000
-2 -10 13 1.2248 0.0000
-2 -10 14 -5.2125 0.0000
-2 -10 15 -0.1116 0.0000
-2 -10 16 1.9109 0.0000
-2 -10 17 -1.1120 0.0000
-2 -10 18 0.5922 0.0000
-2 -10 19 -0.7715 0.0000
-2 -10 20 0.5560 0.0000
-2 -10 21 0.2046 0.0000
-2 -10 22 -1.7415 0.0000
-2 -9 1 -2.7638 0.0000
-2 -9 2 -9.1173 0.0000
-2 -9 3 0.1517 0.0000
-2 -9 4 4.3977 0.0000
-2 -9 5 -1.6345 0.0000
-2 -9 6 -10.0505 0.0000
-2 -9 7 5.6943 0.0000
-2 -9 8 0.5316 0.0000
-2 -9 9 -0.4656 0.0000
-2 -9 10 -1.9113 0.0000
-2 -9 11 -1.3365 0.0000
-2 -9 12 2.4528 0.0000
-2 -9 13 -0.6874 0.0000
-2 -9 14 -3.1357 0.0000
-2 -9 15 3.9364 0.0000
-2 -9 16 -0.9476 0.0000
-2 -9 17 0.2630 0.0000
-2 -9 18 -0.0636 0.0000
-2 -9 19 0.2684 0.0000
-2 -9 20 0.4181 0.0000
-2 -9 21 -0.6911 0.0000
-2 -9 22 0.3665 0.0000
-2 -8 1 -6.2254 0.0000
-2 -8 2 0.8086 0.0000
-2 -8 3 7.1451 0.0000
-2 -8 4 -2.8275 0.0000
-2 -8 5 -7.3705 0.0000
-2 -8 6 1.8470 0.0000
-2 -8 7 3.4398 0.0000
-2 -8 8 -0.2230 0.0000
-2 -8 9 -5.9345 0.0000
-2 -8 10 2.3382 0.0000
-2 -8 11 0.3147 0.0000
-2 -8 12 -1.2965 0.0000
-2 -8 13 -3.7848 0.0000
-2 -8 14 3.8928 0.0000
-2 -8 15 -1.2086 0.0000
-2 -8 16 -0.6129 0.0000
-2 -8 17 0.6510 0.0000
-2 -8 18 0.1105 0.0000
-2 -8 19 0.6345 0.0000
-2 -8 20 0.3028 0.0000
-2 -8 21 0.2212 0.0000
-2 -8 22 1.3909 0.0000
-2 -7 1 0.5769 0.0000
-2 -7 2 8.4268 0.0000
-2 -7 3 0.6648 0.0000
-2 -7 4 -10.1520 0.0000
-2 -7 5 1.2170 0.0000
-2 -7 6 14.9239 0.0000
-2 -7 7 -9.3364 0.0000
-2 -7 8 5.3500 0.0000
-2 -7 9 -1.2001 0.0000
-2 -7 10 6.1052 0.0000
-2 -7 11 6.0014 0.0000
-2 -7 12 -4.2916 0.0000
-2 -7 13 4.1073 0.0000
-2 -7 14 5.0990 0.0000
-2 -7 15 -3.9827 0.0000
-2 -7 16 1.2207 0.0000
-2 -7 17 -0.5747 0.0000
-2 -7 18 -1.3828 0.0000
-2 -7 19 0.3925 0.0000
-2 -7 20 -0.4260 0.0000
-2 -7 21 -0.4094 0.0000
-2 -7 22 -0.2824 0.0000
-2 -7 23 -0.9645 0.0000
-2 -6 1 6.6942 0.0000
-2 -6 2 -3.0488 0.0000
-2 -6 3 -1.2608 0.0000
-2 -6 4 -2.0035 0.0000
-2 -6 5 14.8979 0.0000
-2 -6 6 7.2763 0.0000
-2 -6 7 -17.1282 0.0000
-2 -6 8 11.6154 0.0000
-2 -6 9 -0.3821 0.0000
-2 -6 10 -4.9817 0.0000
-2 -6 11 4.4700 0.0000
-2 -6 12 -5.8142 0.0000
-2 -6 13 6.7514 0.0000
-2 -6 14 -1.4191 0.0000
-2 -6 15 -1.8361 0.0000
-2 -6 16 2.3438 0.0000
-2 -6 17 0.2797 0.0000
-2 -6 18 0.7009 0.0000
-2 -6 19 0.3512 0.0000
-2 -6 20 -1.0338 0.0000
-2 -6 21 -0.5213 0.0000
-2 -6 22 -1.1366 0.0000
-2 -6 23 0.0055 0.0000
-2 -5 1 -1.9621 0.0000
-2 -5 2 -19.9761 0.0000
-2 -5 3 6.6205 0.0000
-2 -5 4 -0.0289 0.0000
-2 -5 5 -4.2023 0.0000
-2 -5 6 -13.1253 0.0000
-2 -5 7 -5.5331 0.0000
-2 -5 8 5.7203 0.0000
-2 -5 9 -1.1462 0.0000
-2 -5 11 4.3952 0.0000
-2 -5 12 -6.3466 0.0000
-2 -5 13 1.6712 0.0000
-2 -5 14 -6.4184 0.0000
-2 -5 15 0.4934 0.0000
-2 -5 16 -2.3265 0.0000
-2 -5 17 0.8837 0.0000
-2 -5 18 0.2329 0.0000
-2 -5 19 1.1351 0.0000
-2 -5 20 -0.3571 0.0000
-2 -5 21 1.4741 0.0000
-2 -5 22 -1.1523 0.0000
-2 -5 23 1.0763 0.0000
-2 -4 1 7.2682 0.0000
-2 -4 2 -4.0991 0.0000
-2 -4 3 28.7677 0.0000
-2 -4 4 10.6736 0.0000
-2 -4 5 -19.2748 0.0000
-2 -4 6 4.4984 0.0000
-2 -4 7 13.7878 0.0000
-2 -4 8 -11.9464 0.0000
-2 -4 9 8.6405 0.0000
-2 -4 10 -7.1954 0.0000
-2 -4 11 9.3347 0.0000
-2 -4 12 -2.3725 0.0000
-2 -4 13 -4.8097 0.0000
-2 -4 14 -0.3966 0.0000
-2 -4 15 1.6259 0.0000
-2 -4 16 -1.0711 0.0000
-2 -4 17 -0.3597 0.0000
-2 -4 18 -1.0652 0.0000
-2 -4 19 0.7586 0.0000
-2 -4 20 0.8232 0.0000
-2 -4 21 2.0785 0.0000
-2 -4 22 0.9251 0.0000
-2 -4 23 0.2583 0.0000
-2 -3 1 26.0767 0.0000
-2 -3 2 -29.6264 0.0000
-2 -3 3 -11.7655 0.0000
-2 -3 4 -3.3994 0.0000
-2 -3 5 -29.6327 0.0000
-2 -3 6 29.5601 0.0000
-2 -3 7 4.2990 0.0000
-2 -3 8 -22.9184 0.0000
-2 -3 9 17.6825 0.0000
-2 -3 10 -2.4398 0.0000
-2 -3 11 7.1224 0.0000
-2 -3 12 2.6581 0.0000
-2 -3 13 -2.4748 0.0000
-2 -3 14 9.4939 0.0000
-2 -3 15 -1.0548 0.0000
-2 -3 16 3.0174 0.0000
-2 -3 17 -2.3116 0.0000
-2 -3 18 -1.5402 0.0000
-2 -3 19 -0.7960 0.0000
-2 -3 20 -3.9056 0.0000
-2 -3 21 -0.5202 0.0000
-2 -3 22 0.1310 0.0000
-2 -2 1 80.4183 0.0000
-2 -2 2 -25.3486 0.0000
-2 -2 3 -24.3948 0.0000
-2 -2 4 15.8209 0.0000
-2 -2 5 -16.4208 0.0000
-2 -2 6 18.4716 0.0000
-2 -2 7 -15.2282 0.0000
-2 -2 8 -6.3568 0.0000
-2 -2 9 14.4217 0.0000
-2 -2 10 -5.7312 0.0000
-2 -2 11 -3.9302 0.0000
-2 -2 12 1.1630 0.0000
-2 -2 13 1.0850 0.0000
-2 -2 14 5.0055 0.0000
-2 -2 15 -3.8554 0.0000
-2 -2 16 4.8057 0.0000
-2 -2 17 0.6680 0.0000
-2 -2 18 2.6312 0.0000
-2 -2 19 2.0899 0.0000
-2 -2 20 -1.3568 0.0000
-2 -2 21 0.1622 0.0000
-2 -2 22 -0.3843 0.0000
-2 -1 1 31.1558 0.0000
-2 -1 2 26.7255 0.0000
-2 -1 3 -11.8001 0.0000
-2 -1 4 57.9525 0.0000
-2 -1 5 3.2880 0.0000
-2 -1 6 -2.5706 0.0000
-2 -1 7 -0.0130 0.0000
-2 -1 8 17.5151 0.0000
-2 -1 9 -0.6870 0.0000
-2 -1 10 3.3870 0.0000
-2 -1 11 -6.9823 0.0000
-2 -1 12 7.1200 0.0000
-2 -1 13 -1.8802 0.0000
-2 -1 14 -5.4072 0.0000
-2 -1 15 -3.9528 0.0000
-2 -1 16 0.6455 0.0000
-2 -1 17 -0.7569 0.0000
-2 -1 18 -0.6302 0.0000
-2 -1 19 0.7812 0.0000
-2 -1 20 1.1461 0.0000
-2 -1 21 1.9358 0.0000
-2 -1 22 0.9252 0.0000
-2 0 1 -101.2587 0.0000
-2 0 2 92.2872 0.0000
-2 0 3 -35.0706 0.0000
-2 0 4 53.8037 0.0000
-2 0 5 -11.3553 0.0000
-2 0 6 -18.2242 0.0000
-2 0 7 15.5526 0.0000
-2 0 8 -4.2498 0.0000
-2 0 9 -19.0023 0.0000
-2 0 10 1.2646 0.0000
-2 0 11 -9.0879 0.0000
-2 0 12 5.3938 0.0000
-2 0 13 -6.3065 0.0000
-2 0 14 -1.6644 0.0000
-2 0 15 1.6062 0.0000
-2 0 16 -1.0768 0.0000
-2 0 17 -1.8772 0.0000
-2 0 18 -2.4359 0.0000
-2 0 19 -0.7948 0.0000
-2 0 20 -1.0134 0.0000
-2 0 21 -0.4023 0.0000
-2 0 22 -0.2163 0.0000
-2 1 1 -175.9718 0.0000
-2 1 2 47.3737 0.0000
-2 1 3 -111.2328 0.0000
-2 1 4 -15.2365 0.0000
-2 1 5 -35.1131 0.0000
-2 1 6 -9.4007 0.0000
-2 1 7 13.0021 0.0000
-2 1 8 -16.9786 0.0000
-2 1 9 -2.6588 0.0000
-2 1 10 7.4346 0.0000
-2 1 11 -0.7623 0.0000
-2 1 12 0.1122 0.0000
-2 1 13 -2.1183 0.0000
-2 1 14 4.7648 0.0000
-2 1 15 2.6176 0.0000
-2 1 16 -0.6159 0.0000
-2 1 17 0.8831 0.0000
-2 1 18 1.1904 0.0000
-2 1 19 2.6492 0.0000
-2 1 20 2.1566 0.0000
-2 1 21 -0.3574 0.0000
-2 2 1 46.2077 0.0000
-2 2 2 70.0077 0.0000
-2 2 3 -9.1699 0.0000
-2 2 4 -5.8384 0.0000
-2 2 5 20.8343 0.0000
-2 2 6 1.6959 0.0000
-2 2 7 8.6826 0.0000
-2 2 8 -13.9837 0.0000
-2 2 9 17.7648 0.0000
-2 2 10 2.8883 0.0000
-2 2 11 6.5816 0.0000
-2 2 12 -2.4525 0.0000
-2 2 13 6.8792 0.0000
-2 2 14 1.6761 0.0000
-2 2 15 1.3658 0.0000
-2 2 16 0.1262 0.0000
-2 2 17 3.5875 0.0000
-2 2 18 -0.8014 0.0000
-2 2 19 0.0773 0.0000
-2 2 20 0.0035 0.0000
-2 2 21 -5.1844 0.0000
-2 3 1 55.5243 0.0000
-2 3 2 -20.0864 0.0000
-2 3 3 36.0442 0.0000
-2 3 4 -0.9392 0.0000
-2 3 5 43.6311 0.0000
-2 3 6 -5.0729 0.0000
-2 3 7 9.9494 0.0000
-2 3 8 0.3500 0.0000
-2 3 9 14.6731 0.0000
-2 3 10 -7.8712 0.0000
-2 3 11 -0.0326 0.0000
-2 3 12 -3.5106 0.0000
-2 3 13 1.7137 0.0000
-2 3 14 -4.0766 0.0000
-2 3 15 -3.3079 0.0000
-2 3 16 -2.5155 0.0000
-2 3 17 -0.7522 0.0000
-2 3 18 -3.1397 0.0000
-2 3 19 -0.7442 0.0000
-2 3 20 -0.1100 0.0000
-2 3 21 -1.6286 0.0000
-2 4 1 -10.2929 0.0000
-2 4 2 -57.1158 0.0000
-2 4 3 29.3394 0.0000
-2 4 4 -20.1923 0.0000
-2 4 5 3.1483 0.0000
-2 4 6 -28.2376 0.0000
-2 4 7 -1.3968 0.0000
-2 4 8 -3.5480 0.0000
-2 4 9 -5.0182 0.0000
-2 4 10 -9.5688 0.0000
-2 4 11 -2.7748 0.0000
-2 4 12 -0.4087 0.0000
-2 4 13 -2.9562 0.0000
-2 4 14 -0.9966 0.0000
-2 4 15 -0.3310 0.0000
-2 4 16 0.4736 0.0000
-2 4 17 0.3936 0.0000
-2 4 18 -0.0351 0.0000
-2 4 19 0.5887 0.0000
-2 4 20 0.3813 0.0000
-2 5 1 -23.9410 0.0000
-2 5 2 -15.2210 0.0000
-2 5 3 20.0235 0.0000
-2 5 4 -14.6618 0.0000
-2 5 5 -6.7499 0.0000
-2 5 6 -2.0506 0.0000
-2 5 7 5.3427 0.0000
-2 5 8 5.2393 0.0000
-2 5 9 -8.6243 0.0000
-2 5 10 4.7391 0.0000
-2 5 11 -0.2682 0.0000
-2 5 12 3.4636 0.0000
-2 5 13 -3.2511 0.0000
-2 5 14 1.7949 0.0000
-2 5 15 -0.5295 0.0000
-2 5 16 1.1214 0.0000
-2 5 17 -0.5838 0.0000
-2 5 18 0.8897 0.0000
-2 5 19 -0.0456 0.0000
-2 5 20 -0.4311 0.0000
-2 6 1 4.1403 0.0000
-2 6 2 18.8638 0.0000
-2 6 3 -6.2823 0.0000
-2 6 4 -4.4691 0.0000
-2 6 5 -1.4241 0.0000
-2 6 6 11.7373 0.0000
-2 6 7 -2.4292 0.0000
-2 6 8 2.9046 0.0000
-2 6 9 -3.3565 0.0000
-2 6 10 8.9284 0.0000
-2 6 11 0.8165 0.0000
-2 6 12 1.5489 0.0000
-2 6 13 0.2776 0.0000
-2 6 14 2.0584 0.0000
-2 6 15 0.0756 0.0000
-2 6 16 0.5480 0.0000
-2 6 17 -0.8452 0.0000
-2 6 18 -0.3014 0.0000
-2 6 19 0.7113 0.0000
-2 7 1 12.4177 0.0000
-2 7 2 12.6919 0.0000
-2 7 3 -15.3402 0.0000
-2 7 4 10.7619 0.0000
-2 7 5 7.6571 0.0000
-2 7 6 4.2045 0.0000
-2 7 7 -7.9714 0.0000
-2 7 8 0.3020 0.0000
-2 7 9 0.8042 0.0000
-2 7 10 1.1586 0.0000
-2 7 11 -2.1859 0.0000
-2 7 12 -1.3623 0.0000
-2 7 13 0.9089 0.0000
-2 7 14 0.2980 0.0000
-2 7 15 0.3911 0.0000
-2 7 16 0.7296 0.0000
-2 7 17 2.3037 0.0000
-2 7 18 0.1209 0.0000
-2 8 1 -3.2644 0.0000
-2 8 2 -0.2243 0.0000
-2 8 3 -5.7835 0.0000
-2 8 4 9.8984 0.0000
-2 8 5 -0.4938 0.0000
-2 8 6 -6.0941 0.0000
-2 8 7 -0.1875 0.0000
-2 8 8 3.7769 0.0000
-2 8 9 1.9821 0.0000
-2 8 10 -2.0748 0.0000
-2 8 11 -0.1303 0.0000
-2 8 12 1.7360 0.0000
-2 8 13 0.6260 0.0000
-2 8 14 -0.4030 0.0000
-2 8 15 -1.0649 0.0000
-2 8 16 -0.8411 0.0000
-2 8 17 0.0036 0.0000
-2 9 1 -13.9035 0.0000
-2 9 2 -1.6588 0.0000
-2 9 3 9.3103 0.0000
-2 9 4 -2.3921 0.0000
-2 9 5 -2.2996 0.0000
-2 9 6 -3.9234 0.0000
-2 9 7 6.4969 0.0000
-2 9 8 -1.6760 0.0000
-2 9 9 -2.4706 0.0000
-2 9 10 -3.0338 0.0000
-2 9 11 1.6195 0.0000
-2 9 12 0.9085 0.0000
-2 9 13 -0.2642 0.0000
-2 9 14 -0.2241 0.0000
-2 9 15 0.0158 0.0000
-2 9 16 1.0929 0.0000
-2 9 17 0.3864 0.0000
-2 10 1 -7.2660 0.0000
-2 10 2 -1.7450 0.0000
-2 10 3 4.1066 0.0000
-2 10 4 -13.7715 0.0000
-2 10 5 0.8248 0.0000
-2 10 6 1.5873 0.0000
-2 10 7 2.5292 0.0000
-2 10 8 -2.0765 0.0000
-2 10 9 -0.6438 0.0000
-2 10 10 1.2610 0.0000
-2 10 11 0.1690 0.0000
-2 10 12 -1.2324 0.0000
-2 10 13 -0.8259 0.0000
-2 10 14 1.0657 0.0000
-2 10 15 -0.5699 0.0000
-2 10 16 -0.4375 0.0000
-2 11 1 8.4816 0.0000
-2 11 2 1.7705 0.0000
-2 11 3 0.6279 0.0000
-2 11 4 -4.0613 0.0000
-2 11 5 3.8922 0.0000
-2 11 6 0.8556 0.0000
-2 11 7 -5.6537 0.0000
-2 11 8 0.6279 0.0000
-2 11 9 1.4191 0.0000
-2 11 10 2.2003 0.0000
-2 11 11 -0.0634 0.0000
-2 11 12 -1.1502 0.0000
-2 11 13 -0.5175 0.0000
-2 11 14 1.4658 0.0000
-2 11 15 -0.8467 0.0000
-2 12 1 4.2210 0.0000
-2 12 2 -4.2516 0.0000
-2 12 3 -1.3402 0.0000
-2 12 4 4.9875 0.0000
-2 12 5 1.1626 0.0000
-2 12 6 1.2649 0.0000
-2 12 7 -2.9281 0.0000
-2 12 8 2.8230 0.0000
-2 12 9 -0.9952 0.0000
-2 12 10 -1.8065 0.0000
-2 12 11 -0.4488 0.0000
-2 12 12 0.1171 0.0000
-2 12 13 0.7751 0.0000
-2 12 14 0.0490 0.0000
-2 13 1 -1.7280 0.0000
-2 13 2 -1.8004 0.0000
-2 13 3 0.6328 0.0000
-2 13 4 3.7182 0.0000
-2 13 5 -4.5358 0.0000
-2 13 6 1.1689 0.0000
-2 13 7 -0.1604 0.0000
-2 13 8 2.0575 0.0000
-2 13 9 -1.5883 0.0000
-2 13 10 -1.0359 0.0000
-2 13 11 -0.9553 0.0000
-2 13 12 0.0375 0.0000
-2 13 13 -1.3052 0.0000
-2 14 1 -1.6941 0.0000
-2 14 2 2.4686 0.0000
-2 14 3 -0.8656 0.0000
-2 14 4 0.1773 0.0000
-2 14 5 -2.1247 0.0000
-2 14 6 2.2579 0.0000
-2 14 7 0.5188 0.0000
-2 14 8 -1.2813 0.0000
-2 14 9 0.0258 0.0000
-2 14 10 -0.1721 0.0000
-2 14 11 1.4384 0.0000
-2 15 1 2.6029 0.0000
-2 15 2 2.4870 0.0000
-2 15 3 -2.4060 0.0000
-2 15 4 -1.5140 0.0000
-2 15 5 -0.2377 0.0000
-2 15 6 0.2186 0.0000
-2 15 7 -0.5711 0.0000
-2 15 8 -1.0266 0.0000
-2 15 9 1.8359 0.0000
-2 15 10 0.4585 0.0000
-2 16 1 0.8888 0.0000
-2 16 2 -1.9346 0.0000
-2 16 3 -1.4614 0.0000
-2 16 4 -0.0728 0.0000
-2 16 5 -0.9967 0.0000
-2 16 6 -0.4030 0.0000
-2 16 7 -0.5355 0.0000
-2 16 8 0.1753 0.0000
-2 16 9 1.1138 0.0000
-2 17 1 -1.0698 0.0000
-2 17 2 -0.0549 0.0000
-2 17 3 3.6979 0.0000
-2 17 4 3.3070 0.0000
-2 17 5 0.6794 0.0000
-2 17 6 0.9358 0.0000
-2 17 7 0.5580 0.0000
-2 18 1 -1.7494 0.0000
-2 18 2 0.8976 0.0000
-2 18 3 -0.2791 0.0000
-2 18 4 0.5613 0.0000
-2 18 5 -0.5417 0.0000
-2 19 1 0.3573 0.0000
-2 19 2 1.6179 0.0000
-1 -19 3 -0.1274 0.0000
-1 -19 4 0.4966 0.0000
-1 -19 5 1.3802 0.0000
-1 -19 6 0.9176 0.0000
-1 -19 7 0.7601 0.0000
-1 -19 8 -0.3004 0.0000
-1 -19 9 0.4287 0.0000
-1 -19 10 0.4909 0.0000
-1 -19 11 -0.5290 0.0000
-1 -18 1 -1.1855 0.0000
-1 -18 2 -1.2435 0.0000
-1 -18 3 -0.8293 0.0000
-1 -18 4 0.1215 0.0000
-1 -18 5 0.0149 0.0000
-1 -18 6 -1.0119 0.0000
-1 -18 7 -0.0344 0.0000
-1 -18 8 -0.7137 0.0000
-1 -18 9 0.9507 0.0000
-1 -18 10 -0.5912 0.0000
-1 -18 11 -0.3970 0.0000
-1 -18 12 0.9578 0.0000
-1 -18 13 0.0370 0.0000
-1 -18 14 -0.1556 0.0000
-1 -18 15 -0.2586 0.0000
-1 -17 1 0.5206 0.0000
-1 -17 2 -0.0867 0.0000
-1 -17 3 1.0506 0.0000
-1 -17 4 0.0791 0.0000
-1 -17 5 -0.0408 0.0000
-1 -17 6 -0.6005 0.0000
-1 -17 7 1.3214 0.0000
-1 -17 8 -0.4227 0.0000
-1 -17 9 0.8582 0.0000
-1 -17 10 -1.9501 0.0000
-1 -17 11 -0.7813 0.0000
-1 -17 12 0.5938 0.0000
-1 -17 13 -0.8491 0.0000
-1 -17 14 0.3498 0.0000
-1 -17 15 0.0764 0.0000
-1 -17 16 -1.3980 0.0000
-1 -16 1 -1.9101 0.0000
-1 -16 2 -0.5222 0.0000
-1 -16 3 0.3613 0.0000
-1 -16 4 -1.5822 0.0000
-1 -16 5 0.3439 0.0000
-1 -16 6 0.2364 0.0000
-1 -16 7 0.9226 0.0000
-1 -16 8 -0.6685 0.0000
-1 -16 9 2.4204 0.0000
-1 -16 10 -1.7399 0.0000
-1 -16 11 -0.0636 0.0000
-1 -16 12 0.1462 0.0000
-1 -16 13 -1.4833 0.0000
-1 -16 14 1.0635 0.0000
-1 -16 15 -0.1075 0.0000
-1 -16 16 0.6985 0.0000
-1 -16 17 1.2778 0.0000
-1 -16 18 0.9064 0.0000
-1 -15 1 1.0140 0.0000
-1 -15 2 3.2424 0.0000
-1 -15 3 0.7797 0.0000
-1 -15 4 -1.0550 0.0000
-1 -15 5 2.1852 0.0000
-1 -15 6 -1.4576 0.0000
-1 -15 7 -0.9595 0.0000
-1 -15 8 -0.5353 0.0000
-1 -15 9 1.6361 0.0000
-1 -15 10 -0.0821 0.0000
-1 -15 11 0.4043 0.0000
-1 -15 12 0.1591 0.0000
-1 -15 13 -0.2492 0.0000
-1 -15 14 0.3678 0.0000
-1 -15 15 -0.0396 0.0000
-1 -15 16 0.2348 0.0000
-1 -15 17 -0.8877 0.0000
-1 -15 18 1.2347 0.0000
-1 -15 19 0.3545 0.0000
-1 -14 1 -0.5784 0.0000
-1 -14 2 -2.8131 0.0000
-1 -14 3 -1.2824 0.0000
-1 -14 4 0.3773 0.0000
-1 -14 5 1.9365 0.0000
-1 -14 6 -2.9389 0.0000
-1 -14 7 0.5139 0.0000
-1 -14 8 -1.7120 0.0000
-1 -14 9 -2.2989 0.0000
-1 -14 10 0.9739 0.0000
-1 -14 11 -0.2090 0.0000
-1 -14 12 1.5543 0.0000
-1 -14 13 1.9229 0.0000
-1 -14 14 -0.4248 0.0000
-1 -14 15 2.2209 0.0000
-1 -14 16 -0.0005 0.0000
-1 -14 17 0.0521 0.0000
-1 -14 18 0.8862 0.0000
-1 -14 19 -1.4703 0.0000
-1 -14 20 -0.2321 0.0000
-1 -13 1 -1.0528 0.0000
-1 -13 2 -4.0748 0.0000
-1 -13 3 1.6796 0.0000
-1 -13 4 -0.7889 0.0000
-1 -13 5 -1.9971 0.0000
-1 -13 6 -2.7050 0.0000
-1 -13 7 5.9165 0.0000
-1 -13 8 -1.3078 0.0000
-1 -13 9 -0.0286 0.0000
-1 -13 10 1.1705 0.0000
-1 -13 11 -0.7013 0.0000
-1 -13 12 0.6935 0.0000
-1 -13 13 -1.1490 0.0000
-1 -13 14 -2.1218 0.0000
-1 -13 15 0.4997 0.0000
-1 -13 16 -1.6783 0.0000
-1 -13 17 -0.4701 0.0000
-1 -13 18 0.1880 0.0000
-1 -13 19 0.3060 0.0000
-1 -13 20 0.9725 0.0000
-1 -12 1 -1.5988 0.0000
-1 -12 2 2.0539 0.0000
-1 -12 3 5.8121 0.0000
-1 -12 4 -1.1857 0.0000
-1 -12 5 -2.7147 0.0000
-1 -12 6 1.3343 0.0000
-1 -12 7 2.9050 0.0000
-1 -12 8 -3.9342 0.0000
-1 -12 9 0.3548 0.0000
-1 -12 10 0.1811 0.0000
-1 -12 11 1.1548 0.0000
-1 -12 12 -0.6121 0.0000
-1 -12 13 -1.1075 0.0000
-1 -12 14 0.7977 0.0000
-1 -12 15 1.2355 0.0000
-1 -12 16 -1.4233 0.0000
-1 -12 17 -0.8341 0.0000
-1 -12 18 -1.6110 0.0000
-1 -12 19 -0.1419 0.0000
-1 -12 20 -0.8423 0.0000
-1 -12 21 0.6678 0.0000
-1 -11 1 2.1772 0.0000
-1 -11 2 4.1906 0.0000
-1 -11 3 -0.3808 0.0000
-1 -11 4 -4.1481 0.0000
-1 -11 5 2.8956 0.0000
-1 -11 6 4.2249 0.0000
-1 -11 7 0.1297 0.0000
-1 -11 8 -1.8664 0.0000
-1 -11 9 2.1425 0.0000
-1 -11 10 -0.0924 0.0000
-1 -11 11 -0.5858 0.0000
-1 -11 12 -3.8352 0.0000
-1 -11 13 0.5497 0.0000
-1 -11 14 -0.1440 0.0000
-1 -11 15 -2.8433 0.0000
-1 -11 16 1.2976 0.0000
-1 -11 17 0.3155 0.0000
-1 -11 18 1.0908 0.0000
-1 -11 19 0.0288 0.0000
-1 -11 20 -2.0167 0.0000
-1 -11 21 0.7519 0.0000
-1 -10 1 4.0115 0.0000
-1 -10 2 -3.7812 0.0000
-1 -10 3 -6.4956 0.0000
-1 -10 4 -2.0345 0.0000
-1 -10 5 7.4422 0.0000
-1 -10 6 -4.6096 0.0000
-1 -10 7 -2.7693 0.0000
-1 -10 8 1.4462 0.0000
-1 -10 9 1.8819 0.0000
-1 -10 10 0.2825 0.0000
-1 -10 11 -2.3081 0.0000
-1 -10 12 -0.5998 0.0000
-1 -10 13 5.9084 0.0000
-1 -10 14 -1.6300 0.0000
-1 -10 15 -0.7041 0.0000
-1 -10 16 2.8384 0.0000
-1 -10 17 -0.1714 0.0000
-1 -10 18 0.9622 0.0000
-1 -10 19 -0.1122 0.0000
-1 -10 20 -0.0267 0.0000
-1 -10 21 1.8299 0.0000
-1 -10 22 -0.2435 0.0000
-1 -9 1 0.3542 0.0000
-1 -9 2 -6.3302 0.0000
-1 -9 3 -0.6905 0.0000
-1 -9 4 4.9132 0.0000
-1 -9 5 2.7496 0.0000
-1 -9 6 -10.6894 0.0000
-1 -9 7 1.3706 0.0000
-1 -9 8 3.3126 0.0000
-1 -9 9 -2.6862 0.0000
-1 -9 10 0.7730 0.0000
-1 -9 11 0.0127 0.0000
-1 -9 12 3.2959 0.0000
-1 -9 13 0.9654 0.0000
-1 -9 14 -2.3028 0.0000
-1 -9 15 1.3756 0.0000
-1 -9 16 -0.0825 0.0000
-1 -9 17 -0.5020 0.0000
-1 -9 18 0.4215 0.0000
-1 -9 19 -0.1771 0.0000
-1 -9 20 1.6750 0.0000
-1 -9 21 0.3147 0.0000
-1 -9 22 0.5873 0.0000
-1 -8 1 -5.3098 0.0000
-1 -8 2 4.0122 0.0000
-1 -8 3 8.4620 0.0000
-1 -8 4 5.4832 0.0000
-1 -8 5 -7.5174 0.0000
-1 -8 6 4.4775 0.0000
-1 -8 7 4.3792 0.0000
-1 -8 8 3.4119 0.0000
-1 -8 9 -4.2759 0.0000
-1 -8 10 2.3195 0.0000
-1 -8 11 3.3924 0.0000
-1 -8 12 0.8172 0.0000
-1 -8 13 -6.1360 0.0000
-1 -8 14 3.6320 0.0000
-1 -8 15 -0.3757 0.0000
-1 -8 16 -0.9558 0.0000
-1 -8 17 0.0675 0.0000
-1 -8 18 -1.4470 0.0000
-1 -8 19 -0.5942 0.0000
-1 -8 20 -0.2693 0.0000
-1 -8 21 -1.7100 0.0000
-1 -8 22 -0.6980 0.0000
-1 -7 1 -0.5969 0.0000
-1 -7 2 9.4921 0.0000
-1 -7 3 2.1649 0.0000
-1 -7 4 -4.6825 0.0000
-1 -7 5 -8.5038 0.0000
-1 -7 6 20.7284 0.0000
-1 -7 7 -7.9286 0.0000
-1 -7 8 -1.0380 0.0000
-1 -7 9 1.5263 0.0000
-1 -7 10 -3.8682 0.0000
-1 -7 11 4.8050 0.0000
-1 -7 12 -5.3709 0.0000
-1 -7 13 -1.6489 0.0000
-1 -7 14 4.8243 0.0000
-1 -7 15 -2.0921 0.0000
-1 -7 16 0.3943 0.0000
-1 -7 17 1.2352 0.0000
-1 -7 18 -0.8597 0.0000
-1 -7 19 0.0792 0.0000
-1 -7 20 -0.1831 0.0000
-1 -7 21 -1.5325 0.0000
-1 -7 22 -0.0725 0.0000
-1 -6 1 11.7172 0.0000
-1 -6 2 -9.9368 0.0000
-1 -6 3 -9.1304 0.0000
-1 -6 4 -11.7181 0.0000
-1 -6 5 -5.3017 0.0000
-1 -6 6 7.7807 0.0000
-1 -6 7 -23.2946 0.0000
-1 -6 8 -0.0071 0.0000
-1 -6 9 6.3993 0.0000
-1 -6 10 -12.2945 0.0000
-1 -6 11 2.2663 0.0000
-1 -6 12 -6.1607 0.0000
-1 -6 13 2.9366 0.0000
-1 -6 14 0.0331 0.0000
-1 -6 15 -3.2770 0.0000
-1 -6 16 -0.8161 0.0000
-1 -6 17 0.1744 0.0000
-1 -6 18 0.3828 0.0000
-1 -6 19 2.4855 0.0000
-1 -6 20 0.3002 0.0000
-1 -6 21 1.6688 0.0000
-1 -6 22 -0.0705 0.0000
-1 -5 1 11.3794 0.0000
-1 -5 2 -17.7376 0.0000
-1 -5 3 14.3674 0.0000
-1 -5 4 14.1963 0.0000
-1 -5 5 9.6542 0.0000
-1 -5 6 -7.9618 0.0000
-1 -5 7 1.0029 0.0000
-1 -5 8 0.7163 0.0000
-1 -5 9 10.8821 0.0000
-1 -5 10 -11.2130 0.0000
-1 -5 11 7.1830 0.0000
-1 -5 12 -1.8995 0.0000
-1 -5 13 3.6224 0.0000
-1 -5 14 -3.9783 0.0000
-1 -5 15 1.7493 0.0000
-1 -5 16 -1.2397 0.0000
-1 -5 17 0.2933 0.0000
-1 -5 18 -1.2133 0.0000
-1 -5 19 0.7556 0.0000
-1 -5 20 -0.9661 0.0000
-1 -5 21 2.4178 0.0000
-1 -5 22 -0.0038 0.0000
-1 -4 1 -19.3306 0.0000
-1 -4 2 -20.8029 0.0000
-1 -4 3 -4.1684 0.0000
-1 -4 4 12.4429 0.0000
-1 -4 5 -12.3118 0.0000
-1 -4 6 -8.9960 0.0000
-1 -4 7 32.3566 0.0000
-1 -4 8 -10.9374 0.0000
-1 -4 9 9.4108 0.0000
-1 -4 10 -0.3910 0.0000
-1 -4 11 7.3564 0.0000
-1 -4 12 7.5905 0.0000
-1 -4 13 -0.9690 0.0000
-1 -4 14 1.9859 0.0000
-1 -4 15 4.0190 0.0000
-1 -4 16 1.9134 0.0000
-1 -4 17 0.7621 0.0000
-1 -4 18 -1.1106 0.0000
-1 -4 19 -1.0380 0.0000
-1 -4 20 -2.3775 0.0000
-1 -4 21 -0.8772 0.0000
-1 -4 22 -0.4266 0.0000
-1 -3 1 37.8207 0.0000
-1 -3 2 27.7606 0.0000
-1 -3 3 -22.0452 0.0000
-1 -3 4 17.9499 0.0000
-1 -3 5 -28.2500 0.0000
-1 -3 6 2.3283 0.0000
-1 -3 7 22.4300 0.0000
-1 -3 8 -29.0017 0.0000
-1 -3 9 8.3017 0.0000
-1 -3 10 -0.0064 0.0000
-1 -3 11 -3.8701 0.0000
-1 -3 12 3.0250 0.0000
-1 -3 13 -7.6608 0.0000
-1 -3 14 5.3645 0.0000
-1 -3 15 -1.4326 0.0000
-1 -3 16 0.9417 0.0000
-1 -3 17 1.3310 0.0000
-1 -3 18 0.0409 0.0000
-1 -3 19 2.9458 0.0000
-1 -3 20 -0.5977 0.0000
-1 -3 21 -0.4893 0.0000
-1 -3 22 0.1422 0.0000
-1 -2 1 78.8809 0.0000
-1 -2 2 42.4543 0.0000
-1 -2 3 -27.9483 0.0000
-1 -2 4 37.1673 0.0000
-1 -2 5 -4.2746 0.0000
-1 -2 6 14.0485 0.0000
-1 -2 7 -6.5223 0.0000
-1 -2 8 -10.2500 0.0000
-1 -2 9 7.0350 0.0000
-1 -2 10 2.8881 0.0000
-1 -2 11 -10.9656 0.0000
-1 -2 12 -0.1829 0.0000
-1 -2 13 -5.6843 0.0000
-1 -2 14 1.5428 0.0000
-1 -2 15 -7.9736 0.0000
-1 -2 16 -0.8792 0.0000
-1 -2 17 -1.2101 0.0000
-1 -2 18 -1.0819 0.0000
-1 -2 19 1.0341 0.0000
-1 -2 20 0.5995 0.0000
-1 -2 21 0.8475 0.0000
-1 -2 22 1.3565 0.0000
-1 -1 1 -37.8152 0.0000
-1 -1 2 14.2053 0.0000
-1 -1 3 -34.4922 0.0000
-1 -1 4 26.0019 0.0000
-1 -1 5 14.1311 0.0000
-1 -1 6 -10.2112 0.0000
-1 -1 7 -15.2614 0.0000
-1 -1 8 10.6474 0.0000
-1 -1 9 -10.1915 0.0000
-1 -1 10 0.2595 0.0000
-1 -1 11 -10.7405 0.0000
-1 -1 12 4.4340 0.0000
-1 -1 13 2.7358 0.0000
-1 -1 14 -1.4875 0.0000
-1 -1 15 -0.9933 0.0000
-1 -1 16 1.3317 0.0000
-1 -1 17 0.9188 0.0000
-1 -1 18 -1.2175 0.0000
-1 -1 19 -0.3419 0.0000
-1 -1 20 -1.5224 0.0000
-1 -1 21 -0.5405 0.0000
-1 -1 22 -0.2276 0.0000
-1 0 1 -221.1792 0.0000
-1 0 2 -0.8904 0.0000
-1 0 3 -80.0034 0.0000
-1 0 4 -25.9660 0.0000
-1 0 5 -11.2387 0.0000
-1 0 6 -30.2769 0.0000
-1 0 7 7.8306 0.0000
-1 0 8 16.7991 0.0000
-1 0 9 -11.5342 0.0000
-1 0 10 9.9932 0.0000
-1 0 11 0.6760 0.0000
-1 0 12 7.3009 0.0000
-1 0 13 0.9097 0.0000
-1 0 14 -0.7156 0.0000
-1 0 15 5.0612 0.0000
-1 0 16 1.4380 0.0000
-1 0 17 1.0426 0.0000
-1 0 18 -0.1519 0.0000
-1 0 19 1.0714 0.0000
-1 0 20 0.7321 0.0000
-1 0 21 0.9135 0.0000
-1 1 1 -47.7255 0.0000
-1 1 2 153.1950 0.0000
-1 1 3 28.1045 0.0000
-1 1 4 13.4353 0.0000
-1 1 5 20.1130 0.0000
-1 1 6 -3.4431 0.0000
-1 1 7 25.5546 0.0000
-1 1 8 -2.9757 0.0000
-1 1 9 -3.9866 0.0000
-1 1 10 8.9530 0.0000
-1 1 11 4.9092 0.0000
-1 1 12 -1.2066 0.0000
-1 1 13 -0.5711 0.0000
-1 1 14 0.2273 0.0000
-1 1 15 3.7899 0.0000
-1 1 16 -2.5551 0.0000
-1 1 17 0.7659 0.0000
-1 1 18 -2.3706 0.0000
-1 1 19 -1.6667 0.0000
-1 1 20 0.5540 0.0000
-1 1 21 -2.2953 0.0000
-1 2 1 5.8467 0.0000
-1 2 2 34.2249 0.0000
-1 2 3 15.1674 0.0000
-1 2 4 -18.3965 0.0000
-1 2 5 28.4530 0.0000
-1 2 6 0.4795 0.0000
-1 2 7 14.5692 0.0000
-1 2 8 -16.1937 0.0000
-1 2 9 5.9163 0.0000
-1 2 10 -2.8275 0.0000
-1 2 11 -2.1304 0.0000
-1 2 12 -8.7193 0.0000
-1 2 13 0.4813 0.0000
-1 2 14 -3.0713 0.0000
-1 2 15 -2.0982 0.0000
-1 2 16 -6.4798 0.0000
-1 2 17 0.4978 0.0000
-1 2 18 -1.4009 0.0000
-1 2 19 -0.2679 0.0000
-1 2 20 4.2137 0.0000
-1 2 21 -2.8630 0.0000
-1 3 1 41.2035 0.0000
-1 3 3 -2.6655 0.0000
-1 3 4 -35.1638 0.0000
-1 3 5 9.1958 0.0000
-1 3 6 -22.3212 0.0000
-1 3 7 -10.7222 0.0000
-1 3 8 -14.4161 0.0000
-1 3 9 5.3132 0.0000
-1 3 10 -7.3152 0.0000
-1 3 11 -2.3363 0.0000
-1 3 12 -1.0545 0.0000
-1 3 13 1.9011 0.0000
-1 3 14 -0.1867 0.0000
-1 3 15 0.4335 0.0000
-1 3 16 0.0966 0.0000
-1 3 17 2.8317 0.0000
-1 3 18 1.1490 0.0000
-1 3 19 0.4760 0.0000
-1 3 20 0.7852 0.0000
-1 4 1 29.5962 0.0000
-1 4 2 -59.1052 0.0000
-1 4 3 27.1811 0.0000
-1 4 4 -2.8188 0.0000
-1 4 5 9.4616 0.0000
-1 4 6 -6.9910 0.0000
-1 4 7 1.2457 0.0000
-1 4 8 11.0325 0.0000
-1 4 9 3.5828 0.0000
-1 4 10 0.9435 0.0000
-1 4 11 1.2282 0.0000
-1 4 12 5.4675 0.0000
-1 4 13 -0.9738 0.0000
-1 4 14 0.9695 0.0000
-1 4 15 0.2282 0.0000
-1 4 16 1.8083 0.0000
-1 4 17 0.9841 0.0000
-1 4 18 0.8200 0.0000
-1 4 19 -0.9010 0.0000
-1 4 20 -1.4257 0.0000
-1 5 1 -1.9098 0.0000
-1 5 2 -4.5487 0.0000
-1 5 3 24.6609 0.0000
-1 5 4 3.6756 0.0000
-1 5 5 -7.1181 0.0000
-1 5 6 6.2021 0.0000
-1 5 7 -0.1193 0.0000
-1 5 8 12.7226 0.0000
-1 5 9 -7.4918 0.0000
-1 5 10 5.0473 0.0000
-1 5 11 0.1201 0.0000
-1 5 12 4.2248 0.0000
-1 5 13 -2.2358 0.0000
-1 5 14 2.5733 0.0000
-1 5 15 -0.1537 0.0000
-1 5 16 1.5287 0.0000
-1 5 17 -1.2104 0.0000
-1 5 18 -0.6793 0.0000
-1 5 19 0.1613 0.0000
-1 6 1 -9.7370 0.0000
-1 6 2 19.9518 0.0000
-1 6 3 -2.4181 0.0000
-1 6 4 -4.2883 0.0000
-1 6 5 -4.4054 0.0000
-1 6 6 11.8662 0.0000
-1 6 7 -3.9433 0.0000
-1 6 8 0.2424 0.0000
-1 6 9 -7.5507 0.0000
-1 6 10 1.9365 0.0000
-1 6 11 -1.1852 0.0000
-1 6 12 -2.1671 0.0000
-1 6 13 -1.7097 0.0000
-1 6 14 0.7756 0.0000
-1 6 15 -0.0592 0.0000
-1 6 16 0.4140 0.0000
-1 6 17 0.1631 0.0000
-1 6 18 -0.4057 0.0000
-1 7 1 4.1572 0.0000
-1 7 2 13.7976 0.0000
-1 7 3 -16.8098 0.0000
-1 7 4 -0.6760 0.0000
-1 7 5 3.5741 0.0000
-1 7 6 3.8425 0.0000
-1 7 7 -6.7496 0.0000
-1 7 8 -2.5111 0.0000
-1 7 9 1.4290 0.0000
-1 7 10 1.4851 0.0000
-1 7 11 0.0137 0.0000
-1 7 12 -0.9294 0.0000
-1 7 13 1.4925 0.0000
-1 7 14 0.1410 0.0000
-1 7 15 -0.3810 0.0000
-1 7 16 -1.9773 0.0000
-1 7 17 0.6790 0.0000
-1 7 18 -1.0684 0.0000
-1 8 1 -1.9845 0.0000
-1 8 2 -6.1133 0.0000
-1 8 3 -5.7173 0.0000
-1 8 4 6.4673 0.0000
-1 8 5 3.6061 0.0000
-1 8 6 -5.9875 0.0000
-1 8 7 -2.0246 0.0000
-1 8 8 0.4092 0.0000
-1 8 9 2.5934 0.0000
-1 8 10 -1.8089 0.0000
-1 8 11 -1.0811 0.0000
-1 8 12 1.1697 0.0000
-1 8 13 1.1039 0.0000
-1 8 14 -0.2815 0.0000
-1 8 15 -0.3865 0.0000
-1 8 16 -0.0256 0.0000
-1 8 17 2.1325 0.0000
-1 9 1 -8.0408 0.0000
-1 9 2 -12.0706 0.0000
-1 9 3 7.2700 0.0000
-1 9 4 -3.4750 0.0000
-1 9 5 -3.7996 0.0000
-1 9 6 -5.3175 0.0000
-1 9 7 4.9900 0.0000
-1 9 8 1.9969 0.0000
-1 9 9 -0.1636 0.0000
-1 9 10 -2.5185 0.0000
-1 9 11 -1.2214 0.0000
-1 9 12 -0.1926 0.0000
-1 9 13 -0.9026 0.0000
-1 9 14 -0.5383 0.0000
-1 9 15 -0.8703 0.0000
-1 9 16 -1.4345 0.0000
-1 10 1 1.4719 0.0000
-1 10 2 2.5713 0.0000
-1 10 3 11.4661 0.0000
-1 10 4 -5.7520 0.0000
-1 10 5 -0.7197 0.0000
-1 10 6 2.9147 0.0000
-1 10 7 1.0345 0.0000
-1 10 8 -0.5096 0.0000
-1 10 9 -1.2773 0.0000
-1 10 10 2.3428 0.0000
-1 10 11 1.1798 0.0000
-1 10 12 0.6102 0.0000
-1 10 13 -1.4854 0.0000
-1 10 14 1.0254 0.0000
-1 10 15 0.5140 0.0000
-1 11 1 4.1011 0.0000
-1 11 2 1.8454 0.0000
-1 11 3 -1.1670 0.0000
-1 11 4 -1.6113 0.0000
-1 11 5 2.4751 0.0000
-1 11 6 5.1650 0.0000
-1 11 7 -3.1588 0.0000
-1 11 8 -0.8955 0.0000
-1 11 9 -0.6585 0.0000
-1 11 10 -0.5477 0.0000
-1 11 11 -0.0230 0.0000
-1 11 12 -0.6789 0.0000
-1 11 13 -0.6398 0.0000
-1 11 14 0.2667 0.0000
-1 12 1 3.8100 0.0000
-1 12 2 -1.1862 0.0000
-1 12 3 -4.1884 0.0000
-1 12 4 4.0863 0.0000
-1 12 5 -0.9986 0.0000
-1 12 6 -0.0070 0.0000
-1 12 7 -2.5318 0.0000
-1 12 8 1.9621 0.0000
-1 12 9 1.3133 0.0000
-1 12 10 -0.8433 0.0000
-1 12 11 -0.7114 0.0000
-1 12 12 -0.8870 0.0000
-1 12 13 0.0916 0.0000
-1 13 1 -1.0908 0.0000
-1 13 2 -1.4386 0.0000
-1 13 3 -1.7686 0.0000
-1 13 4 3.9911 0.0000
-1 13 5 -3.2104 0.0000
-1 13 6 0.1224 0.0000
-1 13 7 -0.2361 0.0000
-1 13 8 1.3987 0.0000
-1 13 9 -0.1911 0.0000
-1 13 10 0.1498 0.0000
-1 13 11 0.3349 0.0000
-1 13 12 1.7642 0.0000
-1 14 1 -1.7068 0.0000
-1 14 2 2.2891 0.0000
-1 14 3 0.1178 0.0000
-1 14 4 -1.2581 0.0000
-1 14 5 -1.6950 0.0000
-1 14 6 -0.1069 0.0000
-1 14 7 1.5566 0.0000
-1 14 8 -0.5957 0.0000
-1 14 9 0.6029 0.0000
-1 14 10 -0.2957 0.0000
-1 14 11 0.5133 0.0000
-1 15 1 -0.5654 0.0000
-1 15 2 2.0559 0.0000
-1 15 3 -0.6103 0.0000
-1 15 4 -1.7502 0.0000
-1 15 5 0.1901 0.0000
-1 15 6 -0.0330 0.0000
-1 15 7 0.6903 0.0000
-1 15 8 -1.1640 0.0000
-1 15 9 0.9141 0.0000
-1 16 1 0.7879 0.0000
-1 16 2 1.3874 0.0000
-1 16 3 1.1865 0.0000
-1 16 4 3.9097 0.0000
-1 16 5 1.6999 0.0000
-1 16 6 1.0429 0.0000
-1 16 7 -0.3028 0.0000
-1 16 8 -1.2021 0.0000
-1 17 1 -0.0398 0.0000
-1 17 2 -2.6171 0.0000
-1 17 3 -0.8877 0.0000
-1 17 4 0.1469 0.0000
-1 17 5 -0.8872 0.0000
-1 17 6 -0.4999 0.0000
-1 18 1 -2.6177 0.0000
-1 18 2 0.0902 0.0000
-1 18 3 -1.2013 0.0000
-1 18 4 -0.4908 0.0000
-1 19 1 0.0110 0.0000
0 -19 1 -0.8839 0.0000
0 -19 2 -1.2767 0.0000
0 -19 3 -0.8629 0.0000
0 -19 4 -1.0311 0.0000
0 -19 5 0.1741 0.0000
0 -19 6 0.0333 0.0000
0 -19 7 0.0183 0.0000
0 -19 8 -1.0489 0.0000
0 -19 9 -0.0408 0.0000
0 -19 10 0.3938 0.0000
0 -19 11 0.5436 0.0000
0 -19 12 0.1772 0.0000
0 -19 13 0.7957 0.0000
0 -18 1 1.2531 0.0000
0 -18 2 0.6642 0.0000
0 -18 3 -0.3310 0.0000
0 -18 4 0.6801 0.0000
0 -18 5 0.8751 0.0000
0 -18 6 -0.5658 0.0000
0 -18 7 0.3414 0.0000
0 -18 8 -0.4076 0.0000
0 -18 9 0.7640 0.0000
0 -18 10 -0.5674 0.0000
0 -18 11 -1.0411 0.0000
0 -18 12 -0.9002 0.0000
0 -18 13 -0.2175 0.0000
0 -18 14 -0.8005 0.0000
0 -18 15 0.8228 0.0000
0 -17 1 -0.8419 0.0000
0 -17 2 -1.5242 0.0000
0 -17 3 0.5032 0.0000
0 -17 4 0.0193 0.0000
0 -17 5 -0.1772 0.0000
0 -17 6 -1.4436 0.0000
0 -17 7 0.9802 0.0000
0 -17 8 -0.5266 0.0000
0 -17 9 2.0169 0.0000
0 -17 10 0.6079 0.0000
0 -17 11 0.0540 0.0000
0 -17 12 0.3651 0.0000
0 -17 13 1.3050 0.0000
0 -17 14 0.5366 0.0000
0 -17 15 2.0258 0.0000
0 -17 16 -0.3020 0.0000
0 -17 17 0.7730 0.0000
0 -16 1 0.4503 0.0000
0 -16 2 1.2614 0.0000
0 -16 3 2.4219 0.0000
0 -16 4 -1.8656 0.0000
0 -16 5 0.2759 0.0000
0 -16 6 -0.5140 0.0000
0 -16 7 0.2469 0.0000
0 -16 8 -1.6531 0.0000
0 -16 9 1.2775 0.0000
0 -16 10 -0.1647 0.0000
0 -16 11 -1.4668 0.0000
0 -16 12 0.3848 0.0000
0 -16 13 -0.2220 0.0000
0 -16 14 0.3118 0.0000
0 -16 15 -0.2468 0.0000
0 -16 16 -0.4429 0.0000
0 -16 17 -0.0069 0.0000
0 -16 18 0.3904 0.0000
0 -15 1 -1.5301 0.0000
0 -15 2 -0.7734 0.0000
0 -15 3 -1.4008 0.0000
0 -15 4 -3.2314 0.0000
0 -15 5 2.1365 0.0000
0 -15 6 -0.0528 0.0000
0 -15 7 -0.9559 0.0000
0 -15 8 -0.6759 0.0000
0 -15 9 -0.5737 0.0000
0 -15 10 0.2215 0.0000
0 -15 11 0.4037 0.0000
0 -15 12 1.0232 0.0000
0 -15 13 0.3919 0.0000
0 -15 14 -0.4636 0.0000
0 -15 15 -0.4324 0.0000
0 -15 16 -0.3411 0.0000
0 -15 17 -1.1618 0.0000
0 -15 18 -1.3983 0.0000
0 -15 19 -0.5167 0.0000
0 -14 1 2.2005 0.0000
0 -14 2 -1.5784 0.0000
0 -14 3 -1.4070 0.0000
0 -14 4 0.5486 0.0000
0 -14 5 2.1377 0.0000
0 -14 6 -1.4077 0.0000
0 -14 7 1.1596 0.0000
0 -14 8 2.2839 0.0000
0 -14 9 -1.0437 0.0000
0 -14 10 0.6006 0.0000
0 -14 11 0.4430 0.0000
0 -14 12 -0.8924 0.0000
0 -14 13 1.3567 0.0000
0 -14 14 -1.9311 0.0000
0 -14 15 0.2587 0.0000
0 -14 16 0.0806 0.0000
0 -14 17 -0.2835 0.0000
0 -14 18 0.8508 0.0000
0 -14 19 1.1929 0.0000
0 -14 20 0.6190 0.0000
0 -13 1 1.4625 0.0000
0 -13 2 -3.4301 0.0000
0 -13 3 4.3903 0.0000
0 -13 4 3.1686 0.0000
0 -13 5 -0.0191 0.0000
0 -13 6 -3.4048 0.0000
0 -13 7 2.0842 0.0000
0 -13 8 0.8800 0.0000
0 -13 9 -2.7332 0.0000
0 -13 10 0.5086 0.0000
0 -13 11 -0.8696 0.0000
0 -13 12 -0.2968 0.0000
0 -13 13 0.5488 0.0000
0 -13 14 -3.1952 0.0000
0 -13 15 1.7037 0.0000
0 -13 16 -0.2829 0.0000
0 -13 17 -0.7022 0.0000
0 -13 18 -0.7502 0.0000
0 -13 19 -0.5533 0.0000
0 -13 20 -1.1546 0.0000
0 -13 21 1.0260 0.0000
0 -12 1 -2.8260 0.0000
0 -12 2 -0.8558 0.0000
0 -12 3 4.7677 0.0000
0 -12 4 -1.0236 0.0000
0 -12 5 -2.8415 0.0000
0 -12 6 -0.4291 0.0000
0 -12 7 4.7618 0.0000
0 -12 8 -1.5893 0.0000
0 -12 9 -1.2113 0.0000
0 -12 10 -0.1795 0.0000
0 -12 11 0.3780 0.0000
0 -12 12 -0.8771 0.0000
0 -12 13 -1.0207 0.0000
0 -12 14 -1.9831 0.0000
0 -12 15 2.1287 0.0000
0 -12 16 -0.5872 0.0000
0 -12 17 1.1473 0.0000
0 -12 18 -0.1104 0.0000
0 -12 19 0.7496 0.0000
0 -12 20 -1.1507 0.0000
0 -12 21 -0.0279 0.0000
0 -11 1 -0.3008 0.0000
0 -11 2 2.6972 0.0000
0 -11 3 -0.2014 0.0000
0 -11 4 -6.1439 0.0000
0 -11 5 0.0617 0.0000
0 -11 6 2.7333 0.0000
0 -11 7 0.6682 0.0000
0 -11 8 -2.4933 0.0000
0 -11 9 2.7034 0.0000
0 -11 10 2.2106 0.0000
0 -11 11 2.3582 0.0000
0 -11 12 -1.8985 0.0000
0 -11 13 2.0874 0.0000
0 -11 14 4.2882 0.0000
0 -11 15 -0.9249 0.0000
0 -11 16 0.8499 0.0000
0 -11 17 0.2035 0.0000
0 -11 18 0.2971 0.0000
0 -11 19 2.5767 0.0000
0 -11 20 -1.0948 0.0000
0 -11 21 1.5221 0.0000
0 -10 1 6.1100 0.0000
0 -10 2 0.5663 0.0000
0 -10 3 -4.6397 0.0000
0 -10 4 -3.7398 0.0000
0 -10 5 7.8691 0.0000
0 -10 6 -0.9738 0.0000
0 -10 7 -6.2848 0.0000
0 -10 8 0.7431 0.0000
0 -10 9 1.7102 0.0000
0 -10 10 0.1486 0.0000
0 -10 11 0.8139 0.0000
0 -10 12 -3.2439 0.0000
0 -10 13 4.5013 0.0000
0 -10 14 0.3276 0.0000
0 -10 15 -3.0361 0.0000
0 -10 16 0.5698 0.0000
0 -10 17 -1.0170 0.0000
0 -10 18 0.4317 0.0000
0 -10 19 0.0475 0.0000
0 -10 20 -1.2377 0.0000
0 -10 21 0.8966 0.0000
0 -10 22 0.3370 0.0000
0 -9 1 3.8599 0.0000
0 -9 2 -1.5635 0.0000
0 -9 3 0.1049 0.0000
0 -9 4 7.0303 0.0000
0 -9 5 6.7806 0.0000
0 -9 6 -4.1637 0.0000
0 -9 7 -2.5304 0.0000
0 -9 8 7.9713 0.0000
0 -9 9 -5.0632 0.0000
0 -9 10 -1.9873 0.0000
0 -9 11 -2.7189 0.0000
0 -9 12 1.3932 0.0000
0 -9 13 -1.9309 0.0000
0 -9 14 -1.8980 0.0000
0 -9 15 -0.4844 0.0000
0 -9 16 0.6766 0.0000
0 -9 17 -0.5848 0.0000
0 -9 18 -0.3322 0.0000
0 -9 19 -2.0759 0.0000
0 -9 20 -0.5842 0.0000
0 -9 21 -0.7072 0.0000
0 -9 22 -0.8405 0.0000
0 -8 1 -12.2206 0.0000
0 -8 2 0.6231 0.0000
0 -8 3 1.2268 0.0000
0 -8 4 6.6962 0.0000
0 -8 5 -11.4360 0.0000
0 -8 6 0.9113 0.0000
0 -8 7 4.2797 0.0000
0 -8 8 1.3210 0.0000
0 -8 9 -3.4144 0.0000
0 -8 10 -0.7581 0.0000
0 -8 11 2.4275 0.0000
0 -8 12 5.0493 0.0000
0 -8 13 -5.9762 0.0000
0 -8 14 1.3954 0.0000
0 -8 15 1.3543 0.0000
0 -8 16 -0.4865 0.0000
0 -8 17 1.4991 0.0000
0 -8 18 -0.6711 0.0000
0 -8 19 -0.5781 0.0000
0 -8 20 1.0945 0.0000
0 -8 21 -0.7320 0.0000
0 -8 22 -0.3077 0.0000
0 -7 1 -8.0852 0.0000
0 -7 2 6.6149 0.0000
0 -7 3 -5.4361 0.0000
0 -7 4 -2.9925 0.0000
0 -7 5 -24.8952 0.0000
0 -7 6 10.8266 0.0000
0 -7 7 -4.9473 0.0000
0 -7 8 -12.1012 0.0000
0 -7 9 6.1724 0.0000
0 -7 10 -4.2172 0.0000
0 -7 11 1.7644 0.0000
0 -7 12 -1.1313 0.0000
0 -7 13 -4.7571 0.0000
0 -7 14 3.8508 0.0000
0 -7 15 -1.1421 0.0000
0 -7 16 -1.6011 0.0000
0 -7 17 0.7912 0.0000
0 -7 18 0.4728 0.0000
0 -7 19 1.5937 0.0000
0 -7 20 2.7280 0.0000
0 -7 21 0.4183 0.0000
0 -7 22 0.4623 0.0000
0 -6 1 22.4887 0.0000
0 -6 2 0.4998 0.0000
0 -6 3 2.0558 0.0000
0 -6 4 7.5769 0.0000
0 -6 5 1.8260 0.0000
0 -6 6 18.6384 0.0000
0 -6 7 -6.1725 0.0000
0 -6 8 -7.4545 0.0000
0 -6 9 16.6604 0.0000
0 -6 10 -7.5974 0.0000
0 -6 11 2.9622 0.0000
0 -6 12 -3.2882 0.0000
0 -6 13 2.9396 0.0000
0 -6 14 3.0747 0.0000
0 -6 15 0.5651 0.0000
0 -6 16 -0.8640 0.0000
0 -6 17 0.9628 0.0000
0 -6 18 -2.0478 0.0000
0 -6 19 1.3692 0.0000
0 -6 20 -1.6043 0.0000
0 -6 21 0.9989 0.0000
0 -6 22 0.0573 0.0000
0 -5 1 7.4192 0.0000
0 -5 2 -32.4475 0.0000
0 -5 3 -4.8042 0.0000
0 -5 4 0.9530 0.0000
0 -5 5 17.1917 0.0000
0 -5 6 -7.4384 0.0000
0 -5 7 11.8956 0.0000
0 -5 8 3.0568 0.0000
0 -5 9 13.7778 0.0000
0 -5 10 -4.0073 0.0000
0 -5 11 6.1019 0.0000
0 -5 12 2.7734 0.0000
0 -5 13 6.0664 0.0000
0 -5 14 -1.4854 0.0000
0 -5 15 1.6252 0.0000
0 -5 16 1.1550 0.0000
0 -5 17 1.1541 0.0000
0 -5 18 -0.5985 0.0000
0 -5 19 0.1807 0.0000
0 -5 20 -2.7921 0.0000
0 -5 21 -0.2054 0.0000
0 -5 22 0.1499 0.0000
0 -4 1 -5.2091 0.0000
0 -4 2 13.7658 0.0000
0 -4 3 -0.3256 0.0000
0 -4 4 6.8507 0.0000
0 -4 5 4.7631 0.0000
0 -4 6 -38.8442 0.0000
0 -4 7 22.9694 0.0000
0 -4 8 -12.4688 0.0000
0 -4 9 -7.2672 0.0000
0 -4 10 -2.8165 0.0000
0 -4 11 -5.4271 0.0000
0 -4 12 2.6009 0.0000
0 -4 13 -4.5126 0.0000
0 -4 14 -4.0979 0.0000
0 -4 15 -0.2376 0.0000
0 -4 16 -0.8717 0.0000
0 -4 17 -0.2943 0.0000
0 -4 18 -0.4156 0.0000
0 -4 19 1.0606 0.0000
0 -4 20 -0.3330 0.0000
0 -4 21 0.2825 0.0000
0 -4 22 -0.5556 0.0000
0 -3 1 -3.8416 0.0000
0 -3 2 68.3893 0.0000
0 -3 3 -22.0137 0.0000
0 -3 4 19.3118 0.0000
0 -3 5 -6.1558 0.0000
0 -3 6 -19.7271 0.0000
0 -3 7 22.6874 0.0000
0 -3 8 -20.6981 0.0000
0 -3 9 -7.0217 0.0000
0 -3 10 6.4112 0.0000
0 -3 11 -9.6029 0.0000
0 -3 12 1.2450 0.0000
0 -3 13 -9.7473 0.0000
0 -3 14 0.4610 0.0000
0 -3 15 -1.9725 0.0000
0 -3 16 -2.4046 0.0000
0 -3 17 -0.0226 0.0000
0 -3 18 -1.1835 0.0000
0 -3 19 0.5598 0.0000
0 -3 20 0.9602 0.0000
0 -3 21 0.2709 0.0000
0 -3 22 -0.3843 0.0000
0 -2 1 -10.5713 0.0000
0 -2 2 31.1790 0.0000
0 -2 3 -48.1942 0.0000
0 -2 4 13.1561 0.0000
0 -2 5 1.6910 0.0000
0 -2 6 14.3978 0.0000
0 -2 7 -2.1875 0.0000
0 -2 8 -3.8074 0.0000
0 -2 9 -0.9495 0.0000
0 -2 10 12.1260 0.0000
0 -2 11 -6.7417 0.0000
0 -2 12 4.7938 0.0000
0 -2 13 0.9154 0.0000
0 -2 14 6.7519 0.0000
0 -2 15 -0.9562 0.0000
0 -2 16 0.9143 0.0000
0 -2 17 2.3770 0.0000
0 -2 18 0.2495 0.0000
0 -2 19 -0.0750 0.0000
0 -2 20 -0.4243 0.0000
0 -2 21 -1.0212 0.0000
0 -2 22 -0.6672 0.0000
0 -1 1 -75.7454 0.0000
0 -1 2 -45.2955 0.0000
0 -1 3 -57.4752 0.0000
0 -1 4 -30.6408 0.0000
0 -1 5 1.3836 0.0000
0 -1 6 1.3746 0.0000
0 -1 7 -17.2657 0.0000
0 -1 8 23.1681 0.0000
0 -1 9 2.3729 0.0000
0 -1 10 9.4381 0.0000
0 -1 11 -1.8341 0.0000
0 -1 12 3.8389 0.0000
0 -1 13 5.8996 0.0000
0 -1 14 -0.1807 0.0000
0 -1 15 0.6486 0.0000
0 -1 16 0.4683 0.0000
0 -1 17 1.1704 0.0000
0 -1 18 -1.2476 0.0000
0 -1 19 0.3895 0.0000
0 -1 20 -0.1545 0.0000
0 -1 21 -0.0053 0.0000
0 0 1 -16.0827 0.0000
0 0 2 95.0834 0.0000
0 0 3 70.6464 0.0000
0 0 4 18.3149 0.0000
0 0 5 32.8182 0.0000
0 0 6 -6.1126 0.0000
0 0 7 -3.4660 0.0000
0 0 8 19.5642 0.0000
0 0 9 -12.6215 0.0000
0 0 10 -1.6548 0.0000
0 0 11 0.2342 0.0000
0 0 12 -0.3334 0.0000
0 0 13 0.0677 0.0000
0 0 14 -5.6910 0.0000
0 0 15 1.5459 0.0000
0 0 16 -0.9213 0.0000
0 0 17 -0.4086 0.0000
0 0 18 -1.9589 0.0000
0 0 19 -1.1947 0.0000
0 0 20 -1.1290 0.0000
0 0 21 0.1655 0.0000
0 1 0 44.6666 0.0000
0 1 1 -125.6691 0.0000
0 1 2 17.8262 0.0000
0 1 3 26.1486 0.0000
0 1 4 -29.4427 0.0000
0 1 5 12.5293 0.0000
0 1 6 -16.0470 0.0000
0 1 7 11.0672 0.0000
0 1 8 -3.1377 0.0000
0 1 9 -12.4601 0.0000
0 1 10 -3.5516 0.0000
0 1 11 2.2915 0.0000
0 1 12 -7.3404 0.0000
0 1 13 -1.4728 0.0000
0 1 14 -5.0226 0.0000
0 1 15 2.5680 0.0000
0 1 16 -4.1267 0.0000
0 1 17 0.6942 0.0000
0 1 18 0.5080 0.0000
0 1 19 -0.4063 0.0000
0 1 20 3.6646 0.0000
0 1 21 0.9333 0.0000
0 2 0 -78.8622 0.0000
0 2 1 -18.4467 0.0000
0 2 2 -24.4596 0.0000
0 2 3 -2.1576 0.0000
0 2 4 -47.8472 0.0000
0 2 5 2.5344 0.0000
0 2 6 -15.2096 0.0000
0 2 7 3.2563 0.0000
0 2 8 -16.2135 0.0000
0 2 9 1.7330 0.0000
0 2 10 2.3738 0.0000
0 2 11 3.2439 0.0000
0 2 12 -3.3775 0.0000
0 2 13 4.5324 0.0000
0 2 14 1.5222 0.0000
0 2 15 4.9721 0.0000
0 2 16 -1.1441 0.0000
0 2 17 1.7865 0.0000
0 2 18 1.7353 0.0000
0 2 19 -1.3835 0.0000
0 2 20 3.4869 0.0000
0 3 0 -47.0389 0.0000
0 3 1 89.1630 0.0000
0 3 2 -32.9131 0.0000
0 3 3 14.9308 0.0000
0 3 4 -8.7456 0.0000
0 3 5 21.3763 0.0000
0 3 6 3.2940 0.0000
0 3 7 5.1187 0.0000
0 3 8 -0.0563 0.0000
0 3 9 12.1271 0.0000
0 3 10 2.5993 0.0000
0 3 11 -0.0578 0.0000
0 3 12 2.8952 0.0000
0 3 13 2.7805 0.0000
0 3 14 0.4949 0.0000
0 3 15 0.0195 0.0000
0 3 16 -0.6841 0.0000
0 3 17 0.5846 0.0000
0 3 18 1.6446 0.0000
0 3 19 -0.1615 0.0000
0 3 20 -1.6325 0.0000
0 4 0 9.4861 0.0000
0 4 1 59.2985 0.0000
0 4 2 -34.0193 0.0000
0 4 3 16.3594 0.0000
0 4 4 12.6598 0.0000
0 4 5 3.0121 0.0000
0 4 6 1.7180 0.0000
0 4 7 -7.2430 0.0000
0 4 8 8.0681 0.0000
0 4 9 -0.8918 0.0000
0 4 10 -0.6272 0.0000
0 4 11 -3.6548 0.0000
0 4 12 4.5724 0.0000
0 4 13 -2.1903 0.0000
0 4 14 -0.0046 0.0000
0 4 15 -1.8434 0.0000
0 4 16 0.8058 0.0000
0 4 17 -0.7072 0.0000
0 4 18 0.4995 0.0000
0 4 19 -1.1109 0.0000
0 5 0 2.8685 0.0000
0 5 1 -13.9887 0.0000
0 5 2 -14.0743 0.0000
0 5 3 6.7564 0.0000
0 5 4 8.0283 0.0000
0 5 5 -15.4299 0.0000
0 5 6 5.4548 0.0000
0 5 7 -7.1693 0.0000
0 5 8 7.6399 0.0000
0 5 9 -8.9475 0.0000
0 5 10 -0.0539 0.0000
0 5 11 -2.6961 0.0000
0 5 12 1.2534 0.0000
0 5 13 -4.5629 0.0000
0 5 14 0.1957 0.0000
0 5 15 -0.6202 0.0000
0 5 16 1.6890 0.0000
0 5 17 -0.4495 0.0000
0 5 18 -1.1941 0.0000
0 5 19 -1.7472 0.0000
0 6 0 -5.9280 0.0000
0 6 1 -18.3178 0.0000
0 6 2 16.1618 0.0000
0 6 3 -1.1728 0.0000
0 6 4 -5.1943 0.0000
0 6 5 -12.1251 0.0000
0 6 6 7.8150 0.0000
0 6 7 -2.9049 0.0000
0 6 8 0.3293 0.0000
0 6 9 -4.0181 0.0000
0 6 10 1.9021 0.0000
0 6 11 2.0737 0.0000
0 6 12 -0.5841 0.0000
0 6 13 -0.4746 0.0000
0 6 14 0.9671 0.0000
0 6 15 0.6913 0.0000
0 6 16 -0.6074 0.0000
0 6 17 -0.4323 0.0000
0 6 18 -0.5117 0.0000
0 7 0 -8.9763 0.0000
0 7 1 -4.1979 0.0000
0 7 2 12.6024 0.0000
0 7 3 -11.0106 0.0000
0 7 4 -3.9253 0.0000
0 7 5 3.8223 0.0000
0 7 6 5.7762 0.0000
0 7 7 -1.3144 0.0000
0 7 8 -2.8673 0.0000
0 7 9 1.3429 0.0000
0 7 10 0.8352 0.0000
0 7 11 0.4856 0.0000
0 7 12 -1.6125 0.0000
0 7 13 1.2049 0.0000
0 7 14 -0.0393 0.0000
0 7 15 -0.4116 0.0000
0 7 16 -1.6887 0.0000
0 7 17 0.8457 0.0000
0 8 0 5.1436 0.0000
0 8 1 5.5194 0.0000
0 8 2 -6.9927 0.0000
0 8 3 -6.4201 0.0000
0 8 4 2.0152 0.0000
0 8 5 5.8653 0.0000
0 8 6 -3.0596 0.0000
0 8 7 -0.6337 0.0000
0 8 8 -0.0809 0.0000
0 8 9 2.5389 0.0000
0 8 10 -1.8423 0.0000
0 8 11 -2.2180 0.0000
0 8 12 -1.7140 0.0000
0 8 13 0.8196 0.0000
0 8 14 -0.5989 0.0000
0 8 15 -0.8245 0.0000
0 8 16 -1.8020 0.0000
0 9 0 9.6999 0.0000
0 9 1 5.9097 0.0000
0 9 2 -7.1222 0.0000
0 9 3 11.4533 0.0000
0 9 4 4.4209 0.0000
0 9 5 -0.0498 0.0000
0 9 6 -4.2197 0.0000
0 9 7 0.9862 0.0000
0 9 8 1.7506 0.0000
0 9 9 0.9786 0.0000
0 9 10 1.1098 0.0000
0 9 11 1.2037 0.0000
0 9 12 1.3192 0.0000
0 9 13 0.2914 0.0000
0 9 14 0.2313 0.0000
0 9 15 2.2801 0.0000
0 10 0 -3.1808 0.0000
0 10 1 -1.0938 0.0000
0 10 2 -1.2561 0.0000
0 10 3 7.6382 0.0000
0 10 4 -2.7068 0.0000
0 10 5 -4.1039 0.0000
0 10 6 3.0047 0.0000
0 10 7 0.8169 0.0000
0 10 8 0.3741 0.0000
0 10 9 -2.8390 0.0000
0 10 10 -0.2160 0.0000
0 10 11 -0.8828 0.0000
0 10 12 0.3978 0.0000
0 10 13 -1.2269 0.0000
0 10 14 -0.3814 0.0000
0 11 0 -6.8105 0.0000
0 11 1 0.6914 0.0000
0 11 2 2.6266 0.0000
0 11 3 -3.3402 0.0000
0 11 4 -2.2539 0.0000
0 11 5 -1.2517 0.0000
0 11 6 2.9522 0.0000
0 11 7 -0.9364 0.0000
0 11 8 -0.6258 0.0000
0 11 9 1.4076 0.0000
0 11 10 -0.0917 0.0000
0 11 11 0.7640 0.0000
0 11 12 -0.4480 0.0000
0 11 13 0.8384 0.0000
0 12 0 -0.5248 0.0000
0 12 1 1.8681 0.0000
0 12 2 -0.0749 0.0000
0 12 3 -6.5799 0.0000
0 12 4 2.8113 0.0000
0 12 5 0.4931 0.0000
0 12 6 -0.2761 0.0000
0 12 7 -2.0741 0.0000
0 12 8 0.0693 0.0000
0 12 9 1.1518 0.0000
0 12 10 0.7068 0.0000
0 12 11 0.7379 0.0000
0 12 12 0.3497 0.0000
0 13 0 2.7791 0.0000
0 13 1 -0.0530 0.0000
0 13 2 0.4657 0.0000
0 13 3 -1.7494 0.0000
0 13 4 3.3853 0.0000
0 13 5 -1.2432 0.0000
0 13 6 -0.4538 0.0000
0 13 7 0.3111 0.0000
0 13 8 1.3172 0.0000
0 13 9 0.6010 0.0000
0 13 10 -0.0777 0.0000
0 13 11 -1.2072 0.0000
0 14 0 0.5017 0.0000
0 14 1 -1.5659 0.0000
0 14 2 1.0623 0.0000
0 14 3 3.5845 0.0000
0 14 4 -0.8859 0.0000
0 14 5 0.3326 0.0000
0 14 6 -1.0602 0.0000
0 14 7 1.0228 0.0000
0 14 8 -0.5707 0.0000
0 14 9 -0.2386 0.0000
0 14 10 -0.1095 0.0000
0 15 0 -1.3656 0.0000
0 15 1 -2.9875 0.0000
0 15 2 1.6705 0.0000
0 15 3 1.4686 0.0000
0 15 4 0.1676 0.0000
0 15 5 1.3389 0.0000
0 15 6 -0.2112 0.0000
0 15 7 0.2252 0.0000
0 15 8 -1.8329 0.0000
0 16 0 1.6878 0.0000
0 16 1 0.2927 0.0000
0 16 2 -0.3002 0.0000
0 16 3 -3.0691 0.0000
0 16 4 -0.9191 0.0000
0 16 5 -0.6145 0.0000
0 16 6 -0.2746 0.0000
0 16 7 0.5026 0.0000
0 17 0 -0.5239 0.0000
0 17 1 0.6058 0.0000
0 17 2 -1.9864 0.0000
0 17 3 -0.7115 0.0000
0 17 4 -0.0704 0.0000
0 17 5 0.4092 0.0000
0 18 0 2.5811 0.0000
0 18 1 -0.1122 0.0000
0 18 2 0.9939 0.0000
1 -20 3 -0.1125 0.0000
1 -20 4 -0.1257 0.0000
1 -20 5 -0.7644 0.0000
1 -20 6 0.0301 0.0000
1 -20 7 0.7519 0.0000
1 -20 8 0.1597 0.0000
1 -20 9 0.2156 0.0000
1 -20 10 -0.0773 0.0000
1 -19 0 0.3049 0.0000
1 -19 1 1.6177 0.0000
1 -19 2 0.8600 0.0000
1 -19 3 -0.1235 0.0000
1 -19 4 -0.6954 0.0000
1 -19 5 -0.1354 0.0000
1 -19 6 0.4178 0.0000
1 -19 7 0.5304 0.0000
1 -19 8 -0.0306 0.0000
1 -19 9 0.5285 0.0000
1 -19 10 -0.1401 0.0000
1 -19 11 -0.6651 0.0000
1 -19 12 -0.8178 0.0000
1 -19 13 0.4354 0.0000
1 -19 14 0.4060 0.0000
1 -18 0 -0.0487 0.0000
1 -18 1 0.0743 0.0000
1 -18 2 -0.1263 0.0000
1 -18 3 -1.2289 0.0000
1 -18 4 0.0357 0.0000
1 -18 5 1.2396 0.0000
1 -18 6 -0.5573 0.0000
1 -18 7 0.3806 0.0000
1 -18 8 -0.2400 0.0000
1 -18 9 1.1016 0.0000
1 -18 10 0.3139 0.0000
1 -18 11 1.8695 0.0000
1 -18 12 0.5922 0.0000
1 -18 13 2.2326 0.0000
1 -18 14 0.1319 0.0000
1 -18 15 1.1280 0.0000
1 -18 16 0.4050 0.0000
1 -17 0 1.7484 0.0000
1 -17 1 0.6894 0.0000
1 -17 2 -0.8891 0.0000
1 -17 3 0.6498 0.0000
1 -17 4 0.5537 0.0000
1 -17 5 0.3817 0.0000
1 -17 6 -1.2390 0.0000
1 -17 7 0.2496 0.0000
1 -17 8 -1.6369 0.0000
1 -17 9 -0.4996 0.0000
1 -17 10 -0.4596 0.0000
1 -17 11 -0.2071 0.0000
1 -17 12 -2.6997 0.0000
1 -17 13 -0.5120 0.0000
1 -17 14 -1.1841 0.0000
1 -17 15 0.2281 0.0000
1 -17 16 -0.8547 0.0000
1 -17 17 -1.7246 0.0000
1 -16 0 -0.2329 0.0000
1 -16 1 -1.7983 0.0000
1 -16 2 -1.5727 0.0000
1 -16 3 1.8214 0.0000
1 -16 4 -2.3441 0.0000
1 -16 5 -0.8288 0.0000
1 -16 6 0.0999 0.0000
1 -16 7 -0.2681 0.0000
1 -16 8 -0.1434 0.0000
1 -16 9 0.0961 0.0000
1 -16 10 2.3409 0.0000
1 -16 11 -0.1220 0.0000
1 -16 12 0.1841 0.0000
1 -16 13 0.0566 0.0000
1 -16 14 -0.2198 0.0000
1 -16 15 -0.8841 0.0000
1 -16 16 -1.6473 0.0000
1 -16 17 -1.0117 0.0000
1 -16 18 -0.3660 0.0000
1 -15 0 -1.8250 0.0000
1 -15 1 0.6140 0.0000
1 -15 2 2.4246 0.0000
1 -15 3 1.1884 0.0000
1 -15 4 -1.2812 0.0000
1 -15 5 1.4970 0.0000
1 -15 6 2.2083 0.0000
1 -15 7 0.4741 0.0000
1 -15 8 1.4237 0.0000
1 -15 9 -0.0454 0.0000
1 -15 10 -0.3155 0.0000
1 -15 11 -0.4672 0.0000
1 -15 12 0.0159 0.0000
1 -15 13 0.8085 0.0000
1 -15 14 0.1583 0.0000
1 -15 15 0.5900 0.0000
1 -15 16 0.8162 0.0000
1 -15 17 2.2490 0.0000
1 -15 18 0.3435 0.0000
1 -15 19 0.1405 0.0000
1 -14 0 -0.0622 0.0000
1 -14 1 3.3590 0.0000
1 -14 2 -0.2867 0.0000
1 -14 3 -2.0539 0.0000
1 -14 4 1.1193 0.0000
1 -14 5 1.1930 0.0000
1 -14 6 -0.3588 0.0000
1 -14 7 -1.9806 0.0000
1 -14 8 1.1092 0.0000
1 -14 9 -1.3074 0.0000
1 -14 10 -1.5104 0.0000
1 -14 11 -0.2081 0.0000
1 -14 12 -1.9237 0.0000
1 -14 13 0.4584 0.0000
1 -14 14 -1.4146 0.0000
1 -14 15 -0.6522 0.0000
1 -14 16 0.7937 0.0000
1 -14 17 -0.0774 0.0000
1 -14 18 -1.5406 0.0000
1 -14 19 0.5560 0.0000
1 -14 20 -1.2279 0.0000
1 -13 0 2.0425 0.0000
1 -13 1 1.7576 0.0000
1 -13 2 -4.9651 0.0000
1 -13 3 0.0109 0.0000
1 -13 4 2.8452 0.0000
1 -13 5 -0.1340 0.0000
1 -13 6 -2.4119 0.0000
1 -13 7 -0.7813 0.0000
1 -13 8 3.0936 0.0000
1 -13 9 -1.9205 0.0000
1 -13 10 -0.1769 0.0000
1 -13 11 0.7698 0.0000
1 -13 12 -0.5611 0.0000
1 -13 13 3.4742 0.0000
1 -13 14 -2.6617 0.0000
1 -13 15 0.8397 0.0000
1 -13 16 0.6647 0.0000
1 -13 17 -0.0539 0.0000
1 -13 18 0.1847 0.0000
1 -13 19 1.0113 0.0000
1 -13 20 -1.0339 0.0000
1 -12 0 -0.2639 0.0000
1 -12 1 -2.7590 0.0000
1 -12 2 -2.2206 0.0000
1 -12 3 4.4821 0.0000
1 -12 4 0.8888 0.0000
1 -12 5 -1.3579 0.0000
1 -12 6 -1.9663 0.0000
1 -12 7 3.9147 0.0000
1 -12 8 1.6732 0.0000
1 -12 9 -0.5305 0.0000
1 -12 10 1.7613 0.0000
1 -12 11 2.7432 0.0000
1 -12 12 0.7532 0.0000
1 -12 13 2.0071 0.0000
1 -12 14 -0.4791 0.0000
1 -12 15 1.9754 0.0000
1 -12 16 -0.3290 0.0000
1 -12 17 0.4247 0.0000
1 -12 18 -0.5286 0.0000
1 -12 19 1.3559 0.0000
1 -12 20 0.3026 0.0000
1 -12 21 0.1140 0.0000
1 -11 0 -6.1762 0.0000
1 -11 1 -0.6864 0.0000
1 -11 2 3.6817 0.0000
1 -11 3 2.4773 0.0000
1 -11 4 -5.4384 0.0000
1 -11 5 -1.5879 0.0000
1 -11 6 1.7395 0.0000
1 -11 7 -0.3401 0.0000
1 -11 8 -5.4043 0.0000
1 -11 9 -0.0018 0.0000
1 -11 10 -0.3210 0.0000
1 -11 11 2.5138 0.0000
1 -11 12 -2.8918 0.0000
1 -11 13 -2.4696 0.0000
1 -11 14 2.5524 0.0000
1 -11 15 -1.2483 0.0000
1 -11 16 -0.5382 0.0000
1 -11 17 -0.3198 0.0000
1 -11 18 -1.9387 0.0000
1 -11 19 1.3897 0.0000
1 -11 20 -1.4555 0.0000
1 -11 21 -0.6023 0.0000
1 -10 0 0.0861 0.0000
1 -10 1 7.6336 0.0000
1 -10 2 4.4939 0.0000
1 -10 3 -2.3887 0.0000
1 -10 4 -4.6427 0.0000
1 -10 5 5.0320 0.0000
1 -10 6 5.4591 0.0000
1 -10 7 -6.9564 0.0000
1 -10 8 -0.0510 0.0000
1 -10 9 2.2741 0.0000
1 -10 10 -3.6294 0.0000
1 -10 11 -0.5881 0.0000
1 -10 12 -4.2708 0.0000
1 -10 13 -0.7645 0.0000
1 -10 14 2.0418 0.0000
1 -10 15 -2.3507 0.0000
1 -10 16 0.6083 0.0000
1 -10 17 -0.9209 0.0000
1 -10 18 -0.0260 0.0000
1 -10 19 0.1793 0.0000
1 -10 20 -1.4480 0.0000
1 -10 21 -0.6300 0.0000
1 -10 22 0.0329 0.0000
1 -9 0 6.5018 0.0000
1 -9 1 -1.7677 0.0000
1 -9 2 -4.5110 0.0000
1 -9 3 -6.5973 0.0000
1 -9 4 3.4519 0.0000
1 -9 5 2.3904 0.0000
1 -9 6 -0.0399 0.0000
1 -9 7 -6.2013 0.0000
1 -9 8 10.3114 0.0000
1 -9 9 -0.4039 0.0000
1 -9 10 -0.2302 0.0000
1 -9 11 -1.4992 0.0000
1 -9 12 5.1709 0.0000
1 -9 13 0.1831 0.0000
1 -9 14 -0.8894 0.0000
1 -9 15 -0.7819 0.0000
1 -9 16 0.6342 0.0000
1 -9 17 1.2492 0.0000
1 -9 18 0.9819 0.0000
1 -9 19 -0.3329 0.0000
1 -9 20 0.0148 0.0000
1 -9 21 0.4896 0.0000
1 -9 22 0.0160 0.0000
1 -8 0 9.1958 0.0000
1 -8 1 -16.8126 0.0000
1 -8 2 -0.4899 0.0000
1 -8 3 -3.7219 0.0000
1 -8 4 7.6802 0.0000
1 -8 5 -12.4891 0.0000
1 -8 6 -8.5971 0.0000
1 -8 7 3.7303 0.0000
1 -8 8 -1.8654 0.0000
1 -8 9 -4.0528 0.0000
1 -8 10 -0.1290 0.0000
1 -8 11 -2.7900 0.0000
1 -8 12 6.6397 0.0000
1 -8 13 -3.4737 0.0000
1 -8 14 -0.9823 0.0000
1 -8 15 1.7165 0.0000
1 -8 16 -0.8158 0.0000
1 -8 17 1.2646 0.0000
1 -8 18 0.9773 0.0000
1 -8 19 -0.3038 0.0000
1 -8 20 2.9585 0.0000
1 -8 21 1.1484 0.0000
1 -8 22 0.5115 0.0000
1 -7 0 -4.5494 0.0000
1 -7 1 -7.0409 0.0000
1 -7 2 15.9448 0.0000
1 -7 3 0.4894 0.0000
1 -7 4 16.7111 0.0000
1 -7 5 -10.0202 0.0000
1 -7 6 9.8656 0.0000
1 -7 7 14.4678 0.0000
1 -7 8 -14.1567 0.0000
1 -7 9 6.1977 0.0000
1 -7 10 2.1732 0.0000
1 -7 11 -0.3343 0.0000
1 -7 12 3.2385 0.0000
1 -7 13 -3.5460 0.0000
1 -7 14 3.9146 0.0000
1 -7 15 3.2265 0.0000
1 -7 16 -1.1118 0.0000
1 -7 17 0.1239 0.0000
1 -7 18 -1.3652 0.0000
1 -7 19 -0.9597 0.0000
1 -7 20 0.5175 0.0000
1 -7 21 -0.0419 0.0000
1 -7 22 -0.5221 0.0000
1 -6 0 -19.0311 0.0000
1 -6 1 19.1711 0.0000
1 -6 2 -3.3876 0.0000
1 -6 3 -8.9380 0.0000
1 -6 4 1.0942 0.0000
1 -6 5 0.8836 0.0000
1 -6 6 11.6966 0.0000
1 -6 7 10.1799 0.0000
1 -6 8 -10.2345 0.0000
1 -6 9 18.2901 0.0000
1 -6 10 -0.5713 0.0000
1 -6 11 3.1651 0.0000
1 -6 12 -2.2293 0.0000
1 -6 13 0.4361 0.0000
1 -6 14 0.4401 0.0000
1 -6 15 -0.1667 0.0000
1 -6 16 -2.4501 0.0000
1 -6 17 1.2712 0.0000
1 -6 18 -1.7839 0.0000
1 -6 19 1.2713 0.0000
1 -6 20 -2.0283 0.0000
1 -6 21 -1.4148 0.0000
1 -6 22 -0.4164 0.0000
1 -5 0 15.7616 0.0000
1 -5 1 32.0337 0.0000
1 -5 2 -14.3442 0.0000
1 -5 3 5.0375 0.0000
1 -5 4 -16.1602 0.0000
1 -5 5 14.5132 0.0000
1 -5 6 -23.6624 0.0000
1 -5 7 -7.5640 0.0000
1 -5 8 -6.4773 0.0000
1 -5 9 -1.9321 0.0000
1 -5 10 -9.6853 0.0000
1 -5 11 -5.5784 0.0000
1 -5 12 -4.4929 0.0000
1 -5 13 1.0248 0.0000
1 -5 14 -3.4841 0.0000
1 -5 15 -2.7326 0.0000
1 -5 16 -0.4599 0.0000
1 -5 17 -0.6185 0.0000
1 -5 18 -0.8955 0.0000
1 -5 19 0.8057 0.0000
1 -5 20 -1.3823 0.0000
1 -5 21 -0.8800 0.0000
1 -5 22 0.3924 0.0000
1 -4 0 19.8468 0.0000
1 -4 1 -32.9555 0.0000
1 -4 2 8.5807 0.0000
1 -4 3 5.9254 0.0000
1 -4 4 -14.4707 0.0000
1 -4 5 26.2626 0.0000
1 -4 6 -38.8199 0.0000
1 -4 7 8.5105 0.0000
1 -4 8 3.6671 0.0000
1 -4 9 -12.7151 0.0000
1 -4 10 2.0917 0.0000
1 -4 11 -4.2491 0.0000
1 -4 12 2.0105 0.0000
1 -4 13 -0.7959 0.0000
1 -4 14 -2.9485 0.0000
1 -4 15 0.8431 0.0000
1 -4 16 0.9672 0.0000
1 -4 17 0.2598 0.0000
1 -4 18 0.0709 0.0000
1 -4 19 0.4921 0.0000
1 -4 20 0.4997 0.0000
1 -4 21 1.5613 0.0000
1 -4 22 0.5907 0.0000
1 -3 0 -40.0400 0.0000
1 -3 1 -80.0835 0.0000
1 -3 2 47.5118 0.0000
1 -3 3 -16.7546 0.0000
1 -3 4 6.2223 0.0000
1 -3 5 19.8369 0.0000
1 -3 6 -6.4494 0.0000
1 -3 7 24.4381 0.0000
1 -3 8 7.7367 0.0000
1 -3 9 -9.2010 0.0000
1 -3 10 17.4384 0.0000
1 -3 11 0.6303 0.0000
1 -3 12 8.4991 0.0000
1 -3 13 -0.6855 0.0000
1 -3 14 4.4363 0.0000
1 -3 15 2.2695 0.0000
1 -3 16 0.5021 0.0000
1 -3 17 0.6643 0.0000
1 -3 18 1.4506 0.0000
1 -3 19 -0.3824 0.0000
1 -3 20 0.4011 0.0000
1 -3 21 0.8046 0.0000
1 -2 0 -38.0924 0.0000
1 -2 1 -28.4225 0.0000
1 -2 2 15.2368 0.0000
1 -2 3 -47.5800 0.0000
1 -2 4 -17.2136 0.0000
1 -2 5 -15.9035 0.0000
1 -2 6 14.0061 0.0000
1 -2 7 -2.4863 0.0000
1 -2 8 5.9074 0.0000
1 -2 9 -1.8085 0.0000
1 -2 10 14.2673 0.0000
1 -2 11 -3.0461 0.0000
1 -2 12 0.3946 0.0000
1 -2 13 -0.3883 0.0000
1 -2 14 2.8661 0.0000
1 -2 15 -0.4808 0.0000
1 -2 16 -2.0731 0.0000
1 -2 17 0.0556 0.0000
1 -2 18 -0.4040 0.0000
1 -2 19 -0.4634 0.0000
1 -2 20 -0.1840 0.0000
1 -2 21 -0.1270 0.0000
1 -1 0 157.6834 0.0000
1 -1 1 97.3708 0.0000
1 -1 2 50.7877 0.0000
1 -1 3 48.8793 0.0000
1 -1 4 17.2355 0.0000
1 -1 5 9.1031 0.0000
1 -1 6 18.8503 0.0000
1 -1 7 -28.9547 0.0000
1 -1 8 4.9404 0.0000
1 -1 9 -5.1656 0.0000
1 -1 10 -4.0486 0.0000
1 -1 11 -5.7284 0.0000
1 -1 12 -4.6642 0.0000
1 -1 13 1.4907 0.0000
1 -1 14 -3.4624 0.0000
1 -1 15 -1.4981 0.0000
1 -1 16 -0.9107 0.0000
1 -1 17 0.7568 0.0000
1 -1 18 -0.7587 0.0000
1 -1 19 -0.3991 0.0000
1 -1 20 0.1813 0.0000
1 -1 21 -1.0298 0.0000
1 0 0 73.3178 0.0000
1 0 1 -85.2705 0.0000
1 0 2 -71.5455 0.0000
1 0 3 20.9317 0.0000
1 0 4 -25.3733 0.0000
1 0 5 4.3111 0.0000
1 0 6 -5.8524 0.0000
1 0 7 -17.2527 0.0000
1 0 8 12.0327 0.0000
1 0 9 -4.8013 0.0000
1 0 10 -9.7465 0.0000
1 0 11 1.5764 0.0000
1 0 12 -2.9886 0.0000
1 0 13 2.1392 0.0000
1 0 14 -4.4437 0.0000
1 0 15 1.3882 0.0000
1 0 16 0.0894 0.0000
1 0 17 1.4473 0.0000
1 0 18 0.4761 0.0000
1 0 19 1.0253 0.0000
1 0 20 0.5251 0.0000
1 0 21 1.3290 0.0000
1 1 0 39.0648 0.0000
1 1 1 -67.4975 0.0000
1 1 2 -42.1165 0.0000
1 1 3 29.7363 0.0000
1 1 4 -35.5658 0.0000
1 1 5 3.2331 0.0000
1 1 6 -12.3580 0.0000
1 1 7 5.6010 0.0000
1 1 8 4.6649 0.0000
1 1 9 -2.1469 0.0000
1 1 10 -1.0145 0.0000
1 1 11 11.0678 0.0000
1 1 12 -1.0874 0.0000
1 1 13 4.7276 0.0000
1 1 14 -0.6635 0.0000
1 1 15 5.4086 0.0000
1 1 16 0.5999 0.0000
1 1 17 0.0450 0.0000
1 1 18 0.9307 0.0000
1 1 19 -2.1934 0.0000
1 1 20 1.0547 0.0000
1 2 0 -38.0209 0.0000
1 2 1 37.7499 0.0000
1 2 2 6.0011 0.0000
1 2 3 32.4598 0.0000
1 2 4 -16.7251 0.0000
1 2 5 15.6606 0.0000
1 2 6 4.0757 0.0000
1 2 7 14.0687 0.0000
1 2 8 -4.0256 0.0000
1 2 9 3.7191 0.0000
1 2 10 3.8123 0.0000
1 2 11 4.2374 0.0000
1 2 12 -3.3689 0.0000
1 2 13 1.9147 0.0000
1 2 14 -1.2233 0.0000
1 2 15 1.0772 0.0000
1 2 16 -1.2242 0.0000
1 2 17 -1.7599 0.0000
1 2 18 1.2211 0.0000
1 2 19 -1.3627 0.0000
1 2 20 0.7337 0.0000
1 3 0 -66.0995 0.0000
1 3 2 -6.3589 0.0000
1 3 3 6.3915 0.0000
1 3 4 -1.7210 0.0000
1 3 5 8.4463 0.0000
1 3 6 1.8636 0.0000
1 3 7 -4.1928 0.0000
1 3 8 -5.9139 0.0000
1 3 9 2.3725 0.0000
1 3 10 0.3485 0.0000
1 3 11 -6.1578 0.0000
1 3 12 -1.4224 0.0000
1 3 13 -0.0112 0.0000
1 3 14 -0.0339 0.0000
1 3 15 -1.4598 0.0000
1 3 16 -0.9158 0.0000
1 3 17 -1.7033 0.0000
1 3 18 0.6127 0.0000
1 3 19 0.9943 0.0000
1 4 0 -31.7798 0.0000
1 4 1 28.6219 0.0000
1 4 2 -28.4561 0.0000
1 4 3 -15.0062 0.0000
1 4 4 10.9194 0.0000
1 4 5 -7.8576 0.0000
1 4 6 2.0740 0.0000
1 4 7 -9.9752 0.0000
1 4 8 5.1195 0.0000
1 4 9 -2.4383 0.0000
1 4 10 -0.1744 0.0000
1 4 11 -6.0405 0.0000
1 4 12 3.4532 0.0000
1 4 13 -1.7605 0.0000
1 4 14 0.0519 0.0000
1 4 15 -2.2828 0.0000
1 4 16 1.0257 0.0000
1 4 17 -0.1771 0.0000
1 4 18 0.8131 0.0000
1 4 19 -1.8580 0.0000
1 5 0 15.8004 0.0000
1 5 1 -9.5039 0.0000
1 5 2 -8.3148 0.0000
1 5 3 -3.8442 0.0000
1 5 4 12.8601 0.0000
1 5 5 -16.1082 0.0000
1 5 6 3.4760 0.0000
1 5 7 -4.7925 0.0000
1 5 8 6.0531 0.0000
1 5 9 -4.5946 0.0000
1 5 10 1.2037 0.0000
1 5 11 0.7310 0.0000
1 5 12 3.8252 0.0000
1 5 13 -1.7417 0.0000
1 5 14 -0.3248 0.0000
1 5 15 -0.4631 0.0000
1 5 16 1.7126 0.0000
1 5 17 0.4906 0.0000
1 5 18 0.4287 0.0000
1 6 0 4.0767 0.0000
1 6 1 -21.7520 0.0000
1 6 2 12.1895 0.0000
1 6 3 3.8814 0.0000
1 6 4 3.1579 0.0000
1 6 5 -7.4819 0.0000
1 6 6 7.1990 0.0000
1 6 7 2.5859 0.0000
1 6 8 0.5975 0.0000
1 6 9 -1.5876 0.0000
1 6 10 0.3803 0.0000
1 6 11 2.6001 0.0000
1 6 12 -0.9031 0.0000
1 6 13 -0.9055 0.0000
1 6 14 -0.2553 0.0000
1 6 15 0.6205 0.0000
1 6 16 -0.2644 0.0000
1 6 17 -0.5964 0.0000
1 7 0 -3.3450 0.0000
1 7 1 -2.5359 0.0000
1 7 2 12.7384 0.0000
1 7 3 -2.9620 0.0000
1 7 4 -5.5557 0.0000
1 7 5 1.8810 0.0000
1 7 6 3.6214 0.0000
1 7 7 1.5623 0.0000
1 7 8 -2.1258 0.0000
1 7 9 1.7063 0.0000
1 7 10 -0.4793 0.0000
1 7 11 0.0162 0.0000
1 7 12 -2.7829 0.0000
1 7 13 0.5508 0.0000
1 7 14 1.5030 0.0000
1 7 15 -0.1057 0.0000
1 7 16 -1.1742 0.0000
1 8 0 2.8980 0.0000
1 8 1 13.3270 0.0000
1 8 2 -0.4099 0.0000
1 8 3 -2.2543 0.0000
1 8 4 -0.2320 0.0000
1 8 5 5.1944 0.0000
1 8 6 -2.3295 0.0000
1 8 7 -1.1479 0.0000
1 8 8 -1.4599 0.0000
1 8 9 3.2651 0.0000
1 8 10 -0.2574 0.0000
1 8 11 1.6890 0.0000
1 8 12 -0.7260 0.0000
1 8 13 1.4277 0.0000
1 8 14 0.5443 0.0000
1 8 15 1.0173 0.0000
1 8 16 0.9450 0.0000
1 9 0 2.1994 0.0000
1 9 1 4.1425 0.0000
1 9 2 -10.5065 0.0000
1 9 3 3.4590 0.0000
1 9 4 2.8566 0.0000
1 9 5 -0.0105 0.0000
1 9 6 -2.2239 0.0000
1 9 7 -0.2292 0.0000
1 9 8 0.8603 0.0000
1 9 9 -1.7394 0.0000
1 9 10 -1.4721 0.0000
1 9 11 -0.6660 0.0000
1 9 12 0.0758 0.0000
1 9 13 -0.0341 0.0000
1 9 14 -1.5695 0.0000
1 9 15 0.8869 0.0000
1 10 0 -5.7473 0.0000
1 10 1 -5.8665 0.0000
1 10 2 -4.2484 0.0000
1 10 3 2.9069 0.0000
1 10 4 0.3684 0.0000
1 10 5 -4.9219 0.0000
1 10 6 0.9825 0.0000
1 10 7 0.2797 0.0000
1 10 8 1.4547 0.0000
1 10 9 -0.3600 0.0000
1 10 10 1.3939 0.0000
1 10 11 0.9360 0.0000
1 10 12 0.7283 0.0000
1 10 13 0.8292 0.0000
1 10 14 -0.0665 0.0000
1 11 0 -3.6306 0.0000
1 11 1 0.3520 0.0000
1 11 2 4.6728 0.0000
1 11 3 -1.9162 0.0000
1 11 4 -2.2054 0.0000
1 11 5 -0.5176 0.0000
1 11 6 0.8552 0.0000
1 11 7 -0.2183 0.0000
1 11 8 -1.4741 0.0000
1 11 9 0.9425 0.0000
1 11 10 0.0625 0.0000
1 11 11 1.1505 0.0000
1 11 12 -1.2253 0.0000
1 11 13 0.8951 0.0000
1 12 0 0.8490 0.0000
1 12 1 2.9141 0.0000
1 12 2 4.3510 0.0000
1 12 3 -4.4498 0.0000
1 12 4 1.7081 0.0000
1 12 5 2.4455 0.0000
1 12 6 1.2157 0.0000
1 12 7 -0.5251 0.0000
1 12 8 -0.0661 0.0000
1 12 9 0.2329 0.0000
1 12 10 -0.3618 0.0000
1 12 11 -0.5439 0.0000
1 13 0 1.6254 0.0000
1 13 1 -0.2243 0.0000
1 13 2 0.2471 0.0000
1 13 3 -0.0232 0.0000
1 13 4 2.4754 0.0000
1 13 5 0.5625 0.0000
1 13 6 -1.4637 0.0000
1 13 7 -1.1368 0.0000
1 13 8 -0.8294 0.0000
1 13 9 -0.1597 0.0000
1 13 10 0.4991 0.0000
1 14 0 -1.2155 0.0000
1 14 1 -3.1107 0.0000
1 14 2 -3.8803 0.0000
1 14 3 2.9010 0.0000
1 14 4 -1.5548 0.0000
1 14 5 0.1974 0.0000
1 14 6 -1.1137 0.0000
1 14 7 0.1429 0.0000
1 14 8 0.3547 0.0000
1 14 9 -0.6663 0.0000
1 15 1 -1.2480 0.0000
1 15 2 1.2887 0.0000
1 15 3 -0.2839 0.0000
1 15 4 -1.9270 0.0000
1 15 5 0.2160 0.0000
1 15 6 -0.2222 0.0000
1 15 7 1.4843 0.0000
1 16 0 -0.9467 0.0000
1 16 1 -0.2360 0.0000
1 16 2 0.3206 0.0000
1 16 3 -0.6670 0.0000
1 16 4 -0.3752 0.0000
1 16 5 0.9030 0.0000
1 17 0 0.3201 0.0000
1 17 1 2.2283 0.0000
1 17 2 -0.4781 0.0000
1 17 3 0.4062 0.0000
1 18 0 -0.2525 0.0000
1 18 1 -0.3859 0.0000
2 -20 1 0.0297 0.0000
2 -20 2 0.0435 0.0000
2 -20 3 -0.2243 0.0000
2 -20 4 0.1952 0.0000
2 -20 5 -0.5071 0.0000
2 -20 6 -0.1310 0.0000
2 -20 7 0.9453 0.0000
2 -20 8 -0.2087 0.0000
2 -20 9 -0.0741 0.0000
2 -20 10 -0.0383 0.0000
2 -20 11 0.7504 0.0000
2 -20 12 -0.1409 0.0000
2 -19 0 -1.2155 0.0000
2 -19 1 -0.0572 0.0000
2 -19 2 1.3343 0.0000
2 -19 3 0.0805 0.0000
2 -19 4 0.0353 0.0000
2 -19 5 0.3650 0.0000
2 -19 6 0.5119 0.0000
2 -19 7 -0.2725 0.0000
2 -19 8 -0.5772 0.0000
2 -19 9 0.5896 0.0000
2 -19 10 1.1294 0.0000
2 -19 11 0.5087 0.0000
2 -19 12 0.2702 0.0000
2 -19 13 0.7354 0.0000
2 -19 14 0.3043 0.0000
2 -18 0 0.0650 0.0000
2 -18 1 1.0565 0.0000
2 -18 2 0.8180 0.0000
2 -18 3 -1.2330 0.0000
2 -18 4 -0.9435 0.0000
2 -18 5 0.7346 0.0000
2 -18 6 -1.2621 0.0000
2 -18 7 -0.1303 0.0000
2 -18 8 -0.7128 0.0000
2 -18 9 0.5733 0.0000
2 -18 10 -2.3898 0.0000
2 -18 11 -0.5883 0.0000
2 -18 12 -2.4798 0.0000
2 -18 13 -0.9075 0.0000
2 -18 14 -1.4377 0.0000
2 -18 15 -0.4937 0.0000
2 -18 16 0.4101 0.0000
2 -17 0 1.4813 0.0000
2 -17 1 0.6054 0.0000
2 -17 2 -1.6498 0.0000
2 -17 3 -0.1043 0.0000
2 -17 4 0.0230 0.0000
2 -17 5 0.0570 0.0000
2 -17 6 -0.4178 0.0000
2 -17 7 0.7409 0.0000
2 -17 8 0.5352 0.0000
2 -17 9 -0.0722 0.0000
2 -17 10 0.2405 0.0000
2 -17 11 2.3170 0.0000
2 -17 12 0.1727 0.0000
2 -17 13 -0.3177 0.0000
2 -17 14 -0.2552 0.0000
2 -17 15 0.0615 0.0000
2 -17 16 0.2582 0.0000
2 -17 17 -2.1556 0.0000
2 -16 0 0.1477 0.0000
2 -16 1 -0.9294 0.0000
2 -16 2 -0.3702 0.0000
2 -16 3 3.8075 0.0000
2 -16 4 1.5598 0.0000
2 -16 5 0.1607 0.0000
2 -16 6 2.2820 0.0000
2 -16 7 -0.0989 0.0000
2 -16 8 0.6677 0.0000
2 -16 9 -1.9940 0.0000
2 -16 10 0.7669 0.0000
2 -16 11 -0.0889 0.0000
2 -16 12 -0.3152 0.0000
2 -16 13 0.3112 0.0000
2 -16 14 1.1632 0.0000
2 -16 15 1.8064 0.0000
2 -16 16 0.6939 0.0000
2 -16 17 0.6104 0.0000
2 -16 18 1.6911 0.0000
2 -15 0 -1.4587 0.0000
2 -15 1 -0.9284 0.0000
2 -15 2 1.5025 0.0000
2 -15 3 -0.3695 0.0000
2 -15 4 -1.9930 0.0000
2 -15 5 -2.2622 0.0000
2 -15 6 -0.2165 0.0000
2 -15 7 -1.5161 0.0000
2 -15 8 -0.4394 0.0000
2 -15 9 -0.0912 0.0000
2 -15 10 -0.0982 0.0000
2 -15 11 -0.7112 0.0000
2 -15 12 -0.8875 0.0000
2 -15 13 -0.0339 0.0000
2 -15 14 -0.4463 0.0000
2 -15 15 -0.5599 0.0000
2 -15 16 -1.1581 0.0000
2 -15 17 1.3757 0.0000
2 -15 18 0.3129 0.0000
2 -15 19 -0.1510 0.0000
2 -14 0 -1.4807 0.0000
2 -14 1 3.1558 0.0000
2 -14 2 1.4206 0.0000
2 -14 3 -2.9922 0.0000
2 -14 4 0.6623 0.0000
2 -14 5 0.1761 0.0000
2 -14 6 1.4034 0.0000
2 -14 7 -1.8279 0.0000
2 -14 8 1.4729 0.0000
2 -14 9 0.9382 0.0000
2 -14 10 -0.3778 0.0000
2 -14 11 1.0452 0.0000
2 -14 12 0.2145 0.0000
2 -14 13 1.7159 0.0000
2 -14 14 0.4093 0.0000
2 -14 15 -1.3648 0.0000
2 -14 16 0.2096 0.0000
2 -14 17 0.9203 0.0000
2 -14 18 -1.7429 0.0000
2 -14 19 1.4434 0.0000
2 -14 20 -1.0115 0.0000
2 -13 0 1.4197 0.0000
2 -13 1 2.4097 0.0000
2 -13 2 -3.1195 0.0000
2 -13 3 -1.7304 0.0000
2 -13 4 3.1224 0.0000
2 -13 5 2.3420 0.0000
2 -13 6 -0.0403 0.0000
2 -13 7 -1.4271 0.0000
2 -13 8 4.0182 0.0000
2 -13 9 0.6407 0.0000
2 -13 10 -0.9501 0.0000
2 -13 11 1.9650 0.0000
2 -13 12 -1.8263 0.0000
2 -13 13 3.0105 0.0000
2 -13 14 -0.3080 0.0000
2 -13 15 0.0840 0.0000
2 -13 16 0.7499 0.0000
2 -13 17 -0.3775 0.0000
2 -13 18 -0.8761 0.0000
2 -13 19 0.8275 0.0000
2 -13 20 -0.3306 0.0000
2 -12 0 0.1509 0.0000
2 -12 1 -2.9424 0.0000
2 -12 2 -4.1831 0.0000
2 -12 3 1.5053 0.0000
2 -12 4 -0.2108 0.0000
2 -12 5 -2.2145 0.0000
2 -12 6 -3.8612 0.0000
2 -12 7 -0.4352 0.0000
2 -12 8 -0.4083 0.0000
2 -12 9 -3.1906 0.0000
2 -12 10 -1.8251 0.0000
2 -12 11 1.4576 0.0000
2 -12 12 -0.9369 0.0000
2 -12 13 -0.6593 0.0000
2 -12 14 -0.7282 0.0000
2 -12 15 0.2772 0.0000
2 -12 16 -0.4076 0.0000
2 -12 17 0.3734 0.0000
2 -12 18 -1.1099 0.0000
2 -12 19 -0.2962 0.0000
2 -12 20 -0.0408 0.0000
2 -12 21 -1.2190 0.0000
2 -11 0 -3.1573 0.0000
2 -11 1 -0.8408 0.0000
2 -11 2 3.6052 0.0000
2 -11 3 5.1591 0.0000
2 -11 4 -3.0907 0.0000
2 -11 5 -2.5359 0.0000
2 -11 6 3.1658 0.0000
2 -11 7 3.0774 0.0000
2 -11 8 -5.2811 0.0000
2 -11 9 0.9375 0.0000
2 -11 10 -1.9712 0.0000
2 -11 11 1.1996 0.0000
2 -11 12 -0.4093 0.0000
2 -11 13 -4.2893 0.0000
2 -11 14 1.2811 0.0000
2 -11 15 -0.5446 0.0000
2 -11 16 -0.4330 0.0000
2 -11 17 0.4312 0.0000
2 -11 18 -1.2947 0.0000
2 -11 19 0.6276 0.0000
2 -11 20 0.5483 0.0000
2 -11 21 -1.0608 0.0000
2 -10 0 -6.7730 0.0000
2 -10 1 1.8213 0.0000
2 -10 2 4.3638 0.0000
2 -10 3 -1.9940 0.0000
2 -10 4 -2.5212 0.0000
2 -10 5 -0.7498 0.0000
2 -10 6 9.6654 0.0000
2 -10 7 -4.1802 0.0000
2 -10 8 -0.9131 0.0000
2 -10 9 6.6508 0.0000
2 -10 10 0.4328 0.0000
2 -10 11 -0.1270 0.0000
2 -10 12 1.1975 0.0000
2 -10 13 -1.8108 0.0000
2 -10 14 2.4675 0.0000
2 -10 15 -1.1736 0.0000
2 -10 16 0.8067 0.0000
2 -10 17 0.9317 0.0000
2 -10 18 0.6650 0.0000
2 -10 19 1.2450 0.0000
2 -10 20 0.4868 0.0000
2 -10 21 0.1582 0.0000
2 -9 0 8.7323 0.0000
2 -9 1 -1.1210 0.0000
2 -9 2 -2.3397 0.0000
2 -9 3 -9.2032 0.0000
2 -9 4 1.8045 0.0000
2 -9 5 -1.9268 0.0000
2 -9 6 -1.7338 0.0000
2 -9 7 -9.8001 0.0000
2 -9 8 5.2413 0.0000
2 -9 9 0.1574 0.0000
2 -9 10 0.3930 0.0000
2 -9 11 -4.4240 0.0000
2 -9 12 3.5932 0.0000
2 -9 13 2.7010 0.0000
2 -9 14 0.1444 0.0000
2 -9 15 0.0118 0.0000
2 -9 16 -0.6994 0.0000
2 -9 17 0.9517 0.0000
2 -9 18 1.1607 0.0000
2 -9 19 0.2326 0.0000
2 -9 20 0.8764 0.0000
2 -9 21 0.9688 0.0000
2 -8 0 20.0202 0.0000
2 -8 1 -12.5187 0.0000
2 -8 2 4.1434 0.0000
2 -8 3 -0.4443 0.0000
2 -8 4 14.9007 0.0000
2 -8 5 5.7602 0.0000
2 -8 6 -6.2298 0.0000
2 -8 7 10.0931 0.0000
2 -8 8 4.1824 0.0000
2 -8 9 -6.2938 0.0000
2 -8 10 4.2098 0.0000
2 -8 11 -4.8590 0.0000
2 -8 12 5.0659 0.0000
2 -8 13 0.1162 0.0000
2 -8 14 -1.9873 0.0000
2 -8 15 2.1699 0.0000
2 -8 16 -0.5207 0.0000
2 -8 17 -0.8922 0.0000
2 -8 18 0.1477 0.0000
2 -8 19 -3.2081 0.0000
2 -8 20 -0.2568 0.0000
2 -8 21 -0.4750 0.0000
2 -8 22 -0.5999 0.0000
2 -7 0 -0.0608 0.0000
2 -7 1 -10.8425 0.0000
2 -7 2 15.4362 0.0000
2 -7 3 -5.5267 0.0000
2 -7 4 8.2625 0.0000
2 -7 5 -1.8524 0.0000
2 -7 6 -6.3872 0.0000
2 -7 7 22.7062 0.0000
2 -7 8 -9.0561 0.0000
2 -7 9 0.1375 0.0000
2 -7 10 5.7628 0.0000
2 -7 11 -1.9843 0.0000
2 -7 12 0.9716 0.0000
2 -7 13 -4.6853 0.0000
2 -7 14 -3.2852 0.0000
2 -7 15 1.7538 0.0000
2 -7 16 -2.4537 0.0000
2 -7 17 -0.4359 0.0000
2 -7 18 -1.2173 0.0000
2 -7 19 -1.0822 0.0000
2 -7 20 -0.5844 0.0000
2 -7 21 -0.7076 0.0000
2 -7 22 -0.9608 0.0000
2 -6 0 -24.0582 0.0000
2 -6 1 21.5991 0.0000
2 -6 2 2.2255 0.0000
2 -6 3 -6.8284 0.0000
2 -6 4 -14.0489 0.0000
2 -6 5 -6.8197 0.0000
2 -6 6 -11.7744 0.0000
2 -6 7 -0.0243 0.0000
2 -6 8 -21.7573 0.0000
2 -6 9 1.8600 0.0000
2 -6 10 -4.4706 0.0000
2 -6 11 -2.8343 0.0000
2 -6 12 -4.1394 0.0000
2 -6 13 -0.7503 0.0000
2 -6 14 0.6124 0.0000
2 -6 15 0.7175 0.0000
2 -6 16 -1.5942 0.0000
2 -6 17 0.3590 0.0000
2 -6 18 -1.3257 0.0000
2 -6 19 1.2803 0.0000
2 -6 20 0.7524 0.0000
2 -6 21 -0.9835 0.0000
2 -6 22 0.4016 0.0000
2 -5 0 -11.1418 0.0000
2 -5 1 19.7939 0.0000
2 -5 2 -28.4426 0.0000
2 -5 3 13.8136 0.0000
2 -5 4 -25.2316 0.0000
2 -5 5 19.8647 0.0000
2 -5 6 -5.9271 0.0000
2 -5 7 -10.3169 0.0000
2 -5 8 4.2846 0.0000
2 -5 9 4.0961 0.0000
2 -5 10 -0.5656 0.0000
2 -5 11 1.3784 0.0000
2 -5 12 -0.7270 0.0000
2 -5 13 3.7991 0.0000
2 -5 14 0.9076 0.0000
2 -5 15 -0.9064 0.0000
2 -5 16 1.8401 0.0000
2 -5 17 1.7303 0.0000
2 -5 18 1.0567 0.0000
2 -5 19 2.1029 0.0000
2 -5 20 1.2692 0.0000
2 -5 21 0.4682 0.0000
2 -4 0 36.5887 0.0000
2 -4 1 -37.6002 0.0000
2 -4 2 -6.7879 0.0000
2 -4 3 31.2317 0.0000
2 -4 4 -11.5448 0.0000
2 -4 5 44.1380 0.0000
2 -4 6 0.1197 0.0000
2 -4 7 4.5642 0.0000
2 -4 8 27.7139 0.0000
2 -4 9 -3.8337 0.0000
2 -4 10 6.9761 0.0000
2 -4 11 3.9050 0.0000
2 -4 12 5.2656 0.0000
2 -4 13 3.0945 0.0000
2 -4 14 0.5314 0.0000
2 -4 15 0.0876 0.0000
2 -4 16 2.2985 0.0000
2 -4 17 -0.2063 0.0000
2 -4 18 1.1284 0.0000
2 -4 19 -0.9017 0.0000
2 -4 20 -0.8036 0.0000
2 -4 21 -0.2094 0.0000
2 -3 0 35.7723 0.0000
2 -3 1 -67.5754 0.0000
2 -3 2 22.0839 0.0000
2 -3 3 -12.0533 0.0000
2 -3 4 -21.4419 0.0000
2 -3 5 -4.3315 0.0000
2 -3 6 -11.1464 0.0000
2 -3 7 -0.2869 0.0000
2 -3 8 13.6952 0.0000
2 -3 9 -16.5340 0.0000
2 -3 10 7.1512 0.0000
2 -3 11 -2.6239 0.0000
2 -3 12 1.0779 0.0000
2 -3 13 -4.1705 0.0000
2 -3 14 0.5893 0.0000
2 -3 15 -0.0785 0.0000
2 -3 16 -0.3043 0.0000
2 -3 17 -2.5110 0.0000
2 -3 18 -0.1125 0.0000
2 -3 19 -0.6461 0.0000
2 -3 20 -1.2947 0.0000
2 -3 21 0.5540 0.0000
2 -2 0 29.3054 0.0000
2 -2 1 43.3785 0.0000
2 -2 2 69.2256 0.0000
2 -2 3 15.1458 0.0000
2 -2 4 17.6279 0.0000
2 -2 5 -18.6654 0.0000
2 -2 6 10.4312 0.0000
2 -2 7 -14.9352 0.0000
2 -2 8 -8.6412 0.0000
2 -2 9 -14.2168 0.0000
2 -2 10 0.9889 0.0000
2 -2 11 -4.4112 0.0000
2 -2 12 -4.4643 0.0000
2 -2 13 -2.1731 0.0000
2 -2 14 -0.5033 0.0000
2 -2 15 -0.5863 0.0000
2 -2 16 -1.6656 0.0000
2 -2 17 -0.4806 0.0000
2 -2 18 0.5790 0.0000
2 -2 19 0.7715 0.0000
2 -2 20 0.5750 0.0000
2 -2 21 0.8718 0.0000
2 -1 0 -62.3387 0.0000
2 -1 1 -5.1574 0.0000
2 -1 2 -58.9893 0.0000
2 -1 3 -16.1340 0.0000
2 -1 4 -3.5737 0.0000
2 -1 5 -16.2756 0.0000
2 -1 6 22.0475 0.0000
2 -1 7 -16.4754 0.0000
2 -1 8 0.2482 0.0000
2 -1 9 6.5404 0.0000
2 -1 10 -1.7644 0.0000
2 -1 11 0.2347 0.0000
2 -1 12 -2.6795 0.0000
2 -1 13 3.4568 0.0000
2 -1 14 -0.1208 0.0000
2 -1 15 0.2679 0.0000
2 -1 16 0.3274 0.0000
2 -1 17 1.7058 0.0000
2 -1 18 0.7657 0.0000
2 -1 19 -0.2786 0.0000
2 -1 20 0.4705 0.0000
2 0 0 54.9664 0.0000
2 0 1 24.5769 0.0000
2 0 2 -68.8898 0.0000
2 0 3 22.0350 0.0000
2 0 4 -6.4883 0.0000
2 0 5 2.5270 0.0000
2 0 6 9.0455 0.0000
2 0 7 -7.3320 0.0000
2 0 8 10.2298 0.0000
2 0 9 11.3728 0.0000
2 0 10 -4.5275 0.0000
2 0 11 7.4695 0.0000
2 0 12 1.0883 0.0000
2 0 13 4.8536 0.0000
2 0 14 -0.7306 0.0000
2 0 15 1.6278 0.0000
2 0 16 0.5652 0.0000
2 0 17 0.7039 0.0000
2 0 18 -0.8991 0.0000
2 0 19 -0.8965 0.0000
2 0 20 -0.2348 0.0000
2 1 0 50.3828 0.0000
2 1 1 21.4934 0.0000
2 1 2 -25.1303 0.0000
2 1 3 45.6979 0.0000
2 1 4 -7.2656 0.0000
2 1 5 5.5211 0.0000
2 1 6 -2.5589 0.0000
2 1 7 5.8159 0.0000
2 1 8 3.8834 0.0000
2 1 9 0.7095 0.0000
2 1 10 -6.8554 0.0000
2 1 11 5.5176 0.0000
2 1 12 -3.1538 0.0000
2 1 13 -0.3556 0.0000
2 1 14 -2.7788 0.0000
2 1 15 -0.6262 0.0000
2 1 16 -0.0341 0.0000
2 1 17 -1.5148 0.0000
2 1 18 0.5506 0.0000
2 1 19 -0.8480 0.0000
2 1 20 0.4964 0.0000
2 2 0 -47.3095 0.0000
2 2 1 22.4207 0.0000
2 2 2 3.0969 0.0000
2 2 3 24.3189 0.0000
2 2 4 -11.5831 0.0000
2 2 5 1.3496 0.0000
2 2 6 -2.1992 0.0000
2 2 7 4.6545 0.0000
2 2 8 -8.4749 0.0000
2 2 9 -3.5287 0.0000
2 2 10 -1.7721 0.0000
2 2 11 0.4183 0.0000
2 2 12 -4.5969 0.0000
2 2 13 -0.9956 0.0000
2 2 14 0.3053 0.0000
2 2 15 -0.0704 0.0000
2 2 16 0.4707 0.0000
2 2 17 -1.7468 0.0000
2 2 18 -0.1898 0.0000
2 2 19 0.0517 0.0000
2 3 0 -87.0058 0.0000
2 3 1 17.5079 0.0000
2 3 2 -5.7123 0.0000
2 3 3 -18.2274 0.0000
2 3 4 -5.1962 0.0000
2 3 5 -1.3764 0.0000
2 3 6 4.0881 0.0000
2 3 7 -3.9496 0.0000
2 3 8 -4.0274 0.0000
2 3 9 0.3441 0.0000
2 3 10 4.1807 0.0000
2 3 11 -2.9276 0.0000
2 3 12 -0.5234 0.0000
2 3 13 0.0402 0.0000
2 3 14 1.6136 0.0000
2 3 15 -1.1186 0.0000
2 3 16 -0.0784 0.0000
2 3 17 -0.9689 0.0000
2 3 18 -0.0559 0.0000
2 3 19 0.2781 0.0000
2 4 0 -13.5203 0.0000
2 4 1 21.2450 0.0000
2 4 2 -0.3398 0.0000
2 4 3 -20.7623 0.0000
2 4 4 14.0513 0.0000
2 4 5 -5.1593 0.0000
2 4 6 2.5288 0.0000
2 4 7 -7.7337 0.0000
2 4 8 5.4463 0.0000
2 4 9 -0.1571 0.0000
2 4 10 3.5629 0.0000
2 4 11 -3.1387 0.0000
2 4 12 3.7685 0.0000
2 4 13 0.5434 0.0000
2 4 14 0.9157 0.0000
2 4 15 -1.5451 0.0000
2 4 16 0.6328 0.0000
2 4 17 0.5503 0.0000
2 4 18 2.2213 0.0000
2 5 0 22.0368 0.0000
2 5 1 -4.2039 0.0000
2 5 2 2.2867 0.0000
2 5 3 -5.0011 0.0000
2 5 4 17.5895 0.0000
2 5 5 -6.5514 0.0000
2 5 6 2.6906 0.0000
2 5 7 0.6127 0.0000
2 5 8 6.0211 0.0000
2 5 9 -1.9849 0.0000
2 5 10 -0.9973 0.0000
2 5 11 0.0310 0.0000
2 5 12 2.6396 0.0000
2 5 13 0.0111 0.0000
2 5 14 -0.6939 0.0000
2 5 15 -0.8749 0.0000
2 5 16 1.1239 0.0000
2 5 17 0.7640 0.0000
2 6 0 14.1735 0.0000
2 6 1 -16.0229 0.0000
2 6 2 6.1670 0.0000
2 6 3 3.7768 0.0000
2 6 4 2.6349 0.0000
2 6 5 -5.0573 0.0000
2 6 6 1.0012 0.0000
2 6 7 3.9463 0.0000
2 6 8 -0.4476 0.0000
2 6 9 -0.6318 0.0000
2 6 10 -1.1140 0.0000
2 6 11 1.6192 0.0000
2 6 12 -1.0886 0.0000
2 6 13 -1.1133 0.0000
2 6 14 0.1461 0.0000
2 6 15 0.5063 0.0000
2 6 16 0.4272 0.0000
2 6 17 -0.5470 0.0000
2 7 0 -3.3351 0.0000
2 7 1 -3.6717 0.0000
2 7 2 7.8086 0.0000
2 7 3 1.4853 0.0000
2 7 4 -5.8452 0.0000
2 7 5 -0.8001 0.0000
2 7 6 -0.7352 0.0000
2 7 7 -0.0165 0.0000
2 7 8 -4.5132 0.0000
2 7 9 1.5757 0.0000
2 7 10 -0.3569 0.0000
2 7 11 1.3936 0.0000
2 7 12 -1.2641 0.0000
2 7 13 -0.7611 0.0000
2 7 14 2.3022 0.0000
2 7 15 0.3880 0.0000
2 7 16 1.0719 0.0000
2 8 0 -6.4379 0.0000
2 8 1 7.2650 0.0000
2 8 2 -1.9722 0.0000
2 8 3 -1.5107 0.0000
2 8 4 -2.9122 0.0000
2 8 5 3.5885 0.0000
2 8 6 -1.3611 0.0000
2 8 7 0.4455 0.0000
2 8 8 -1.7126 0.0000
2 8 9 2.6954 0.0000
2 8 10 -2.1426 0.0000
2 8 11 0.6458 0.0000
2 8 12 -0.0774 0.0000
2 8 13 0.5540 0.0000
2 8 14 0.3987 0.0000
2 8 15 -1.1745 0.0000
2 9 0 -1.8686 0.0000
2 9 1 1.5097 0.0000
2 9 2 -9.8129 0.0000
2 9 3 -1.3453 0.0000
2 9 4 2.0882 0.0000
2 9 5 0.0333 0.0000
2 9 6 -0.5837 0.0000
2 9 7 -0.1636 0.0000
2 9 8 2.9813 0.0000
2 9 9 0.5961 0.0000
2 9 10 0.1939 0.0000
2 9 11 0.6451 0.0000
2 9 12 0.5066 0.0000
2 9 13 0.2258 0.0000
2 9 14 -1.3397 0.0000
2 10 0 3.6151 0.0000
2 10 1 0.0094 0.0000
2 10 2 0.0396 0.0000
2 10 3 2.2816 0.0000
2 10 4 2.1853 0.0000
2 10 5 -2.5784 0.0000
2 10 6 0.2859 0.0000
2 10 7 -0.6563 0.0000
2 10 8 -0.1277 0.0000
2 10 9 -1.6331 0.0000
2 10 10 -1.0048 0.0000
2 10 11 0.1954 0.0000
2 10 12 -1.3279 0.0000
2 10 13 -0.3701 0.0000
2 11 0 -3.5308 0.0000
2 11 1 -1.4069 0.0000
2 11 2 4.5799 0.0000
2 11 3 1.6763 0.0000
2 11 4 -1.3082 0.0000
2 11 5 1.3771 0.0000
2 11 6 2.1181 0.0000
2 11 7 0.1117 0.0000
2 11 8 -1.1932 0.0000
2 11 9 -0.5209 0.0000
2 11 10 -0.7542 0.0000
2 11 11 1.2574 0.0000
2 11 12 -1.1904 0.0000
2 12 0 -1.5276 0.0000
2 12 1 -0.4728 0.0000
2 12 2 4.4989 0.0000
2 12 3 -2.6650 0.0000
2 12 4 -0.7781 0.0000
2 12 5 0.7110 0.0000
2 12 6 -0.1881 0.0000
2 12 7 -1.0996 0.0000
2 12 8 -1.5201 0.0000
2 12 9 0.5611 0.0000
2 12 10 0.3916 0.0000
2 12 11 1.7348 0.0000
2 13 0 0.1875 0.0000
2 13 1 -0.2318 0.0000
2 13 2 -3.9604 0.0000
2 13 3 -1.6585 0.0000
2 13 4 -0.5803 0.0000
2 13 5 0.6835 0.0000
2 13 6 -0.4074 0.0000
2 13 7 0.3573 0.0000
2 13 8 0.6074 0.0000
2 13 9 0.5498 0.0000
2 14 0 3.6369 0.0000
2 14 1 1.5279 0.0000
2 14 2 -2.7131 0.0000
2 14 3 2.4622 0.0000
2 14 4 -0.5734 0.0000
2 14 5 0.2306 0.0000
2 14 6 -0.4726 0.0000
2 14 7 -0.2793 0.0000
2 14 8 0.5116 0.0000
2 15 0 1.0182 0.0000
2 15 1 -2.7998 0.0000
2 15 2 0.6476 0.0000
2 15 3 1.4723 0.0000
2 15 4 -1.0186 0.0000
2 15 5 1.1433 0.0000
2 15 6 -0.0601 0.0000
2 16 0 -0.1215 0.0000
2 16 1 1.2626 0.0000
2 16 2 0.6339 0.0000
2 16 3 0.2252 0.0000
2 16 4 -1.1137 0.0000
2 17 0 -0.9886 0.0000
2 17 1 1.7444 0.0000
2 17 2 -0.8485 0.0000
3 -21 4 0.2499 0.0000
3 -21 5 0.3721 0.0000
3 -21 6 -0.8212 0.0000
3 -21 7 -0.0606 0.0000
3 -21 8 0.0465 0.0000
3 -20 0 1.0653 0.0000
3 -20 1 -0.0151 0.0000
3 -20 2 1.0396 0.0000
3 -20 3 0.3920 0.0000
3 -20 4 0.4382 0.0000
3 -20 5 -0.1867 0.0000
3 -20 6 0.0336 0.0000
3 -20 7 0.6270 0.0000
3 -20 8 0.1335 0.0000
3 -20 9 -1.1877 0.0000
3 -20 10 0.1769 0.0000
3 -20 11 0.3778 0.0000
3 -20 12 0.1387 0.0000
3 -20 13 -0.4265 0.0000
3 -19 0 -0.5245 0.0000
3 -19 1 -1.0160 0.0000
3 -19 2 1.3248 0.0000
3 -19 3 -0.5627 0.0000
3 -19 4 -1.2537 0.0000
3 -19 5 -0.4211 0.0000
3 -19 6 0.2034 0.0000
3 -19 7 -0.5281 0.0000
3 -19 8 -1.0851 0.0000
3 -19 9 -0.4509 0.0000
3 -19 10 0.3144 0.0000
3 -19 11 -0.7447 0.0000
3 -19 12 -1.6094 0.0000
3 -19 13 -0.9538 0.0000
3 -19 14 -0.3254 0.0000
3 -19 15 0.7594 0.0000
3 -18 0 -1.0269 0.0000
3 -18 1 0.5037 0.0000
3 -18 2 1.1399 0.0000
3 -18 3 -0.1103 0.0000
3 -18 4 -0.5634 0.0000
3 -18 5 1.5928 0.0000
3 -18 6 -0.8181 0.0000
3 -18 7 -0.2622 0.0000
3 -18 8 -0.5173 0.0000
3 -18 9 2.0219 0.0000
3 -18 10 -0.1261 0.0000
3 -18 11 0.4833 0.0000
3 -18 12 0.5153 0.0000
3 -18 13 0.2829 0.0000
3 -18 14 -0.1836 0.0000
3 -18 15 -0.8887 0.0000
3 -18 16 0.2381 0.0000
3 -17 0 0.5188 0.0000
3 -17 1 1.3772 0.0000
3 -17 2 -1.1208 0.0000
3 -17 3 1.1545 0.0000
3 -17 4 1.4979 0.0000
3 -17 5 0.5399 0.0000
3 -17 6 0.1732 0.0000
3 -17 7 -0.1860 0.0000
3 -17 8 1.4682 0.0000
3 -17 9 -0.7232 0.0000
3 -17 10 -1.1369 0.0000
3 -17 11 0.0703 0.0000
3 -17 12 1.3234 0.0000
3 -17 13 0.0810 0.0000
3 -17 14 0.3577 0.0000
3 -17 15 1.1929 0.0000
3 -17 16 2.9925 0.0000
3 -17 17 0.8836 0.0000
3 -16 0 2.2456 0.0000
3 -16 1 -1.1413 0.0000
3 -16 2 -2.6598 0.0000
3 -16 3 -0.3333 0.0000
3 -16 4 -0.7715 0.0000
3 -16 5 -3.2089 0.0000
3 -16 6 -0.1854 0.0000
3 -16 7 -0.5639 0.0000
3 -16 8 0.8441 0.0000
3 -16 9 -1.7252 0.0000
3 -16 10 0.1150 0.0000
3 -16 11 0.7342 0.0000
3 -16 12 -0.0738 0.0000
3 -16 13 -0.3902 0.0000
3 -16 14 -0.1585 0.0000
3 -16 15 0.4619 0.0000
3 -16 16 -0.0123 0.0000
3 -16 17 -1.4316 0.0000
3 -16 18 1.2045 0.0000
3 -15 0 -1.2743 0.0000
3 -15 1 -1.3131 0.0000
3 -15 2 1.8658 0.0000
3 -15 3 1.3062 0.0000
3 -15 4 1.0624 0.0000
3 -15 5 -0.2442 0.0000
3 -15 6 1.7065 0.0000
3 -15 7 0.1479 0.0000
3 -15 8 -0.5744 0.0000
3 -15 9 -0.0018 0.0000
3 -15 10 0.7747 0.0000
3 -15 11 0.2820 0.0000
3 -15 12 -0.0560 0.0000
3 -15 13 0.4932 0.0000
3 -15 14 0.5323 0.0000
3 -15 15 -0.7468 0.0000
3 -15 16 -2.2579 0.0000
3 -15 17 -0.1846 0.0000
3 -15 18 -0.5590 0.0000
3 -15 19 0.3102 0.0000
3 -14 0 -3.6731 0.0000
3 -14 1 0.7979 0.0000
3 -14 2 1.7959 0.0000
3 -14 3 -2.4061 0.0000
3 -14 4 0.0165 0.0000
3 -14 5 0.5457 0.0000
3 -14 6 2.3873 0.0000
3 -14 7 -1.8770 0.0000
3 -14 8 0.6399 0.0000
3 -14 9 2.3343 0.0000
3 -14 10 -0.4228 0.0000
3 -14 11 0.1812 0.0000
3 -14 12 -0.6649 0.0000
3 -14 13 0.2599 0.0000
3 -14 14 1.0198 0.0000
3 -14 15 -0.7292 0.0000
3 -14 16 -0.2529 0.0000
3 -14 17 1.6724 0.0000
3 -14 18 -1.6246 0.0000
3 -14 19 0.9017 0.0000
3 -14 20 -0.8437 0.0000
3 -13 0 0.0608 0.0000
3 -13 1 2.1574 0.0000
3 -13 2 -2.3877 0.0000
3 -13 3 -3.8549 0.0000
3 -13 4 -1.4106 0.0000
3 -13 5 0.1668 0.0000
3 -13 6 -1.4092 0.0000
3 -13 7 -4.2522 0.0000
3 -13 8 0.9240 0.0000
3 -13 9 0.8227 0.0000
3 -13 10 -2.9048 0.0000
3 -13 11 1.4737 0.0000
3 -13 12 -1.3747 0.0000
3 -13 13 -0.4334 0.0000
3 -13 14 -0.1859 0.0000
3 -13 15 -0.2057 0.0000
3 -13 16 0.4188 0.0000
3 -13 17 0.7542 0.0000
3 -13 18 -0.8475 0.0000
3 -13 19 0.0926 0.0000
3 -13 20 -0.4857 0.0000
3 -12 0 4.1869 0.0000
3 -12 1 0.8833 0.0000
3 -12 2 -1.3456 0.0000
3 -12 3 3.2477 0.0000
3 -12 4 2.5126 0.0000
3 -12 5 0.0221 0.0000
3 -12 6 -1.5849 0.0000
3 -12 7 2.1329 0.0000
3 -12 8 0.4508 0.0000
3 -12 9 -1.2152 0.0000
3 -12 10 -3.0332 0.0000
3 -12 11 -0.1688 0.0000
3 -12 12 0.1923 0.0000
3 -12 13 -1.9965 0.0000
3 -12 14 -0.4374 0.0000
3 -12 15 0.2062 0.0000
3 -12 16 -0.6104 0.0000
3 -12 17 0.3235 0.0000
3 -12 18 0.0660 0.0000
3 -12 19 -0.2242 0.0000
3 -12 20 1.3281 0.0000
3 -12 21 -0.4492 0.0000
3 -11 0 -4.9339 0.0000
3 -11 1 -4.6621 0.0000
3 -11 2 0.6894 0.0000
3 -11 3 4.7379 0.0000
3 -11 4 1.0606 0.0000
3 -11 5 -3.1306 0.0000
3 -11 6 2.7229 0.0000
3 -11 7 7.3670 0.0000
3 -11 8 -4.2196 0.0000
3 -11 9 1.9180 0.0000
3 -11 10 1.4537 0.0000
3 -11 11 -0.3684 0.0000
3 -11 12 3.4173 0.0000
3 -11 13 -2.2755 0.0000
3 -11 14 1.1093 0.0000
3 -11 15 0.6089 0.0000
3 -11 16 0.1681 0.0000
3 -11 17 1.3027 0.0000
3 -11 18 0.7367 0.0000
3 -11 19 -0.0579 0.0000
3 -11 20 1.5256 0.0000
3 -11 21 -0.5688 0.0000
3 -10 0 -5.8594 0.0000
3 -10 1 -1.8068 0.0000
3 -10 2 3.8659 0.0000
3 -10 3 -5.2547 0.0000
3 -10 4 -0.9459 0.0000
3 -10 5 -6.8773 0.0000
3 -10 6 5.5776 0.0000
3 -10 7 -2.7202 0.0000
3 -10 8 -5.2252 0.0000
3 -10 9 3.8531 0.0000
3 -10 10 4.1275 0.0000
3 -10 11 -1.4713 0.0000
3 -10 12 3.2340 0.0000
3 -10 13 0.3066 0.0000
3 -10 14 2.1926 0.0000
3 -10 15 -0.0563 0.0000
3 -10 16 -1.4394 0.0000
3 -10 17 0.3563 0.0000
3 -10 18 -0.1625 0.0000
3 -10 19 -0.1950 0.0000
3 -10 20 -0.0598 0.0000
3 -10 21 0.3609 0.0000
3 -9 0 11.4304 0.0000
3 -9 1 4.3469 0.0000
3 -9 2 4.4725 0.0000
3 -9 3 -3.2875 0.0000
3 -9 4 6.4613 0.0000
3 -9 5 6.6910 0.0000
3 -9 6 3.9385 0.0000
3 -9 7 -6.5627 0.0000
3 -9 8 4.7440 0.0000
3 -9 9 -1.6333 0.0000
3 -9 10 1.7696 0.0000
3 -9 11 -5.0858 0.0000
3 -9 12 -1.7632 0.0000
3 -9 13 1.3043 0.0000
3 -9 14 -1.1405 0.0000
3 -9 15 -0.0705 0.0000
3 -9 16 -1.2774 0.0000
3 -9 17 -1.2593 0.0000
3 -9 18 -0.1924 0.0000
3 -9 19 -2.1367 0.0000
3 -9 20 -1.1859 0.0000
3 -9 21 -0.2007 0.0000
3 -8 0 26.2491 0.0000
3 -8 1 -7.3291 0.0000
3 -8 2 3.4388 0.0000
3 -8 3 -2.1896 0.0000
3 -8 4 0.0236 0.0000
3 -8 5 8.9944 0.0000
3 -8 6 -12.1072 0.0000
3 -8 7 3.0397 0.0000
3 -8 8 10.4435 0.0000
3 -8 9 -8.6967 0.0000
3 -8 10 3.3690 0.0000
3 -8 11 -3.7656 0.0000
3 -8 12 -1.0613 0.0000
3 -8 13 0.8153 0.0000
3 -8 14 -4.6364 0.0000
3 -8 15 0.3021 0.0000
3 -8 16 -0.0799 0.0000
3 -8 17 -1.5870 0.0000
3 -8 18 1.0526 0.0000
3 -8 19 -1.0829 0.0000
3 -8 20 -0.1004 0.0000
3 -8 21 0.1296 0.0000
3 -7 0 -4.1984 0.0000
3 -7 1 -21.9022 0.0000
3 -7 2 3.8148 0.0000
3 -7 3 -7.4465 0.0000
3 -7 4 -12.6885 0.0000
3 -7 5 -0.4796 0.0000
3 -7 6 -24.4281 0.0000
3 -7 7 9.4211 0.0000
3 -7 8 -7.1808 0.0000
3 -7 9 -9.7742 0.0000
3 -7 10 2.4838 0.0000
3 -7 11 -0.2466 0.0000
3 -7 12 0.4397 0.0000
3 -7 13 1.3458 0.0000
3 -7 14 -2.0383 0.0000
3 -7 15 3.2481 0.0000
3 -7 16 0.7331 0.0000
3 -7 17 0.7615 0.0000
3 -7 18 0.6573 0.0000
3 -7 19 0.5809 0.0000
3 -7 20 1.3263 0.0000
3 -7 21 0.3700 0.0000
3 -6 0 -40.5658 0.0000
3 -6 1 11.5267 0.0000
3 -6 2 -2.9444 0.0000
3 -6 3 8.6594 0.0000
3 -6 4 -9.1988 0.0000
3 -6 5 6.6014 0.0000
3 -6 6 0.6497 0.0000
3 -6 7 9.4602 0.0000
3 -6 8 -7.7919 0.0000
3 -6 9 5.4782 0.0000
3 -6 10 4.4948 0.0000
3 -6 11 3.7581 0.0000
3 -6 12 0.3222 0.0000
3 -6 13 1.3304 0.0000
3 -6 14 1.8080 0.0000
3 -6 15 1.5610 0.0000
3 -6 16 0.9010 0.0000
3 -6 17 1.9129 0.0000
3 -6 18 0.5465 0.0000
3 -6 19 0.9474 0.0000
3 -6 20 2.1841 0.0000
3 -6 21 0.3338 0.0000
3 -5 0 -6.7710 0.0000
3 -5 1 41.9854 0.0000
3 -5 2 -20.7619 0.0000
3 -5 3 35.8188 0.0000
3 -5 4 -4.9768 0.0000
3 -5 5 22.5196 0.0000
3 -5 6 25.3095 0.0000
3 -5 7 -3.5665 0.0000
3 -5 8 10.0626 0.0000
3 -5 9 9.8348 0.0000
3 -5 10 -0.1574 0.0000
3 -5 11 2.6541 0.0000
3 -5 12 -0.1265 0.0000
3 -5 13 2.3811 0.0000
3 -5 14 2.1806 0.0000
3 -5 15 -1.6132 0.0000
3 -5 16 -0.0340 0.0000
3 -5 17 -0.4387 0.0000
3 -5 18 -0.3515 0.0000
3 -5 19 -1.0819 0.0000
3 -5 20 -0.5485 0.0000
3 -5 21 -1.7746 0.0000
3 -4 0 57.4694 0.0000
3 -4 1 -9.0194 0.0000
3 -4 2 -35.5334 0.0000
3 -4 3 11.6374 0.0000
3 -4 4 -31.9555 0.0000
3 -4 5 -4.2829 0.0000
3 -4 6 -3.1867 0.0000
3 -4 7 -26.8593 0.0000
3 -4 8 13.9559 0.0000
3 -4 9 -8.1061 0.0000
3 -4 10 -5.5291 0.0000
3 -4 11 -3.3624 0.0000
3 -4 12 -0.6463 0.0000
3 -4 13 -3.0287 0.0000
3 -4 14 -1.0735 0.0000
3 -4 15 -4.0027 0.0000
3 -4 16 0.6472 0.0000
3 -4 17 -2.2591 0.0000
3 -4 18 0.4374 0.0000
3 -4 19 -0.5561 0.0000
3 -4 20 -0.7709 0.0000
3 -4 21 -1.4809 0.0000
3 -3 0 56.3375 0.0000
3 -3 1 -24.7538 0.0000
3 -3 2 27.2146 0.0000
3 -3 3 16.3567 0.0000
3 -3 4 4.4368 0.0000
3 -3 5 -11.3964 0.0000
3 -3 6 -6.1740 0.0000
3 -3 7 -17.6931 0.0000
3 -3 8 6.1489 0.0000
3 -3 9 -17.6462 0.0000
3 -3 10 -1.7752 0.0000
3 -3 11 -1.6327 0.0000
3 -3 12 0.5663 0.0000
3 -3 13 -3.3520 0.0000
3 -3 14 -0.4912 0.0000
3 -3 15 -0.6311 0.0000
3 -3 16 1.3271 0.0000
3 -3 17 -0.8839 0.0000
3 -3 18 -0.4433 0.0000
3 -3 19 1.7466 0.0000
3 -3 20 0.0963 0.0000
3 -3 21 1.2254 0.0000
3 -2 0 -73.6047 0.0000
3 -2 1 -44.9534 0.0000
3 -2 2 2.0021 0.0000
3 -2 3 -21.8309 0.0000
3 -2 4 17.1551 0.0000
3 -2 5 -16.3549 0.0000
3 -2 6 18.5833 0.0000
3 -2 7 7.0941 0.0000
3 -2 8 3.6681 0.0000
3 -2 9 0.4731 0.0000
3 -2 10 5.3574 0.0000
3 -2 11 3.3387 0.0000
3 -2 12 -0.5539 0.0000
3 -2 13 1.3003 0.0000
3 -2 14 2.4314 0.0000
3 -2 15 2.1738 0.0000
3 -2 16 0.9858 0.0000
3 -2 17 0.0634 0.0000
3 -2 18 -0.2720 0.0000
3 -2 19 0.1954 0.0000
3 -2 20 -0.8654 0.0000
3 -1 0 -32.1932 0.0000
3 -1 1 54.7163 0.0000
3 -1 2 -10.3348 0.0000
3 -1 3 -10.9499 0.0000
3 -1 4 14.9214 0.0000
3 -1 5 -9.3118 0.0000
3 -1 6 21.3715 0.0000
3 -1 7 2.5920 0.0000
3 -1 8 -4.0152 0.0000
3 -1 9 11.7726 0.0000
3 -1 10 0.8908 0.0000
3 -1 11 3.3508 0.0000
3 -1 12 -1.1387 0.0000
3 -1 13 2.8711 0.0000
3 -1 14 0.3072 0.0000
3 -1 15 -0.1395 0.0000
3 -1 16 -1.6102 0.0000
3 -1 17 0.4932 0.0000
3 -1 18 -0.0351 0.0000
3 -1 19 -0.5757 0.0000
3 -1 20 -0.1062 0.0000
3 0 0 15.9443 0.0000
3 0 1 71.2544 0.0000
3 0 2 -31.8850 0.0000
3 0 3 9.5797 0.0000
3 0 4 4.7698 0.0000
3 0 5 -5.3801 0.0000
3 0 6 0.8606 0.0000
3 0 7 -7.3213 0.0000
3 0 8 -5.2257 0.0000
3 0 9 7.2884 0.0000
3 0 10 -8.8288 0.0000
3 0 11 -0.2543 0.0000
3 0 12 -2.3204 0.0000
3 0 13 -0.4180 0.0000
3 0 14 -2.3692 0.0000
3 0 15 -1.7132 0.0000
3 0 16 -0.7540 0.0000
3 0 17 0.5389 0.0000
3 0 18 0.2053 0.0000
3 0 19 -0.8428 0.0000
3 1 0 3.3739 0.0000
3 1 1 22.9970 0.0000
3 1 2 -28.1582 0.0000
3 1 3 24.5644 0.0000
3 1 4 1.7536 0.0000
3 1 5 -1.3555 0.0000
3 1 6 -7.4897 0.0000
3 1 7 1.1901 0.0000
3 1 8 -1.7983 0.0000
3 1 9 1.1909 0.0000
3 1 10 -6.3408 0.0000
3 1 11 1.6354 0.0000
3 1 12 -0.3170 0.0000
3 1 13 -1.3984 0.0000
3 1 14 0.5307 0.0000
3 1 15 0.2725 0.0000
3 1 16 1.1090 0.0000
3 1 17 -0.3723 0.0000
3 1 18 -0.5284 0.0000
3 1 19 -0.8639 0.0000
3 2 0 -53.6635 0.0000
3 2 1 -20.8138 0.0000
3 2 2 -13.1465 0.0000
3 2 3 3.2346 0.0000
3 2 4 -8.7240 0.0000
3 2 5 -5.1240 0.0000
3 2 6 -0.8793 0.0000
3 2 7 6.5283 0.0000
3 2 8 -2.9484 0.0000
3 2 9 -1.5767 0.0000
3 2 10 0.7399 0.0000
3 2 11 2.6530 0.0000
3 2 12 0.2015 0.0000
3 2 13 -1.8691 0.0000
3 2 14 1.7277 0.0000
3 2 15 -0.1302 0.0000
3 2 16 0.2389 0.0000
3 2 17 -0.2208 0.0000
3 2 18 -0.1583 0.0000
3 3 0 -30.8099 0.0000
3 3 1 5.3767 0.0000
3 3 2 20.0661 0.0000
3 3 3 -12.0747 0.0000
3 3 4 -1.0926 0.0000
3 3 5 -1.8046 0.0000
3 3 6 6.2361 0.0000
3 3 7 -0.7645 0.0000
3 3 8 -1.1167 0.0000
3 3 9 -0.5034 0.0000
3 3 10 4.9263 0.0000
3 3 11 0.0778 0.0000
3 3 12 0.8682 0.0000
3 3 13 -0.2240 0.0000
3 3 14 2.1167 0.0000
3 3 15 0.1329 0.0000
3 3 16 0.2143 0.0000
3 3 17 -0.0620 0.0000
3 3 18 1.0077 0.0000
3 4 0 0.0127 0.0000
3 4 1 9.4243 0.0000
3 4 2 18.1085 0.0000
3 4 3 -16.9291 0.0000
3 4 4 12.7394 0.0000
3 4 5 1.9503 0.0000
3 4 6 5.2045 0.0000
3 4 7 -4.9784 0.0000
3 4 8 4.1887 0.0000
3 4 9 -0.3870 0.0000
3 4 10 1.7762 0.0000
3 4 11 -2.8611 0.0000
3 4 12 1.2522 0.0000
3 4 13 0.9869 0.0000
3 4 14 0.7636 0.0000
3 4 15 -0.7057 0.0000
3 4 16 -0.0057 0.0000
3 4 17 0.0084 0.0000
3 5 0 18.1286 0.0000
3 5 1 -4.4270 0.0000
3 5 2 2.6907 0.0000
3 5 3 -7.6742 0.0000
3 5 4 10.2081 0.0000
3 5 5 -1.8373 0.0000
3 5 6 -3.8444 0.0000
3 5 7 -1.2103 0.0000
3 5 8 2.9494 0.0000
3 5 9 -0.0508 0.0000
3 5 10 -1.9786 0.0000
3 5 11 -1.1592 0.0000
3 5 12 -0.0158 0.0000
3 5 13 -0.3936 0.0000
3 5 14 -0.7737 0.0000
3 5 15 -1.1330 0.0000
3 5 16 -0.4177 0.0000
3 5 17 0.4183 0.0000
3 6 0 9.5802 0.0000
3 6 1 -12.1947 0.0000
3 6 2 -2.0626 0.0000
3 6 3 1.3869 0.0000
3 6 4 -1.3085 0.0000
3 6 5 -3.8204 0.0000
3 6 6 -4.6597 0.0000
3 6 7 1.9620 0.0000
3 6 8 -2.2101 0.0000
3 6 9 -1.5402 0.0000
3 6 10 -1.2880 0.0000
3 6 11 1.3332 0.0000
3 6 12 0.4027 0.0000
3 6 13 -0.8178 0.0000
3 6 14 1.0197 0.0000
3 6 15 0.5412 0.0000
3 6 16 1.0655 0.0000
3 7 0 -4.4471 0.0000
3 7 1 -4.9070 0.0000
3 7 2 1.6176 0.0000
3 7 3 3.6224 0.0000
3 7 4 -3.0625 0.0000
3 7 5 1.4300 0.0000
3 7 6 0.5772 0.0000
3 7 7 3.7686 0.0000
3 7 8 -2.5471 0.0000
3 7 9 2.5217 0.0000
3 7 10 0.6143 0.0000
3 7 11 0.9462 0.0000
3 7 12 0.6561 0.0000
3 7 13 -1.5521 0.0000
3 7 14 1.7264 0.0000
3 7 15 -1.2416 0.0000
3 8 0 -6.9644 0.0000
3 8 1 4.1416 0.0000
3 8 2 -2.6502 0.0000
3 8 3 0.2685 0.0000
3 8 4 -1.8674 0.0000
3 8 5 3.6102 0.0000
3 8 6 -0.3866 0.0000
3 8 7 0.2009 0.0000
3 8 8 -1.0630 0.0000
3 8 9 2.5804 0.0000
3 8 10 -0.6336 0.0000
3 8 11 -1.3263 0.0000
3 8 12 0.0836 0.0000
3 8 13 -1.3089 0.0000
3 8 14 0.4437 0.0000
3 9 0 4.8062 0.0000
3 9 1 7.5157 0.0000
3 9 2 -1.0115 0.0000
3 9 3 -0.8667 0.0000
3 9 4 2.2837 0.0000
3 9 5 -0.8636 0.0000
3 9 6 -1.0183 0.0000
3 9 7 -2.8388 0.0000
3 9 8 0.4955 0.0000
3 9 9 -0.5989 0.0000
3 9 10 -1.5879 0.0000
3 9 11 -0.6842 0.0000
3 9 12 0.5420 0.0000
3 9 13 -0.0464 0.0000
3 10 0 -0.2644 0.0000
3 10 1 -2.0011 0.0000
3 10 2 -1.3632 0.0000
3 10 3 1.3915 0.0000
3 10 4 2.1323 0.0000
3 10 5 -1.1782 0.0000
3 10 6 2.1192 0.0000
3 10 7 0.2504 0.0000
3 10 8 1.1140 0.0000
3 10 9 -0.2272 0.0000
3 10 10 -0.5048 0.0000
3 10 11 1.5156 0.0000
3 10 12 0.4508 0.0000
3 11 0 -1.5095 0.0000
3 11 1 -2.5851 0.0000
3 11 2 1.6671 0.0000
3 11 3 1.3597 0.0000
3 11 4 -2.4858 0.0000
3 11 5 -2.5305 0.0000
3 11 6 1.4629 0.0000
3 11 7 -0.1247 0.0000
3 11 8 -0.6036 0.0000
3 11 9 -0.0727 0.0000
3 11 10 -1.1345 0.0000
3 11 11 1.3179 0.0000
3 12 0 -0.4530 0.0000
3 12 1 -2.5181 0.0000
3 12 2 0.9291 0.0000
3 12 3 -2.2310 0.0000
3 12 4 -2.0391 0.0000
3 12 5 1.1298 0.0000
3 12 6 0.6279 0.0000
3 12 7 1.7485 0.0000
3 12 8 -1.1135 0.0000
3 12 9 0.7062 0.0000
3 13 0 0.0835 0.0000
3 13 1 3.8074 0.0000
3 13 2 -1.6625 0.0000
3 13 3 0.1555 0.0000
3 13 4 0.5067 0.0000
3 13 5 0.9776 0.0000
3 13 6 -0.5037 0.0000
3 13 7 -1.2182 0.0000
3 13 8 -1.2346 0.0000
3 14 0 1.2003 0.0000
3 14 1 0.9194 0.0000
3 14 2 -1.7626 0.0000
3 14 3 2.4967 0.0000
3 14 4 0.6216 0.0000
3 14 5 1.5317 0.0000
3 14 6 0.3258 0.0000
3 15 0 1.6555 0.0000
3 15 1 -0.7581 0.0000
3 15 2 -0.2036 0.0000
3 15 3 1.5307 0.0000
3 15 4 -2.0042 0.0000
3 15 5 -1.1404 0.0000
3 16 0 -1.1458 0.0000
3 16 1 0.7734 0.0000
3 16 2 0.2863 0.0000
3 16 3 0.6686 0.0000
3 17 0 -1.3377 0.0000
4 -21 2 0.6114 0.0000
4 -21 3 -0.0247 0.0000
4 -21 4 -0.1531 0.0000
4 -21 5 0.4113 0.0000
4 -21 6 -0.1535 0.0000
4 -21 7 0.0527 0.0000
4 -21 8 0.6009 0.0000
4 -21 9 0.0034 0.0000
4 -21 10 -1.0363 0.0000
4 -20 0 0.6728 0.0000
4 -20 1 -1.1433 0.0000
4 -20 2 0.1952 0.0000
4 -20 3 0.0519 0.0000
4 -20 4 -0.2960 0.0000
4 -20 5 -1.3112 0.0000
4 -20 6 -0.6074 0.0000
4 -20 7 -0.7639 0.0000
4 -20 8 0.6871 0.0000
4 -20 9 -1.3216 0.0000
4 -20 10 -0.1009 0.0000
4 -20 11 0.2470 0.0000
4 -20 12 0.0364 0.0000
4 -20 13 -0.5734 0.0000
4 -19 0 -0.4726 0.0000
4 -19 1 -1.9597 0.0000
4 -19 2 1.5043 0.0000
4 -19 3 0.6923 0.0000
4 -19 4 -0.6880 0.0000
4 -19 5 0.1089 0.0000
4 -19 6 0.6783 0.0000
4 -19 7 0.2168 0.0000
4 -19 8 -0.7088 0.0000
4 -19 9 -0.4996 0.0000
4 -19 10 0.9100 0.0000
4 -19 11 0.7656 0.0000
4 -19 12 -0.2053 0.0000
4 -19 13 0.1608 0.0000
4 -19 14 0.0050 0.0000
4 -19 15 0.8624 0.0000
4 -18 0 -1.2543 0.0000
4 -18 1 0.3641 0.0000
4 -18 2 0.1336 0.0000
4 -18 3 0.2169 0.0000
4 -18 4 -0.9173 0.0000
4 -18 5 1.7978 0.0000
4 -18 6 0.4073 0.0000
4 -18 7 -0.5811 0.0000
4 -18 8 -0.4854 0.0000
4 -18 9 0.7468 0.0000
4 -18 10 1.1548 0.0000
4 -18 11 -0.4681 0.0000
4 -18 12 0.7970 0.0000
4 -18 13 1.1658 0.0000
4 -18 14 1.0050 0.0000
4 -18 15 -0.3793 0.0000
4 -18 16 1.6240 0.0000
4 -17 0 0.5354 0.0000
4 -17 1 1.8367 0.0000
4 -17 2 -2.5863 0.0000
4 -17 3 -1.2823 0.0000
4 -17 4 -0.0615 0.0000
4 -17 5 -0.8443 0.0000
4 -17 6 -0.4832 0.0000
4 -17 7 -1.7167 0.0000
4 -17 8 1.9499 0.0000
4 -17 9 -0.2092 0.0000
4 -17 10 -0.5659 0.0000
4 -17 11 -0.8266 0.0000
4 -17 12 0.6764 0.0000
4 -17 13 0.3039 0.0000
4 -17 14 -0.8493 0.0000
4 -17 15 -1.4110 0.0000
4 -17 16 0.8960 0.0000
4 -17 17 -0.3398 0.0000
4 -16 0 1.3008 0.0000
4 -16 1 0.1504 0.0000
4 -16 2 -1.3463 0.0000
4 -16 3 1.6063 0.0000
4 -16 4 2.5235 0.0000
4 -16 5 -0.2536 0.0000
4 -16 6 0.1229 0.0000
4 -16 7 0.8072 0.0000
4 -16 8 1.4040 0.0000
4 -16 9 -1.0808 0.0000
4 -16 10 -0.7282 0.0000
4 -16 11 0.2587 0.0000
4 -16 12 -0.1775 0.0000
4 -16 13 -1.0427 0.0000
4 -16 14 -0.5755 0.0000
4 -16 15 -0.5350 0.0000
4 -16 16 -0.0524 0.0000
4 -16 17 -1.5641 0.0000
4 -16 18 -0.5087 0.0000
4 -15 0 -1.5665 0.0000
4 -15 1 -1.9598 0.0000
4 -15 2 0.1065 0.0000
4 -15 3 0.0884 0.0000
4 -15 4 0.0936 0.0000
4 -15 5 -1.5745 0.0000
4 -15 6 1.6827 0.0000
4 -15 7 1.0981 0.0000
4 -15 8 -0.6904 0.0000
4 -15 9 0.5235 0.0000
4 -15 10 0.9138 0.0000
4 -15 11 0.1167 0.0000
4 -15 12 -0.3917 0.0000
4 -15 13 -0.5426 0.0000
4 -15 14 1.1813 0.0000
4 -15 15 0.5333 0.0000
4 -15 16 -0.9079 0.0000
4 -15 17 0.5946 0.0000
4 -15 18 -0.7428 0.0000
4 -15 19 -0.1285 0.0000
4 -14 0 -2.8056 0.0000
4 -14 1 0.7274 0.0000
4 -14 2 1.7931 0.0000
4 -14 3 -1.5440 0.0000
4 -14 4 -2.5488 0.0000
4 -14 5 -1.4029 0.0000
4 -14 6 1.9143 0.0000
4 -14 7 -2.9477 0.0000
4 -14 8 -2.9258 0.0000
4 -14 9 1.8102 0.0000
4 -14 10 -1.1520 0.0000
4 -14 11 -0.3662 0.0000
4 -14 12 -0.1872 0.0000
4 -14 13 -0.3412 0.0000
4 -14 14 0.3133 0.0000
4 -14 15 0.0770 0.0000
4 -14 16 -0.8990 0.0000
4 -14 17 1.5941 0.0000
4 -14 18 -0.7810 0.0000
4 -14 19 0.4851 0.0000
4 -13 0 1.3712 0.0000
4 -13 1 4.5808 0.0000
4 -13 2 1.4927 0.0000
4 -13 3 0.1831 0.0000
4 -13 4 0.6974 0.0000
4 -13 5 1.9020 0.0000
4 -13 6 0.7216 0.0000
4 -13 7 -2.7000 0.0000
4 -13 8 -0.3046 0.0000
4 -13 9 1.7110 0.0000
4 -13 10 -3.3192 0.0000
4 -13 11 -0.7008 0.0000
4 -13 12 0.3639 0.0000
4 -13 13 -0.7393 0.0000
4 -13 14 -0.8586 0.0000
4 -13 15 0.5003 0.0000
4 -13 16 -0.3265 0.0000
4 -13 17 1.0155 0.0000
4 -13 18 0.0090 0.0000
4 -13 19 0.6553 0.0000
4 -13 20 0.0891 0.0000
4 -12 0 1.5062 0.0000
4 -12 1 -1.2556 0.0000
4 -12 2 -3.7726 0.0000
4 -12 3 1.3799 0.0000
4 -12 4 3.3507 0.0000
4 -12 5 1.6884 0.0000
4 -12 6 -2.1499 0.0000
4 -12 7 5.1032 0.0000
4 -12 8 2.6357 0.0000
4 -12 9 1.5180 0.0000
4 -12 10 1.1892 0.0000
4 -12 11 -0.0811 0.0000
4 -12 12 2.7719 0.0000
4 -12 13 -0.5138 0.0000
4 -12 14 -0.3336 0.0000
4 -12 15 0.9937 0.0000
4 -12 16 0.2691 0.0000
4 -12 17 0.0582 0.0000
4 -12 18 0.7567 0.0000
4 -12 19 -0.6833 0.0000
4 -12 20 0.9169 0.0000
4 -11 0 -0.4640 0.0000
4 -11 1 -5.7886 0.0000
4 -11 2 -0.5691 0.0000
4 -11 3 -0.4373 0.0000
4 -11 4 1.3370 0.0000
4 -11 5 -4.9318 0.0000
4 -11 6 -3.3287 0.0000
4 -11 7 7.1449 0.0000
4 -11 8 -2.7273 0.0000
4 -11 9 -1.5634 0.0000
4 -11 10 4.8063 0.0000
4 -11 11 -1.0553 0.0000
4 -11 12 3.6617 0.0000
4 -11 13 0.4669 0.0000
4 -11 14 0.6424 0.0000
4 -11 15 0.7279 0.0000
4 -11 16 -1.3671 0.0000
4 -11 17 -0.9087 0.0000
4 -11 18 0.3638 0.0000
4 -11 19 -1.0968 0.0000
4 -11 20 -0.0855 0.0000
4 -10 0 -1.0238 0.0000
4 -10 1 -0.1596 0.0000
4 -10 2 9.3622 0.0000
4 -10 3 -2.8352 0.0000
4 -10 4 3.8322 0.0000
4 -10 5 -2.7599 0.0000
4 -10 6 4.1912 0.0000
4 -10 7 -0.3959 0.0000
4 -10 8 -6.2072 0.0000
4 -10 9 -4.0597 0.0000
4 -10 10 1.8341 0.0000
4 -10 11 -4.4737 0.0000
4 -10 12 -2.1257 0.0000
4 -10 13 -1.4008 0.0000
4 -10 14 -0.6930 0.0000
4 -10 15 0.5543 0.0000
4 -10 16 -2.0414 0.0000
4 -10 17 -0.8247 0.0000
4 -10 18 -0.2908 0.0000
4 -10 19 -0.8676 0.0000
4 -10 20 -1.7448 0.0000
4 -10 21 0.0514 0.0000
4 -9 0 7.6306 0.0000
4 -9 1 5.2202 0.0000
4 -9 2 2.3115 0.0000
4 -9 3 -4.2377 0.0000
4 -9 4 -3.3140 0.0000
4 -9 5 2.4863 0.0000
4 -9 6 3.8334 0.0000
4 -9 7 -9.0533 0.0000
4 -9 8 5.8283 0.0000
4 -9 9 -1.3049 0.0000
4 -9 10 1.6038 0.0000
4 -9 11 -0.8170 0.0000
4 -9 12 -3.2999 0.0000
4 -9 13 0.9065 0.0000
4 -9 14 -1.2999 0.0000
4 -9 15 -0.0489 0.0000
4 -9 16 0.7374 0.0000
4 -9 17 -0.5240 0.0000
4 -9 18 1.2878 0.0000
4 -9 19 0.3906 0.0000
4 -9 20 0.0121 0.0000
4 -9 21 1.4219 0.0000
4 -8 0 10.5127 0.0000
4 -8 1 -14.7602 0.0000
4 -8 2 -11.4172 0.0000
4 -8 3 -1.2301 0.0000
4 -8 4 -14.4542 0.0000
4 -8 5 7.1046 0.0000
4 -8 6 -11.2400 0.0000
4 -8 7 -9.0325 0.0000
4 -8 8 11.0448 0.0000
4 -8 9 -4.9048 0.0000
4 -8 10 0.3288 0.0000
4 -8 11 3.7689 0.0000
4 -8 12 -1.3256 0.0000
4 -8 13 4.6641 0.0000
4 -8 14 -0.7925 0.0000
4 -8 15 1.3756 0.0000
4 -8 16 3.0118 0.0000
4 -8 17 0.3827 0.0000
4 -8 18 1.3041 0.0000
4 -8 19 0.9241 0.0000
4 -8 20 1.0154 0.0000
4 -8 21 0.9089 0.0000
4 -7 0 4.8658 0.0000
4 -7 1 -10.5649 0.0000
4 -7 2 3.9369 0.0000
4 -7 3 16.5829 0.0000
4 -7 4 -5.7705 0.0000
4 -7 5 15.7253 0.0000
4 -7 6 -9.2457 0.0000
4 -7 7 9.5934 0.0000
4 -7 8 6.2570 0.0000
4 -7 9 -4.0519 0.0000
4 -7 10 2.4270 0.0000
4 -7 11 5.2763 0.0000
4 -7 12 0.3096 0.0000
4 -7 13 3.1274 0.0000
4 -7 14 -0.6457 0.0000
4 -7 15 0.5929 0.0000
4 -7 16 0.7960 0.0000
4 -7 17 0.1259 0.0000
4 -7 18 0.3580 0.0000
4 -7 19 -0.2062 0.0000
4 -7 20 0.6743 0.0000
4 -7 21 -0.0771 0.0000
4 -6 0 -24.0469 0.0000
4 -6 1 26.0033 0.0000
4 -6 2 2.2923 0.0000
4 -6 3 22.6575 0.0000
4 -6 4 2.9774 0.0000
4 -6 5 8.2958 0.0000
4 -6 6 10.8149 0.0000
4 -6 7 12.9672 0.0000
4 -6 8 -3.6702 0.0000
4 -6 9 2.3132 0.0000
4 -6 10 -0.2976 0.0000
4 -6 11 0.4370 0.0000
4 -6 12 -2.5264 0.0000
4 -6 13 -1.2494 0.0000
4 -6 14 -0.3014 0.0000
4 -6 15 -0.8484 0.0000
4 -6 16 -1.5898 0.0000
4 -6 17 -0.5929 0.0000
4 -6 18 -0.6260 0.0000
4 -6 19 -1.7827 0.0000
4 -6 20 -0.9333 0.0000
4 -6 21 -1.4108 0.0000
4 -5 0 -26.7353 0.0000
4 -5 1 34.5776 0.0000
4 -5 2 -39.2132 0.0000
4 -5 3 -2.7239 0.0000
4 -5 4 -20.2867 0.0000
4 -5 5 -24.9933 0.0000
4 -5 6 6.9982 0.0000
4 -5 7 -19.5947 0.0000
4 -5 8 -9.4631 0.0000
4 -5 9 2.9713 0.0000
4 -5 10 -5.8609 0.0000
4 -5 11 -4.0504 0.0000
4 -5 12 -3.2965 0.0000
4 -5 13 -3.6200 0.0000
4 -5 14 -0.1819 0.0000
4 -5 15 -3.1202 0.0000
4 -5 16 -0.7570 0.0000
4 -5 17 -1.3234 0.0000
4 -5 18 0.6337 0.0000
4 -5 19 -0.7924 0.0000
4 -5 20 0.2044 0.0000
4 -4 0 24.3008 0.0000
4 -4 1 17.9773 0.0000
4 -4 2 -21.7776 0.0000
4 -4 3 12.3499 0.0000
4 -4 4 3.0294 0.0000
4 -4 5 -11.6653 0.0000
4 -4 6 10.7943 0.0000
4 -4 7 -25.1646 0.0000
4 -4 8 5.3559 0.0000
4 -4 9 -0.9709 0.0000
4 -4 10 -3.4031 0.0000
4 -4 11 -1.1966 0.0000
4 -4 12 4.2646 0.0000
4 -4 13 0.5519 0.0000
4 -4 14 3.1320 0.0000
4 -4 15 -1.4103 0.0000
4 -4 16 1.6994 0.0000
4 -4 17 -0.0261 0.0000
4 -4 18 -0.2446 0.0000
4 -4 19 1.0494 0.0000
4 -4 20 1.4776 0.0000
4 -3 0 15.4428 0.0000
4 -3 1 -39.9824 0.0000
4 -3 2 0.4498 0.0000
4 -3 3 -0.6209 0.0000
4 -3 4 24.6837 0.0000
4 -3 5 0.9243 0.0000
4 -3 6 16.5025 0.0000
4 -3 7 2.9264 0.0000
4 -3 8 17.6858 0.0000
4 -3 9 0.4023 0.0000
4 -3 10 2.4543 0.0000
4 -3 11 3.1301 0.0000
4 -3 12 3.7496 0.0000
4 -3 13 0.1943 0.0000
4 -3 14 1.5684 0.0000
4 -3 15 0.3071 0.0000
4 -3 16 1.9937 0.0000
4 -3 17 1.1650 0.0000
4 -3 18 -1.7603 0.0000
4 -3 19 0.5579 0.0000
4 -3 20 -0.2509 0.0000
4 -2 0 -4.6985 0.0000
4 -2 1 -11.9648 0.0000
4 -2 2 25.8764 0.0000
4 -2 3 -16.3129 0.0000
4 -2 4 16.4040 0.0000
4 -2 5 -11.6069 0.0000
4 -2 6 4.7537 0.0000
4 -2 7 9.1785 0.0000
4 -2 8 -1.7295 0.0000
4 -2 9 -0.4793 0.0000
4 -2 10 0.9562 0.0000
4 -2 11 2.6349 0.0000
4 -2 12 -2.0235 0.0000
4 -2 13 -1.7560 0.0000
4 -2 14 -1.1634 0.0000
4 -2 15 0.1366 0.0000
4 -2 16 -1.1352 0.0000
4 -2 17 0.1536 0.0000
4 -2 18 -1.1059 0.0000
4 -2 19 0.7907 0.0000
4 -2 20 -0.7895 0.0000
4 -1 0 -38.8585 0.0000
4 -1 1 34.4068 0.0000
4 -1 2 14.5197 0.0000
4 -1 3 -19.7809 0.0000
4 -1 4 1.8232 0.0000
4 -1 5 -14.8407 0.0000
4 -1 6 -3.6828 0.0000
4 -1 7 0.9943 0.0000
4 -1 8 -14.4853 0.0000
4 -1 9 3.6951 0.0000
4 -1 10 -3.0862 0.0000
4 -1 11 -0.8628 0.0000
4 -1 12 -3.9116 0.0000
4 -1 13 0.0690 0.0000
4 -1 14 -0.5804 0.0000
4 -1 15 0.6290 0.0000
4 -1 16 -1.9303 0.0000
4 -1 17 0.8451 0.0000
4 -1 18 0.5861 0.0000
4 -1 19 0.2897 0.0000
4 0 0 -29.5042 0.0000
4 0 1 43.1789 0.0000
4 0 2 -10.0766 0.0000
4 0 3 -3.5842 0.0000
4 0 4 9.6344 0.0000
4 0 5 3.4079 0.0000
4 0 6 -1.5675 0.0000
4 0 7 0.9325 0.0000
4 0 8 -6.6899 0.0000
4 0 9 6.9637 0.0000
4 0 10 -2.6480 0.0000
4 0 11 -0.8494 0.0000
4 0 12 1.0982 0.0000
4 0 13 1.0064 0.0000
4 0 14 0.8571 0.0000
4 0 15 0.0871 0.0000
4 0 16 0.2700 0.0000
4 0 17 0.4933 0.0000
4 0 18 0.6738 0.0000
4 0 19 -2.0280 0.0000
4 1 0 -23.1849 0.0000
4 1 1 -1.5743 0.0000
4 1 2 -31.7629 0.0000
4 1 3 -2.1153 0.0000
4 1 4 3.1249 0.0000
4 1 5 0.2412 0.0000
4 1 6 -6.3216 0.0000
4 1 7 2.9306 0.0000
4 1 8 -0.6139 0.0000
4 1 9 1.4776 0.0000
4 1 10 -1.8693 0.0000
4 1 11 0.2492 0.0000
4 1 12 3.4148 0.0000
4 1 13 -1.4459 0.0000
4 1 14 -0.0437 0.0000
4 1 15 0.2289 0.0000
4 1 16 0.3157 0.0000
4 1 17 0.0758 0.0000
4 1 18 0.3730 0.0000
4 2 0 6.2896 0.0000
4 2 1 -6.8574 0.0000
4 2 2 4.1189 0.0000
4 2 3 6.9599 0.0000
4 2 4 1.0872 0.0000
4 2 5 -4.0572 0.0000
4 2 6 -1.5316 0.0000
4 2 7 6.3786 0.0000
4 2 8 1.4420 0.0000
4 2 9 -0.2761 0.0000
4 2 10 1.7584 0.0000
4 2 11 1.5531 0.0000
4 2 12 3.0037 0.0000
4 2 13 -2.4770 0.0000
4 2 14 1.0048 0.0000
4 2 15 0.7981 0.0000
4 2 16 -0.0340 0.0000
4 2 17 -0.5570 0.0000
4 2 18 -0.4777 0.0000
4 3 0 -2.3126 0.0000
4 3 1 -8.5002 0.0000
4 3 2 25.7605 0.0000
4 3 3 -1.6136 0.0000
4 3 4 0.8962 0.0000
4 3 5 -1.2363 0.0000
4 3 6 6.3662 0.0000
4 3 7 1.2169 0.0000
4 3 8 0.2327 0.0000
4 3 9 -2.3090 0.0000
4 3 10 1.3488 0.0000
4 3 11 -1.6937 0.0000
4 3 12 -0.1632 0.0000
4 3 13 -0.9315 0.0000
4 3 14 0.7214 0.0000
4 3 15 0.3662 0.0000
4 3 16 0.5477 0.0000
4 3 17 -0.3480 0.0000
4 4 0 0.9962 0.0000
4 4 1 -7.3888 0.0000
4 4 2 16.2757 0.0000
4 4 3 -15.1503 0.0000
4 4 4 1.4781 0.0000
4 4 5 0.1321 0.0000
4 4 6 1.6899 0.0000
4 4 7 -5.7945 0.0000
4 4 8 -0.3866 0.0000
4 4 9 -0.6400 0.0000
4 4 10 0.1913 0.0000
4 4 11 -2.5759 0.0000
4 4 12 -1.1228 0.0000
4 4 13 -0.0054 0.0000
4 4 14 -0.2234 0.0000
4 4 15 -0.6195 0.0000
4 4 16 -0.7548 0.0000
4 5 0 7.2875 0.0000
4 5 1 -6.3578 0.0000
4 5 2 -2.2974 0.0000
4 5 3 -8.8646 0.0000
4 5 4 1.1121 0.0000
4 5 5 2.7172 0.0000
4 5 6 -4.4424 0.0000
4 5 7 -1.8653 0.0000
4 5 8 0.1861 0.0000
4 5 9 0.1735 0.0000
4 5 10 -0.9041 0.0000
4 5 11 0.4416 0.0000
4 5 12 1.2571 0.0000
4 5 13 0.8023 0.0000
4 5 14 0.2880 0.0000
4 5 15 0.2583 0.0000
4 5 16 -0.8555 0.0000
4 6 0 8.0958 0.0000
4 6 1 -3.4421 0.0000
4 6 2 -1.9811 0.0000
4 6 3 5.0177 0.0000
4 6 4 1.9779 0.0000
4 6 5 2.1557 0.0000
4 6 6 -2.6839 0.0000
4 6 7 3.8025 0.0000
4 6 8 1.4561 0.0000
4 6 9 0.8511 0.0000
4 6 10 0.5731 0.0000
4 6 11 1.2210 0.0000
4 6 12 0.6268 0.0000
4 6 13 -1.8178 0.0000
4 6 14 -0.1308 0.0000
4 6 15 -0.5314 0.0000
4 7 0 -1.5503 0.0000
4 7 1 -0.7964 0.0000
4 7 2 -0.9949 0.0000
4 7 3 3.9806 0.0000
4 7 4 -2.3786 0.0000
4 7 5 1.2164 0.0000
4 7 6 -0.8322 0.0000
4 7 7 2.3159 0.0000
4 7 8 -2.5601 0.0000
4 7 9 -0.3201 0.0000
4 7 10 0.2606 0.0000
4 7 11 -1.4891 0.0000
4 7 12 0.1460 0.0000
4 7 13 -2.0969 0.0000
4 7 14 1.5866 0.0000
4 8 0 -2.7587 0.0000
4 8 1 5.3489 0.0000
4 8 2 -0.0878 0.0000
4 8 3 -0.1602 0.0000
4 8 4 -2.4637 0.0000
4 8 5 0.9993 0.0000
4 8 6 0.2710 0.0000
4 8 7 -1.8512 0.0000
4 8 8 -1.3442 0.0000
4 8 9 0.3961 0.0000
4 8 10 1.0090 0.0000
4 8 11 -1.7916 0.0000
4 8 12 1.3793 0.0000
4 8 13 -0.3651 0.0000
4 9 0 -1.5958 0.0000
4 9 1 1.5194 0.0000
4 9 2 -0.1366 0.0000
4 9 3 -2.0179 0.0000
4 9 4 2.6103 0.0000
4 9 5 0.5196 0.0000
4 9 6 1.3617 0.0000
4 9 7 -0.9977 0.0000
4 9 8 0.7866 0.0000
4 9 9 1.0117 0.0000
4 9 10 0.2769 0.0000
4 9 11 -0.6581 0.0000
4 9 12 1.5578 0.0000
4 10 0 1.4889 0.0000
4 10 1 0.1794 0.0000
4 10 2 -1.7489 0.0000
4 10 3 -0.9359 0.0000
4 10 4 1.1719 0.0000
4 10 6 0.3583 0.0000
4 10 7 -1.0262 0.0000
4 10 8 0.6555 0.0000
4 10 9 -0.2359 0.0000
4 10 10 -1.3486 0.0000
4 10 11 -0.1298 0.0000
4 11 0 -0.0255 0.0000
4 11 1 -3.1221 0.0000
4 11 2 -0.6127 0.0000
4 11 3 1.0533 0.0000
4 11 4 0.9986 0.0000
4 11 5 -1.5200 0.0000
4 11 6 2.0542 0.0000
4 11 7 2.4242 0.0000
4 11 8 0.2000 0.0000
4 11 9 1.1895 0.0000
4 11 10 -0.9396 0.0000
4 12 0 -0.0520 0.0000
4 12 1 0.6940 0.0000
4 12 2 1.8252 0.0000
4 12 3 1.0200 0.0000
4 12 4 -1.3561 0.0000
4 12 5 1.0467 0.0000
4 12 6 -0.8831 0.0000
4 12 7 0.8279 0.0000
4 12 8 -2.0303 0.0000
4 13 0 -0.6656 0.0000
4 13 1 3.4794 0.0000
4 13 2 0.0145 0.0000
4 13 3 -0.1270 0.0000
4 13 4 0.6668 0.0000
4 13 5 1.8707 0.0000
4 13 6 1.3241 0.0000
4 13 7 1.4066 0.0000
4 14 0 0.3867 0.0000
4 14 1 0.3822 0.0000
4 14 2 -3.1012 0.0000
4 14 3 0.3936 0.0000
4 14 4 -1.8950 0.0000
4 14 5 -0.8100 0.0000
4 15 0 -0.1106 0.0000
4 15 1 -0.5062 0.0000
4 15 2 -0.5082 0.0000
4 15 3 1.7645 0.0000
4 16 0 -1.1099 0.0000
4 16 1 0.7116 0.0000
5 -21 0 -0.7870 0.0000
5 -21 1 0.0233 0.0000
5 -21 2 -0.1470 0.0000
5 -21 3 -0.2266 0.0000
5 -21 4 -0.4465 0.0000
5 -21 5 -0.8083 0.0000
5 -21 6 -0.6776 0.0000
5 -21 7 -1.1391 0.0000
5 -21 8 0.0232 0.0000
5 -21 9 0.6275 0.0000
5 -21 10 -0.0334 0.0000
5 -21 11 0.5002 0.0000
5 -20 0 0.4191 0.0000
5 -20 1 -1.5636 0.0000
5 -20 2 -0.2266 0.0000
5 -20 3 0.2664 0.0000
5 -20 4 0.8064 0.0000
5 -20 5 -0.1414 0.0000
5 -20 6 0.9016 0.0000
5 -20 7 -0.2051 0.0000
5 -20 8 0.8914 0.0000
5 -20 9 -0.4104 0.0000
5 -20 10 -0.6316 0.0000
5 -20 11 0.5195 0.0000
5 -20 12 0.1590 0.0000
5 -20 13 0.2871 0.0000
5 -19 0 0.8346 0.0000
5 -19 1 -1.9918 0.0000
5 -19 2 0.2763 0.0000
5 -19 3 1.0449 0.0000
5 -19 4 -0.4500 0.0000
5 -19 5 0.2640 0.0000
5 -19 6 0.6931 0.0000
5 -19 7 0.5000 0.0000
5 -19 8 -0.1912 0.0000
5 -19 9 -0.6814 0.0000
5 -19 10 0.6570 0.0000
5 -19 11 1.0396 0.0000
5 -19 12 0.0065 0.0000
5 -19 13 0.2945 0.0000
5 -19 14 0.5509 0.0000
5 -19 15 -0.1247 0.0000
5 -18 0 -1.5844 0.0000
5 -18 1 1.0231 0.0000
5 -18 2 -0.1477 0.0000
5 -18 3 0.1007 0.0000
5 -18 4 -1.3392 0.0000
5 -18 5 0.2076 0.0000
5 -18 6 1.4725 0.0000
5 -18 7 -0.9829 0.0000
5 -18 8 0.3370 0.0000
5 -18 9 -0.4667 0.0000
5 -18 10 0.6055 0.0000
5 -18 11 -0.6260 0.0000
5 -18 12 -0.7699 0.0000
5 -18 13 0.1408 0.0000
5 -18 14 0.7369 0.0000
5 -18 15 -1.7697 0.0000
5 -18 16 0.0293 0.0000
5 -17 0 -0.9565 0.0000
5 -17 1 2.7239 0.0000
5 -17 2 -0.5064 0.0000
5 -17 3 -0.3502 0.0000
5 -17 4 1.3925 0.0000
5 -17 5 0.7187 0.0000
5 -17 6 0.5037 0.0000
5 -17 7 -2.0403 0.0000
5 -17 8 1.7294 0.0000
5 -17 9 0.5646 0.0000
5 -17 10 -0.6066 0.0000
5 -17 11 -0.6211 0.0000
5 -17 12 -0.8363 0.0000
5 -17 13 -0.5495 0.0000
5 -17 14 -0.7116 0.0000
5 -17 15 -1.7877 0.0000
5 -17 16 0.1368 0.0000
5 -17 17 -0.3258 0.0000
5 -16 0 0.9653 0.0000
5 -16 1 1.2343 0.0000
5 -16 2 -1.9054 0.0000
5 -16 3 -0.6259 0.0000
5 -16 4 1.2618 0.0000
5 -16 5 -0.4123 0.0000
5 -16 6 -1.2273 0.0000
5 -16 7 0.5141 0.0000
5 -16 8 1.2942 0.0000
5 -16 9 -0.4440 0.0000
5 -16 10 -0.1371 0.0000
5 -16 11 0.1248 0.0000
5 -16 12 0.6049 0.0000
5 -16 13 -0.6397 0.0000
5 -16 14 0.1370 0.0000
5 -16 15 0.1279 0.0000
5 -16 16 -0.2031 0.0000
5 -16 17 0.0526 0.0000
5 -16 18 -0.7300 0.0000
5 -15 0 -0.2535 0.0000
5 -15 1 -1.4739 0.0000
5 -15 2 -0.0347 0.0000
5 -15 3 0.0667 0.0000
5 -15 4 0.0190 0.0000
5 -15 5 -3.2693 0.0000
5 -15 6 -0.0627 0.0000
5 -15 7 1.0390 0.0000
5 -15 8 -3.0491 0.0000
5 -15 9 -0.9775 0.0000
5 -15 10 0.3225 0.0000
5 -15 11 -0.4791 0.0000
5 -15 12 0.4399 0.0000
5 -15 13 -0.4282 0.0000
5 -15 14 1.3184 0.0000
5 -15 15 1.3245 0.0000
5 -15 16 -0.1665 0.0000
5 -15 17 1.0772 0.0000
5 -15 18 0.2163 0.0000
5 -15 19 -0.2746 0.0000
5 -14 0 -2.0019 0.0000
5 -14 1 1.0715 0.0000
5 -14 2 3.0746 0.0000
5 -14 3 1.7050 0.0000
5 -14 4 -0.4765 0.0000
5 -14 5 -1.1241 0.0000
5 -14 6 3.2861 0.0000
5 -14 7 0.4686 0.0000
5 -14 8 -3.6115 0.0000
5 -14 9 2.4754 0.0000
5 -14 10 -0.5310 0.0000
5 -14 11 -0.9164 0.0000
5 -14 12 -0.1709 0.0000
5 -14 13 0.5463 0.0000
5 -14 14 -0.2007 0.0000
5 -14 15 0.8674 0.0000
5 -14 16 -0.5256 0.0000
5 -14 17 0.8999 0.0000
5 -14 18 -0.0885 0.0000
5 -14 19 -0.0678 0.0000
5 -13 0 -2.0497 0.0000
5 -13 1 1.9022 0.0000
5 -13 2 -0.3960 0.0000
5 -13 3 -1.1006 0.0000
5 -13 4 1.1563 0.0000
5 -13 5 3.2482 0.0000
5 -13 6 2.4318 0.0000
5 -13 7 0.9477 0.0000
5 -13 8 1.4709 0.0000
5 -13 9 4.4611 0.0000
5 -13 10 1.0661 0.0000
5 -13 11 0.1910 0.0000
5 -13 12 1.4401 0.0000
5 -13 13 1.1808 0.0000
5 -13 14 -1.4866 0.0000
5 -13 15 0.1035 0.0000
5 -13 16 -0.7503 0.0000
5 -13 17 -0.2110 0.0000
5 -13 18 -0.4603 0.0000
5 -13 19 0.2021 0.0000
5 -13 20 0.6099 0.0000
5 -12 0 3.0976 0.0000
5 -12 1 0.2245 0.0000
5 -12 2 -4.2005 0.0000
5 -12 3 -2.0121 0.0000
5 -12 4 0.7075 0.0000
5 -12 5 1.0380 0.0000
5 -12 6 -6.8396 0.0000
5 -12 7 0.4842 0.0000
5 -12 8 1.9335 0.0000
5 -12 9 -2.2395 0.0000
5 -12 10 2.1290 0.0000
5 -12 11 -0.6904 0.0000
5 -12 12 2.1773 0.0000
5 -12 13 1.1869 0.0000
5 -12 14 -0.6138 0.0000
5 -12 15 0.0126 0.0000
5 -12 16 0.0756 0.0000
5 -12 17 -0.8622 0.0000
5 -12 18 0.5921 0.0000
5 -12 19 -0.6404 0.0000
5 -12 20 -0.3947 0.0000
5 -11 0 5.2141 0.0000
5 -11 1 -4.7855 0.0000
5 -11 2 3.0670 0.0000
5 -11 3 -0.9863 0.0000
5 -11 4 1.4216 0.0000
5 -11 5 -2.0174 0.0000
5 -11 6 -7.4238 0.0000
5 -11 7 2.4657 0.0000
5 -11 8 -1.6158 0.0000
5 -11 9 -8.3382 0.0000
5 -11 10 0.5557 0.0000
5 -11 11 -3.8237 0.0000
5 -11 12 -2.3503 0.0000
5 -11 13 -1.4380 0.0000
5 -11 14 -1.6029 0.0000
5 -11 15 0.6937 0.0000
5 -11 16 -0.4871 0.0000
5 -11 17 -1.4391 0.0000
5 -11 18 -0.1135 0.0000
5 -11 19 -0.1505 0.0000
5 -11 20 -0.7791 0.0000
5 -10 0 -1.9908 0.0000
5 -10 1 -4.1954 0.0000
5 -10 2 8.2811 0.0000
5 -10 3 -3.7398 0.0000
5 -10 4 0.3421 0.0000
5 -10 5 -2.4760 0.0000
5 -10 6 4.8505 0.0000
5 -10 7 2.4151 0.0000
5 -10 8 0.9963 0.0000
5 -10 9 -2.4432 0.0000
5 -10 10 2.8648 0.0000
5 -10 11 -0.1031 0.0000
5 -10 12 -1.5181 0.0000
5 -10 13 0.2792 0.0000
5 -10 14 -0.3700 0.0000
5 -10 15 1.8438 0.0000
5 -10 16 0.8203 0.0000
5 -10 17 0.5051 0.0000
5 -10 18 1.1352 0.0000
5 -10 19 2.2553 0.0000
5 -10 20 -0.2207 0.0000
5 -9 0 -8.5486 0.0000
5 -9 1 -1.6346 0.0000
5 -9 2 -6.0689 0.0000
5 -9 3 -2.6171 0.0000
5 -9 4 -5.8055 0.0000
5 -9 5 -0.8796 0.0000
5 -9 6 8.1441 0.0000
5 -9 7 -9.5685 0.0000
5 -9 8 3.7165 0.0000
5 -9 9 3.8131 0.0000
5 -9 10 1.0158 0.0000
5 -9 11 5.3498 0.0000
5 -9 12 0.4957 0.0000
5 -9 13 3.0292 0.0000
5 -9 14 1.2174 0.0000
5 -9 15 0.5604 0.0000
5 -9 16 2.0336 0.0000
5 -9 17 0.8291 0.0000
5 -9 18 0.1517 0.0000
5 -9 19 0.4648 0.0000
5 -9 20 -0.8859 0.0000
5 -8 0 19.3669 0.0000
5 -8 1 9.7585 0.0000
5 -8 2 -5.3767 0.0000
5 -8 3 17.9605 0.0000
5 -8 4 -4.4090 0.0000
5 -8 5 11.2120 0.0000
5 -8 6 3.2983 0.0000
5 -8 7 -9.2539 0.0000
5 -8 8 7.8249 0.0000
5 -8 9 2.2831 0.0000
5 -8 10 -5.1006 0.0000
5 -8 11 5.3230 0.0000
5 -8 12 -1.7066 0.0000
5 -8 13 1.3683 0.0000
5 -8 14 -0.6798 0.0000
5 -8 15 -2.5360 0.0000
5 -8 16 -0.0761 0.0000
5 -8 17 -1.0169 0.0000
5 -8 18 -1.3294 0.0000
5 -8 19 -1.0669 0.0000
5 -8 20 -0.0979 0.0000
5 -7 0 12.2726 0.0000
5 -7 1 3.6033 0.0000
5 -7 2 -5.9355 0.0000
5 -7 3 19.9717 0.0000
5 -7 4 -3.5740 0.0000
5 -7 5 10.0511 0.0000
5 -7 6 -3.1544 0.0000
5 -7 7 3.5079 0.0000
5 -7 9 -3.3748 0.0000
5 -7 10 -7.1624 0.0000
5 -7 11 -0.3148 0.0000
5 -7 12 -4.7991 0.0000
5 -7 13 -2.1121 0.0000
5 -7 14 -1.1465 0.0000
5 -7 15 -1.2452 0.0000
5 -7 16 -0.7621 0.0000
5 -7 17 -0.7429 0.0000
5 -7 18 -0.3720 0.0000
5 -7 19 -0.1107 0.0000
5 -7 20 -0.3348 0.0000
5 -6 0 -40.4817 0.0000
5 -6 1 1.8422 0.0000
5 -6 2 -20.1749 0.0000
5 -6 3 -8.4923 0.0000
5 -6 4 -12.4389 0.0000
5 -6 5 -20.3801 0.0000
5 -6 6 -8.5831 0.0000
5 -6 7 1.2044 0.0000
5 -6 8 -10.7756 0.0000
5 -6 9 -0.8216 0.0000
5 -6 10 -1.3291 0.0000
5 -6 11 0.0586 0.0000
5 -6 12 -1.4815 0.0000
5 -6 13 -1.8467 0.0000
5 -6 14 -0.1615 0.0000
5 -6 15 -0.4758 0.0000
5 -6 16 -0.6487 0.0000
5 -6 17 -0.6926 0.0000
5 -6 18 1.1587 0.0000
5 -6 19 0.2087 0.0000
5 -6 20 -0.2582 0.0000
5 -5 0 -41.3160 0.0000
5 -5 1 32.9624 0.0000
5 -5 2 -6.1900 0.0000
5 -5 3 -1.9007 0.0000
5 -5 4 13.0020 0.0000
5 -5 5 -15.5046 0.0000
5 -5 6 14.5546 0.0000
5 -5 7 -2.9752 0.0000
5 -5 8 -7.9250 0.0000
5 -5 9 6.2907 0.0000
5 -5 10 3.4564 0.0000
5 -5 11 0.9940 0.0000
5 -5 12 4.5929 0.0000
5 -5 13 1.7857 0.0000
5 -5 14 4.4496 0.0000
5 -5 15 0.5494 0.0000
5 -5 16 1.0164 0.0000
5 -5 17 -0.2064 0.0000
5 -5 18 0.9057 0.0000
5 -5 19 0.2185 0.0000
5 -5 20 1.1732 0.0000
5 -4 0 7.0804 0.0000
5 -4 1 21.0928 0.0000
5 -4 2 -0.3830 0.0000
5 -4 3 -1.8271 0.0000
5 -4 4 28.4385 0.0000
5 -4 5 1.1362 0.0000
5 -4 6 24.8904 0.0000
5 -4 7 -1.6248 0.0000
5 -4 8 8.5327 0.0000
5 -4 9 7.1173 0.0000
5 -4 10 1.2348 0.0000
5 -4 11 -2.6366 0.0000
5 -4 12 1.7991 0.0000
5 -4 13 -0.8946 0.0000
5 -4 14 1.6418 0.0000
5 -4 15 -0.5651 0.0000
5 -4 16 0.0953 0.0000
5 -4 17 1.9441 0.0000
5 -4 18 -0.9641 0.0000
5 -4 19 -0.5135 0.0000
5 -4 20 0.0761 0.0000
5 -3 0 35.6688 0.0000
5 -3 1 -20.0998 0.0000
5 -3 2 3.7025 0.0000
5 -3 3 -18.7948 0.0000
5 -3 4 10.9642 0.0000
5 -3 5 -10.1973 0.0000
5 -3 6 -1.6513 0.0000
5 -3 7 -4.3142 0.0000
5 -3 8 3.9350 0.0000
5 -3 9 -2.3037 0.0000
5 -3 10 -3.3992 0.0000
5 -3 11 -1.5669 0.0000
5 -3 12 0.6826 0.0000
5 -3 13 -2.1656 0.0000
5 -3 14 -0.9382 0.0000
5 -3 15 -1.3814 0.0000
5 -3 16 -0.7739 0.0000
5 -3 17 1.2596 0.0000
5 -3 18 -1.5402 0.0000
5 -3 19 -0.6738 0.0000
5 -2 0 4.8402 0.0000
5 -2 1 -24.1757 0.0000
5 -2 2 20.8698 0.0000
5 -2 3 -13.8126 0.0000
5 -2 4 -1.3045 0.0000
5 -2 5 -12.1122 0.0000
5 -2 6 -13.0790 0.0000
5 -2 7 3.1790 0.0000
5 -2 8 -6.3520 0.0000
5 -2 9 -2.6629 0.0000
5 -2 10 -2.2489 0.0000
5 -2 11 2.4310 0.0000
5 -2 12 -1.0208 0.0000
5 -2 13 -0.1470 0.0000
5 -2 14 -1.4586 0.0000
5 -2 15 2.0977 0.0000
5 -2 16 -1.2017 0.0000
5 -2 17 1.2044 0.0000
5 -2 18 -0.6343 0.0000
5 -2 19 1.3266 0.0000
5 -1 0 -31.2302 0.0000
5 -1 1 -0.2914 0.0000
5 -1 2 24.6357 0.0000
5 -1 3 -3.8830 0.0000
5 -1 4 3.5192 0.0000
5 -1 5 6.3583 0.0000
5 -1 6 -2.7513 0.0000
5 -1 7 8.9980 0.0000
5 -1 8 -8.8550 0.0000
5 -1 9 3.1746 0.0000
5 -1 10 1.3042 0.0000
5 -1 11 1.8771 0.0000
5 -1 12 -1.5406 0.0000
5 -1 13 0.7824 0.0000
5 -1 14 0.0026 0.0000
5 -1 15 1.6481 0.0000
5 -1 16 -1.3324 0.0000
5 -1 17 0.1925 0.0000
5 -1 18 0.3831 0.0000
5 -1 19 0.2525 0.0000
5 0 0 -38.1516 0.0000
5 0 1 5.2369 0.0000
5 0 2 -6.5227 0.0000
5 0 3 -14.8670 0.0000
5 0 4 -2.2805 0.0000
5 0 5 7.7943 0.0000
5 0 6 -3.7662 0.0000
5 0 7 3.5406 0.0000
5 0 8 -3.8846 0.0000
5 0 9 3.3609 0.0000
5 0 10 1.4118 0.0000
5 0 11 -1.9845 0.0000
5 0 12 1.2514 0.0000
5 0 13 0.7597 0.0000
5 0 14 0.3807 0.0000
5 0 15 -0.4939 0.0000
5 0 16 0.0291 0.0000
5 0 17 -0.2199 0.0000
5 0 18 1.6849 0.0000
5 1 0 16.0424 0.0000
5 1 1 16.6236 0.0000
5 1 2 -2.7390 0.0000
5 1 3 -1.7876 0.0000
5 1 4 6.2555 0.0000
5 1 5 4.7314 0.0000
5 1 6 -3.7988 0.0000
5 1 7 3.3913 0.0000
5 1 8 3.4832 0.0000
5 1 9 1.8992 0.0000
5 1 10 1.1829 0.0000
5 1 11 -2.1562 0.0000
5 1 12 3.6247 0.0000
5 1 13 -0.8935 0.0000
5 1 14 -0.9771 0.0000
5 1 15 -0.0197 0.0000
5 1 16 1.0553 0.0000
5 1 17 -0.7078 0.0000
5 1 18 -0.5757 0.0000
5 2 0 15.6173 0.0000
5 2 1 -6.8208 0.0000
5 2 2 2.9300 0.0000
5 2 3 7.1406 0.0000
5 2 4 5.1835 0.0000
5 2 5 -1.4508 0.0000
5 2 6 -2.6885 0.0000
5 2 7 1.9697 0.0000
5 2 8 0.5819 0.0000
5 2 9 -3.7298 0.0000
5 2 10 -1.2974 0.0000
5 2 11 -3.1704 0.0000
5 2 12 1.9727 0.0000
5 2 13 -1.8774 0.0000
5 2 14 -0.0277 0.0000
5 2 15 0.8758 0.0000
5 2 16 1.1717 0.0000
5 2 17 -0.3811 0.0000
5 3 0 1.4100 0.0000
5 3 1 -22.5772 0.0000
5 3 2 9.3404 0.0000
5 3 3 -1.6256 0.0000
5 3 4 -3.3616 0.0000
5 3 5 -6.3620 0.0000
5 3 6 0.0009 0.0000
5 3 7 -2.1780 0.0000
5 3 8 -1.0558 0.0000
5 3 9 -2.3138 0.0000
5 3 10 1.5390 0.0000
5 3 11 -0.8836 0.0000
5 3 12 -0.3766 0.0000
5 3 13 -0.5757 0.0000
5 3 14 -0.0780 0.0000
5 3 15 -1.0432 0.0000
5 3 16 -0.4398 0.0000
5 4 0 1.6604 0.0000
5 4 1 -12.1314 0.0000
5 4 2 10.1869 0.0000
5 4 3 -7.1471 0.0000
5 4 4 -4.2111 0.0000
5 4 5 2.0165 0.0000
5 4 6 2.8361 0.0000
5 4 7 -0.4596 0.0000
5 4 8 -0.0335 0.0000
5 4 9 0.8538 0.0000
5 4 10 1.7688 0.0000
5 4 11 0.0658 0.0000
5 4 12 0.1695 0.0000
5 4 13 0.8494 0.0000
5 4 14 -0.2698 0.0000
5 4 15 -0.1527 0.0000
5 4 16 -0.5551 0.0000
5 5 0 9.9127 0.0000
5 5 1 3.2049 0.0000
5 5 2 3.1629 0.0000
5 5 3 -0.7668 0.0000
5 5 4 -0.7263 0.0000
5 5 5 6.1661 0.0000
5 5 6 -1.2346 0.0000
5 5 7 0.1166 0.0000
5 5 8 1.2673 0.0000
5 5 9 1.1454 0.0000
5 5 10 -0.4290 0.0000
5 5 11 -0.3341 0.0000
5 5 12 0.2794 0.0000
5 5 13 0.0599 0.0000
5 5 14 -0.7901 0.0000
5 5 15 1.0762 0.0000
5 6 0 3.9484 0.0000
5 6 1 -0.1620 0.0000
5 6 2 -5.0755 0.0000
5 6 3 1.9573 0.0000
5 6 4 0.1821 0.0000
5 6 5 2.9631 0.0000
5 6 6 -2.7825 0.0000
5 6 7 0.7427 0.0000
5 6 8 -0.5437 0.0000
5 6 9 -1.2334 0.0000
5 6 10 -1.1932 0.0000
5 6 11 0.2290 0.0000
5 6 12 1.1756 0.0000
5 6 13 -0.4970 0.0000
5 6 14 0.4583 0.0000
5 7 0 -2.8764 0.0000
5 7 1 0.4164 0.0000
5 7 2 -2.2362 0.0000
5 7 3 3.1415 0.0000
5 7 4 -2.2241 0.0000
5 7 5 -0.8390 0.0000
5 7 6 -0.5508 0.0000
5 7 7 0.3605 0.0000
5 7 8 -0.4226 0.0000
5 7 9 -0.6321 0.0000
5 7 10 1.6996 0.0000
5 7 11 -0.3561 0.0000
5 7 12 -0.0020 0.0000
5 7 13 -1.9129 0.0000
5 8 0 -3.1463 0.0000
5 8 1 1.8353 0.0000
5 8 2 1.7593 0.0000
5 8 3 0.0943 0.0000
5 8 4 -1.8662 0.0000
5 8 5 -0.5252 0.0000
5 8 6 2.1145 0.0000
5 8 7 -0.8939 0.0000
5 8 8 -0.1514 0.0000
5 8 9 -0.3251 0.0000
5 8 10 1.9298 0.0000
5 8 11 -1.5149 0.0000
5 8 12 0.7064 0.0000
5 9 0 -0.1215 0.0000
5 9 1 0.0141 0.0000
5 9 2 0.3384 0.0000
5 9 3 -3.6438 0.0000
5 9 4 0.2123 0.0000
5 9 5 -1.1535 0.0000
5 9 6 0.3035 0.0000
5 9 7 -0.7610 0.0000
5 9 8 0.3006 0.0000
5 9 9 -0.3099 0.0000
5 9 10 0.5489 0.0000
5 9 11 -1.5810 0.0000
5 10 0 -0.0683 0.0000
5 10 1 -0.0294 0.0000
5 10 2 0.2821 0.0000
5 10 3 -0.9621 0.0000
5 10 4 6.7675 0.0000
5 10 5 -0.6913 0.0000
5 10 6 2.1677 0.0000
5 10 7 1.0487 0.0000
5 10 8 1.2154 0.0000
5 10 9 1.0442 0.0000
5 10 10 -0.1154 0.0000
5 11 0 1.3312 0.0000
5 11 1 0.1472 0.0000
5 11 2 0.4702 0.0000
5 11 3 0.5194 0.0000
5 11 4 0.4903 0.0000
5 11 5 -2.2697 0.0000
5 11 6 -2.4931 0.0000
5 11 7 0.2583 0.0000
5 11 8 -1.5930 0.0000
5 11 9 0.0937 0.0000
5 12 0 -0.9658 0.0000
5 12 1 0.6155 0.0000
5 12 2 0.6390 0.0000
5 12 3 0.8284 0.0000
5 12 4 -1.2715 0.0000
5 12 5 0.7493 0.0000
5 12 6 0.6431 0.0000
5 12 7 1.9680 0.0000
5 13 0 -1.4064 0.0000
5 13 1 0.6895 0.0000
5 13 2 -0.7114 0.0000
5 13 3 -1.5830 0.0000
5 13 4 -2.5257 0.0000
5 13 5 -0.9134 0.0000
5 14 0 0.1670 0.0000
5 14 1 1.3224 0.0000
5 14 2 -1.5852 0.0000
5 14 3 1.0155 0.0000
5 14 4 1.1690 0.0000
5 15 0 -0.1233 0.0000
5 15 1 -0.7190 0.0000
6 -21 0 -0.6696 0.0000
6 -21 1 -0.2318 0.0000
6 -21 2 -0.1123 0.0000
6 -21 3 -0.1381 0.0000
6 -21 4 0.5554 0.0000
6 -21 5 0.2280 0.0000
6 -21 6 0.9790 0.0000
6 -21 7 0.4916 0.0000
6 -21 8 0.0572 0.0000
6 -21 9 0.2767 0.0000
6 -21 10 -0.9038 0.0000
6 -21 11 -1.2654 0.0000
6 -20 0 1.8447 0.0000
6 -20 1 -0.8692 0.0000
6 -20 2 -0.1112 0.0000
6 -20 3 0.1279 0.0000
6 -20 4 0.9278 0.0000
6 -20 5 0.3648 0.0000
6 -20 6 0.8577 0.0000
6 -20 7 0.3417 0.0000
6 -20 8 0.0163 0.0000
6 -20 9 0.1203 0.0000
6 -20 10 -0.6944 0.0000
6 -20 11 0.8946 0.0000
6 -20 12 0.0204 0.0000
6 -20 13 0.5833 0.0000
6 -19 0 0.9597 0.0000
6 -19 1 -0.6538 0.0000
6 -19 2 -0.3782 0.0000
6 -19 3 0.9804 0.0000
6 -19 4 -0.4229 0.0000
6 -19 5 -0.2219 0.0000
6 -19 6 0.7263 0.0000
6 -19 7 0.5690 0.0000
6 -19 8 0.4912 0.0000
6 -19 9 -0.3114 0.0000
6 -19 10 0.0155 0.0000
6 -19 11 0.3746 0.0000
6 -19 12 -0.2715 0.0000
6 -19 13 -0.9220 0.0000
6 -19 14 0.8667 0.0000
6 -19 15 -0.2037 0.0000
6 -18 0 -1.5269 0.0000
6 -18 1 0.4951 0.0000
6 -18 2 0.7704 0.0000
6 -18 3 0.4258 0.0000
6 -18 4 -0.2307 0.0000
6 -18 5 -1.4391 0.0000
6 -18 6 0.9370 0.0000
6 -18 7 -2.1181 0.0000
6 -18 8 -0.4734 0.0000
6 -18 9 0.3355 0.0000
6 -18 10 -0.5286 0.0000
6 -18 11 -0.3664 0.0000
6 -18 12 -1.0929 0.0000
6 -18 13 -1.6795 0.0000
6 -18 14 0.3325 0.0000
6 -18 15 -1.8856 0.0000
6 -18 16 -1.4524 0.0000
6 -17 0 -1.2152 0.0000
6 -17 1 1.9387 0.0000
6 -17 2 0.3941 0.0000
6 -17 3 -1.3383 0.0000
6 -17 4 -0.1308 0.0000
6 -17 5 0.5143 0.0000
6 -17 6 0.6002 0.0000
6 -17 7 -1.9526 0.0000
6 -17 8 0.4222 0.0000
6 -17 9 0.8515 0.0000
6 -17 10 -0.7586 0.0000
6 -17 11 0.5942 0.0000
6 -17 12 0.7836 0.0000
6 -17 13 0.5142 0.0000
6 -17 14 0.6763 0.0000
6 -17 15 -0.4079 0.0000
6 -17 16 -0.0614 0.0000
6 -17 17 0.9239 0.0000
6 -16 0 0.1869 0.0000
6 -16 1 0.6029 0.0000
6 -16 2 -1.1546 0.0000
6 -16 3 -1.9200 0.0000
6 -16 4 0.4775 0.0000
6 -16 5 -0.3909 0.0000
6 -16 6 -1.6339 0.0000
6 -16 7 0.0682 0.0000
6 -16 8 1.1583 0.0000
6 -16 9 -1.1771 0.0000
6 -16 10 0.5574 0.0000
6 -16 11 -0.0085 0.0000
6 -16 12 1.2722 0.0000
6 -16 13 0.6067 0.0000
6 -16 14 1.3735 0.0000
6 -16 15 2.3581 0.0000
6 -16 16 0.6670 0.0000
6 -16 17 0.8854 0.0000
6 -16 18 -0.5782 0.0000
6 -15 0 1.5135 0.0000
6 -15 1 -0.8154 0.0000
6 -15 2 0.5443 0.0000
6 -15 3 1.3480 0.0000
6 -15 4 2.1391 0.0000
6 -15 5 -1.3685 0.0000
6 -15 6 -0.1547 0.0000
6 -15 7 3.8670 0.0000
6 -15 8 -1.1990 0.0000
6 -15 9 -0.7775 0.0000
6 -15 10 1.3516 0.0000
6 -15 11 -0.9138 0.0000
6 -15 12 0.0193 0.0000
6 -15 13 -0.8987 0.0000
6 -15 14 -0.1853 0.0000
6 -15 15 0.2524 0.0000
6 -15 16 -0.7821 0.0000
6 -15 17 -0.2562 0.0000
6 -15 18 0.5982 0.0000
6 -14 0 -3.2566 0.0000
6 -14 1 -1.8289 0.0000
6 -14 2 1.3692 0.0000
6 -14 3 1.2276 0.0000
6 -14 4 0.9725 0.0000
6 -14 5 -0.1229 0.0000
6 -14 6 2.2684 0.0000
6 -14 7 3.8440 0.0000
6 -14 8 -2.8359 0.0000
6 -14 9 3.1494 0.0000
6 -14 10 1.7719 0.0000
6 -14 11 0.5668 0.0000
6 -14 12 -0.2650 0.0000
6 -14 13 0.3828 0.0000
6 -14 14 -1.0905 0.0000
6 -14 15 -0.8317 0.0000
6 -14 16 -0.6889 0.0000
6 -14 17 -0.2749 0.0000
6 -14 18 0.1877 0.0000
6 -14 19 -0.5468 0.0000
6 -13 0 -2.7714 0.0000
6 -13 1 2.0668 0.0000
6 -13 2 0.1902 0.0000
6 -13 3 -3.7772 0.0000
6 -13 4 -2.3814 0.0000
6 -13 5 -0.2216 0.0000
6 -13 6 -1.8894 0.0000
6 -13 7 -2.6479 0.0000
6 -13 8 -1.6610 0.0000
6 -13 9 0.3275 0.0000
6 -13 10 0.0531 0.0000
6 -13 11 -0.5125 0.0000
6 -13 12 -0.3767 0.0000
6 -13 13 1.5882 0.0000
6 -13 14 -0.1103 0.0000
6 -13 15 0.0318 0.0000
6 -13 16 0.4548 0.0000
6 -13 17 0.0930 0.0000
6 -13 18 -0.0472 0.0000
6 -13 19 -0.5042 0.0000
6 -12 0 4.6208 0.0000
6 -12 1 2.2931 0.0000
6 -12 2 -2.0372 0.0000
6 -12 3 -2.8948 0.0000
6 -12 4 -1.6002 0.0000
6 -12 5 2.2738 0.0000
6 -12 6 -5.9622 0.0000
6 -12 7 -4.4655 0.0000
6 -12 8 2.1186 0.0000
6 -12 9 -5.7756 0.0000
6 -12 10 -1.7322 0.0000
6 -12 11 -2.8237 0.0000
6 -12 12 -2.2002 0.0000
6 -12 13 -0.3971 0.0000
6 -12 14 -0.5011 0.0000
6 -12 15 -0.7867 0.0000
6 -12 16 0.0677 0.0000
6 -12 17 -1.2321 0.0000
6 -12 18 -0.0581 0.0000
6 -12 19 0.1949 0.0000
6 -11 0 5.5115 0.0000
6 -11 1 -7.0599 0.0000
6 -11 2 3.3970 0.0000
6 -11 3 2.3943 0.0000
6 -11 4 2.7385 0.0000
6 -11 5 4.6085 0.0000
6 -11 6 -1.2297 0.0000
6 -11 7 3.4329 0.0000
6 -11 8 6.7881 0.0000
6 -11 9 -3.4179 0.0000
6 -11 10 2.2636 0.0000
6 -11 11 1.5326 0.0000
6 -11 12 -0.0173 0.0000
6 -11 13 0.9615 0.0000
6 -11 14 -0.0764 0.0000
6 -11 15 1.1535 0.0000
6 -11 16 2.0770 0.0000
6 -11 17 1.2190 0.0000
6 -11 18 0.7432 0.0000
6 -11 19 1.5591 0.0000
6 -11 20 0.2143 0.0000
6 -10 0 -5.1754 0.0000
6 -10 1 -9.7430 0.0000
6 -10 2 4.8407 0.0000
6 -10 3 -1.2161 0.0000
6 -10 4 0.5587 0.0000
6 -10 5 -3.8726 0.0000
6 -10 6 4.8810 0.0000
6 -10 7 1.8954 0.0000
6 -10 8 2.9308 0.0000
6 -10 9 1.9521 0.0000
6 -10 10 4.0330 0.0000
6 -10 11 4.3603 0.0000
6 -10 12 1.4291 0.0000
6 -10 13 1.7927 0.0000
6 -10 14 -0.1281 0.0000
6 -10 15 0.5587 0.0000
6 -10 16 0.4269 0.0000
6 -10 17 0.1183 0.0000
6 -10 18 -1.9747 0.0000
6 -10 19 0.0875 0.0000
6 -10 20 -1.2733 0.0000
6 -9 0 2.0507 0.0000
6 -9 1 14.6727 0.0000
6 -9 2 1.8222 0.0000
6 -9 3 4.9367 0.0000
6 -9 4 -0.3705 0.0000
6 -9 5 -4.0073 0.0000
6 -9 6 9.6068 0.0000
6 -9 7 -6.3026 0.0000
6 -9 8 -5.4930 0.0000
6 -9 9 2.9455 0.0000
6 -9 10 -5.8309 0.0000
6 -9 11 -0.2727 0.0000
6 -9 12 -1.7913 0.0000
6 -9 13 -1.3766 0.0000
6 -9 14 -1.4177 0.0000
6 -9 15 -2.7401 0.0000
6 -9 16 -2.0848 0.0000
6 -9 17 -0.3340 0.0000
6 -9 18 -1.1320 0.0000
6 -9 19 -0.1116 0.0000
6 -9 20 -0.1436 0.0000
6 -8 0 4.1356 0.0000
6 -8 1 13.6875 0.0000
6 -8 2 -15.9121 0.0000
6 -8 3 9.2661 0.0000
6 -8 4 -3.0796 0.0000
6 -8 5 1.6785 0.0000
6 -8 6 4.9512 0.0000
6 -8 7 -8.1017 0.0000
6 -8 8 -2.6200 0.0000
6 -8 9 3.7166 0.0000
6 -8 10 -9.9807 0.0000
6 -8 11 -1.5802 0.0000
6 -8 12 -2.2406 0.0000
6 -8 13 -2.0593 0.0000
6 -8 14 0.8564 0.0000
6 -8 15 -0.5753 0.0000
6 -8 16 0.5534 0.0000
6 -8 17 1.0122 0.0000
6 -8 18 0.3300 0.0000
6 -8 19 -0.0269 0.0000
6 -8 20 0.8493 0.0000
6 -7 0 -10.5700 0.0000
6 -7 1 -5.1825 0.0000
6 -7 2 -24.2738 0.0000
6 -7 3 -0.7246 0.0000
6 -7 4 -9.0803 0.0000
6 -7 5 -5.3410 0.0000
6 -7 6 -9.6700 0.0000
6 -7 7 -0.4087 0.0000
6 -7 8 0.7255 0.0000
6 -7 9 4.5853 0.0000
6 -7 10 -0.9489 0.0000
6 -7 11 4.0741 0.0000
6 -7 12 1.9483 0.0000
6 -7 13 -0.2208 0.0000
6 -7 14 0.7483 0.0000
6 -7 15 0.8130 0.0000
6 -7 16 0.1897 0.0000
6 -7 17 -0.0897 0.0000
6 -7 18 -0.6395 0.0000
6 -7 19 0.5580 0.0000
6 -7 20 0.4304 0.0000
6 -6 0 -21.7323 0.0000
6 -6 1 6.6933 0.0000
6 -6 2 6.4233 0.0000
6 -6 3 2.0991 0.0000
6 -6 4 11.9916 0.0000
6 -6 5 -3.6156 0.0000
6 -6 6 -1.0896 0.0000
6 -6 7 11.2998 0.0000
6 -6 8 -3.2642 0.0000
6 -6 9 1.2284 0.0000
6 -6 10 3.4135 0.0000
6 -6 11 2.4997 0.0000
6 -6 12 3.6713 0.0000
6 -6 13 0.9579 0.0000
6 -6 14 2.9431 0.0000
6 -6 15 0.8711 0.0000
6 -6 16 0.7502 0.0000
6 -6 17 -1.2178 0.0000
6 -6 18 0.5943 0.0000
6 -6 19 1.1070 0.0000
6 -5 0 -20.4334 0.0000
6 -5 1 19.3094 0.0000
6 -5 2 21.4040 0.0000
6 -5 3 -6.6525 0.0000
6 -5 4 22.8683 0.0000
6 -5 5 -1.4333 0.0000
6 -5 6 13.7682 0.0000
6 -5 7 9.2255 0.0000
6 -5 8 -3.2924 0.0000
6 -5 9 0.9435 0.0000
6 -5 10 2.5590 0.0000
6 -5 11 -3.6821 0.0000
6 -5 12 -1.0249 0.0000
6 -5 13 -2.4203 0.0000
6 -5 14 0.4992 0.0000
6 -5 15 0.0137 0.0000
6 -5 16 -0.3449 0.0000
6 -5 17 0.5052 0.0000
6 -5 18 0.4246 0.0000
6 -5 19 -0.3627 0.0000
6 -4 0 -3.0149 0.0000
6 -4 1 -2.4113 0.0000
6 -4 2 3.2878 0.0000
6 -4 3 -31.1289 0.0000
6 -4 4 4.2593 0.0000
6 -4 5 -12.5321 0.0000
6 -4 6 0.3501 0.0000
6 -4 7 -7.5691 0.0000
6 -4 8 -3.0467 0.0000
6 -4 9 0.2085 0.0000
6 -4 10 0.3592 0.0000
6 -4 11 -3.8956 0.0000
6 -4 12 0.0170 0.0000
6 -4 13 -1.3172 0.0000
6 -4 14 -0.4078 0.0000
6 -4 15 -0.2865 0.0000
6 -4 16 -1.9812 0.0000
6 -4 17 0.9093 0.0000
6 -4 18 -0.1551 0.0000
6 -4 19 -1.3956 0.0000
6 -3 0 28.3501 0.0000
6 -3 1 -14.1368 0.0000
6 -3 2 6.6540 0.0000
6 -3 3 -14.2427 0.0000
6 -3 4 2.6795 0.0000
6 -3 5 -6.2132 0.0000
6 -3 6 -9.5150 0.0000
6 -3 7 -4.8842 0.0000
6 -3 8 0.3436 0.0000
6 -3 9 -0.0638 0.0000
6 -3 10 -1.7029 0.0000
6 -3 11 -1.1965 0.0000
6 -3 12 1.6693 0.0000
6 -3 13 -0.0157 0.0000
6 -3 14 -0.5947 0.0000
6 -3 15 0.5477 0.0000
6 -3 16 -0.7071 0.0000
6 -3 17 1.3174 0.0000
6 -3 18 0.6092 0.0000
6 -3 19 0.2587 0.0000
6 -2 0 15.7206 0.0000
6 -2 1 -24.3518 0.0000
6 -2 2 14.0442 0.0000
6 -2 3 8.8979 0.0000
6 -2 4 4.4255 0.0000
6 -2 5 8.1991 0.0000
6 -2 6 -4.5382 0.0000
6 -2 7 8.6932 0.0000
6 -2 8 -0.6896 0.0000
6 -2 9 0.1174 0.0000
6 -2 10 -1.6606 0.0000
6 -2 11 3.4368 0.0000
6 -2 12 -0.1524 0.0000
6 -2 13 1.3063 0.0000
6 -2 14 -1.9834 0.0000
6 -2 15 2.2183 0.0000
6 -2 16 -0.7245 0.0000
6 -2 17 0.5165 0.0000
6 -2 18 -0.3833 0.0000
6 -1 0 -15.2214 0.0000
6 -1 1 -20.9977 0.0000
6 -1 2 6.9956 0.0000
6 -1 3 1.3613 0.0000
6 -1 4 -10.5034 0.0000
6 -1 5 9.2716 0.0000
6 -1 6 -2.7480 0.0000
6 -1 7 9.0630 0.0000
6 -1 8 -3.3616 0.0000
6 -1 9 0.3066 0.0000
6 -1 10 1.7276 0.0000
6 -1 11 2.3339 0.0000
6 -1 12 -0.6175 0.0000
6 -1 13 0.7300 0.0000
6 -1 14 0.0880 0.0000
6 -1 15 1.1472 0.0000
6 -1 16 -0.7337 0.0000
6 -1 17 -0.7399 0.0000
6 -1 18 -0.0240 0.0000
6 0 0 3.9370 0.0000
6 0 1 12.4514 0.0000
6 0 2 12.5480 0.0000
6 0 3 -1.4481 0.0000
6 0 4 -6.0254 0.0000
6 0 5 8.6241 0.0000
6 0 6 -2.2880 0.0000
6 0 7 0.6646 0.0000
6 0 8 -0.8973 0.0000
6 0 9 0.2530 0.0000
6 0 10 2.8950 0.0000
6 0 11 -2.5176 0.0000
6 0 12 -0.4676 0.0000
6 0 13 -0.1545 0.0000
6 0 14 -0.2224 0.0000
6 0 15 -1.3989 0.0000
6 0 16 0.3195 0.0000
6 0 17 -0.8421 0.0000
6 1 0 5.1874 0.0000
6 1 1 4.9584 0.0000
6 1 2 -0.3861 0.0000
6 1 3 -4.3129 0.0000
6 1 4 1.2451 0.0000
6 1 5 3.3050 0.0000
6 1 6 -4.8794 0.0000
6 1 7 -3.1519 0.0000
6 1 8 0.3913 0.0000
6 1 9 -2.4081 0.0000
6 1 10 -0.2530 0.0000
6 1 11 -5.5245 0.0000
6 1 12 1.5546 0.0000
6 1 13 -0.1117 0.0000
6 1 14 -0.1041 0.0000
6 1 15 -1.0477 0.0000
6 1 16 1.8166 0.0000
6 1 17 0.3089 0.0000
6 2 0 5.2361 0.0000
6 2 1 -10.2796 0.0000
6 2 2 -7.8553 0.0000
6 2 3 -1.4843 0.0000
6 2 4 1.8031 0.0000
6 2 5 -2.8635 0.0000
6 2 6 -3.1693 0.0000
6 2 7 -0.8817 0.0000
6 2 8 2.6498 0.0000
6 2 9 -0.9437 0.0000
6 2 10 2.0381 0.0000
6 2 11 -1.2370 0.0000
6 2 12 1.8902 0.0000
6 2 13 -0.8370 0.0000
6 2 14 -0.2808 0.0000
6 2 15 -0.5739 0.0000
6 2 16 0.5594 0.0000
6 3 0 8.8448 0.0000
6 3 1 -12.8399 0.0000
6 3 2 2.3728 0.0000
6 3 3 3.3144 0.0000
6 3 4 0.5161 0.0000
6 3 5 -1.3401 0.0000
6 3 6 2.8874 0.0000
6 3 7 1.4925 0.0000
6 3 8 1.3761 0.0000
6 3 9 -1.3229 0.0000
6 3 10 1.7396 0.0000
6 3 11 0.8058 0.0000
6 3 12 0.1208 0.0000
6 3 13 -0.1594 0.0000
6 3 14 0.7417 0.0000
6 3 15 -0.2983 0.0000
6 3 16 0.0399 0.0000
6 4 0 7.6471 0.0000
6 4 1 -3.4865 0.0000
6 4 2 7.4610 0.0000
6 4 3 3.8799 0.0000
6 4 4 -4.7910 0.0000
6 4 5 1.5568 0.0000
6 4 6 0.4514 0.0000
6 4 7 -0.4043 0.0000
6 4 8 -0.6174 0.0000
6 4 9 -0.5318 0.0000
6 4 10 0.9885 0.0000
6 4 11 -0.2967 0.0000
6 4 12 -0.5261 0.0000
6 4 13 1.4192 0.0000
6 4 14 -0.1604 0.0000
6 4 15 0.4312 0.0000
6 5 0 1.6793 0.0000
6 5 1 1.0538 0.0000
6 5 2 -0.7422 0.0000
6 5 3 0.0678 0.0000
6 5 4 -4.1593 0.0000
6 5 5 4.4834 0.0000
6 5 6 -0.4707 0.0000
6 5 7 -0.2785 0.0000
6 5 8 0.0896 0.0000
6 5 9 0.5860 0.0000
6 5 10 -0.5194 0.0000
6 5 11 -0.9508 0.0000
6 5 12 0.0529 0.0000
6 5 13 1.1678 0.0000
6 5 14 -1.0992 0.0000
6 6 0 1.1403 0.0000
6 6 1 2.8890 0.0000
6 6 2 -4.3727 0.0000
6 6 3 0.5662 0.0000
6 6 4 -1.7514 0.0000
6 6 5 1.3432 0.0000
6 6 6 -1.9333 0.0000
6 6 7 0.5154 0.0000
6 6 8 0.3763 0.0000
6 6 9 0.2716 0.0000
6 6 10 -1.0851 0.0000
6 6 11 -0.5638 0.0000
6 6 12 -0.2861 0.0000
6 6 13 -1.0962 0.0000
6 7 0 -0.8752 0.0000
6 7 1 0.7589 0.0000
6 7 2 -2.0940 0.0000
6 7 3 2.2828 0.0000
6 7 4 0.0309 0.0000
6 7 5 -1.9287 0.0000
6 7 6 1.1852 0.0000
6 7 7 -0.1175 0.0000
6 7 8 -0.2419 0.0000
6 7 9 -1.1089 0.0000
6 7 10 0.5927 0.0000
6 7 11 1.6329 0.0000
6 7 12 1.2542 0.0000
6 8 0 -2.8500 0.0000
6 8 1 -2.0798 0.0000
6 8 2 1.0412 0.0000
6 8 3 1.6728 0.0000
6 8 4 -0.4574 0.0000
6 8 5 -0.8713 0.0000
6 8 6 1.6133 0.0000
6 8 7 -0.2413 0.0000
6 8 8 0.3026 0.0000
6 8 9 -0.5983 0.0000
6 8 10 1.8800 0.0000
6 8 11 -0.4189 0.0000
6 9 0 0.3107 0.0000
6 9 1 0.6519 0.0000
6 9 2 3.2390 0.0000
6 9 3 -0.8708 0.0000
6 9 4 2.3079 0.0000
6 9 5 1.0482 0.0000
6 9 6 1.4576 0.0000
6 9 7 -0.1730 0.0000
6 9 8 1.4676 0.0000
6 9 9 -0.2046 0.0000
6 9 10 0.5661 0.0000
6 10 0 1.2000 0.0000
6 10 1 -0.0752 0.0000
6 10 2 1.0899 0.0000
6 10 3 -5.0727 0.0000
6 10 4 0.9302 0.0000
6 10 5 -2.2808 0.0000
6 10 6 -2.5322 0.0000
6 10 7 -1.1211 0.0000
6 10 8 -0.9560 0.0000
6 10 9 -0.3687 0.0000
6 11 0 -0.5730 0.0000
6 11 1 -0.7170 0.0000
6 11 2 -0.6340 0.0000
6 11 3 0.3129 0.0000
6 11 4 1.4094 0.0000
6 11 5 1.0605 0.0000
6 11 6 0.0954 0.0000
6 11 7 1.3866 0.0000
6 12 0 -0.9229 0.0000
6 12 1 -0.4147 0.0000
6 12 2 0.1188 0.0000
6 12 3 0.0433 0.0000
6 12 4 -1.5096 0.0000
6 12 5 -2.3687 0.0000
6 12 6 -1.3576 0.0000
6 13 0 -1.1083 0.0000
6 13 1 0.3874 0.0000
6 13 2 0.3255 0.0000
6 13 3 1.2123 0.0000
6 13 4 0.2462 0.0000
6 14 0 0.3834 0.0000
6 14 1 0.5694 0.0000
6 14 2 0.2246 0.0000
7 -22 3 0.1063 0.0000
7 -22 4 0.4528 0.0000
7 -22 5 1.4130 0.0000
7 -22 6 0.0010 0.0000
7 -22 7 1.4942 0.0000
7 -21 0 0.5635 0.0000
7 -21 1 0.2710 0.0000
7 -21 2 0.9052 0.0000
7 -21 3 0.4259 0.0000
7 -21 4 1.0797 0.0000
7 -21 5 0.4756 0.0000
7 -21 6 0.1679 0.0000
7 -21 7 0.4202 0.0000
7 -21 8 0.0235 0.0000
7 -21 9 0.6235 0.0000
7 -21 10 0.3103 0.0000
7 -21 11 -0.1514 0.0000
7 -20 0 1.8919 0.0000
7 -20 1 0.2168 0.0000
7 -20 2 -0.3662 0.0000
7 -20 3 -0.8263 0.0000
7 -20 4 -1.2427 0.0000
7 -20 5 -1.0371 0.0000
7 -20 6 -0.7450 0.0000
7 -20 7 0.6915 0.0000
7 -20 8 0.5251 0.0000
7 -20 9 0.5219 0.0000
7 -20 10 -0.6005 0.0000
7 -20 11 0.3203 0.0000
7 -20 12 -0.5055 0.0000
7 -20 13 -0.2428 0.0000
7 -19 0 0.6188 0.0000
7 -19 1 -0.3139 0.0000
7 -19 2 -0.9378 0.0000
7 -19 3 0.2652 0.0000
7 -19 4 -0.2738 0.0000
7 -19 5 -1.3672 0.0000
7 -19 6 -0.4968 0.0000
7 -19 7 -0.9236 0.0000
7 -19 8 -1.2559 0.0000
7 -19 9 -0.9350 0.0000
7 -19 10 -0.4470 0.0000
7 -19 11 -0.7555 0.0000
7 -19 12 0.2823 0.0000
7 -19 13 -1.6302 0.0000
7 -19 14 0.1016 0.0000
7 -19 15 -0.2529 0.0000
7 -18 0 -0.3392 0.0000
7 -18 1 -1.2531 0.0000
7 -18 2 0.3677 0.0000
7 -18 3 0.1122 0.0000
7 -18 4 0.8698 0.0000
7 -18 5 0.0973 0.0000
7 -18 6 2.1764 0.0000
7 -18 7 0.2168 0.0000
7 -18 8 -1.4368 0.0000
7 -18 9 1.5870 0.0000
7 -18 10 0.2366 0.0000
7 -18 11 0.5255 0.0000
7 -18 12 2.1941 0.0000
7 -18 13 0.4258 0.0000
7 -18 14 2.0929 0.0000
7 -18 15 0.4480 0.0000
7 -18 16 -0.6988 0.0000
7 -17 0 -1.4128 0.0000
7 -17 1 -0.3798 0.0000
7 -17 2 0.4682 0.0000
7 -17 3 -1.0351 0.0000
7 -17 4 -1.0509 0.0000
7 -17 5 -0.0442 0.0000
7 -17 6 0.6236 0.0000
7 -17 7 -1.0552 0.0000
7 -17 8 0.5922 0.0000
7 -17 9 1.5206 0.0000
7 -17 10 -0.2055 0.0000
7 -17 11 0.1191 0.0000
7 -17 12 0.9878 0.0000
7 -17 13 0.6127 0.0000
7 -17 14 1.4039 0.0000
7 -17 15 1.0270 0.0000
7 -17 16 0.3951 0.0000
7 -17 17 1.1895 0.0000
7 -16 0 1.4846 0.0000
7 -16 1 1.2762 0.0000
7 -16 2 1.2491 0.0000
7 -16 3 -0.2220 0.0000
7 -16 4 1.4349 0.0000
7 -16 5 0.3779 0.0000
7 -16 6 -0.9747 0.0000
7 -16 7 -0.6199 0.0000
7 -16 8 2.0409 0.0000
7 -16 9 -1.8232 0.0000
7 -16 10 0.3273 0.0000
7 -16 11 -0.8011 0.0000
7 -16 12 -0.6787 0.0000
7 -16 13 -1.5645 0.0000
7 -16 14 -2.0412 0.0000
7 -16 15 -0.1604 0.0000
7 -16 16 -0.3698 0.0000
7 -16 17 0.4167 0.0000
7 -15 0 1.0200 0.0000
7 -15 1 -1.1135 0.0000
7 -15 2 -0.6924 0.0000
7 -15 3 0.9459 0.0000
7 -15 4 1.8474 0.0000
7 -15 5 0.3918 0.0000
7 -15 6 -1.6192 0.0000
7 -15 7 3.5342 0.0000
7 -15 8 0.3776 0.0000
7 -15 9 -1.0097 0.0000
7 -15 10 2.0712 0.0000
7 -15 11 -0.1621 0.0000
7 -15 12 -0.0137 0.0000
7 -15 13 -0.7795 0.0000
7 -15 14 -0.6075 0.0000
7 -15 15 -0.0913 0.0000
7 -15 16 -0.1591 0.0000
7 -15 17 -1.0381 0.0000
7 -15 18 0.0647 0.0000
7 -14 0 -1.6507 0.0000
7 -14 1 -2.6639 0.0000
7 -14 2 0.0568 0.0000
7 -14 3 -1.5940 0.0000
7 -14 4 -2.4777 0.0000
7 -14 5 -1.5554 0.0000
7 -14 6 -2.5794 0.0000
7 -14 7 2.2805 0.0000
7 -14 8 -3.9392 0.0000
7 -14 9 -0.7215 0.0000
7 -14 10 -0.1300 0.0000
7 -14 11 -0.5220 0.0000
7 -14 12 -0.0855 0.0000
7 -14 13 0.3149 0.0000
7 -14 14 0.9089 0.0000
7 -14 15 -0.3176 0.0000
7 -14 16 0.3620 0.0000
7 -14 17 0.0545 0.0000
7 -14 18 1.0334 0.0000
7 -13 0 -2.6538 0.0000
7 -13 1 1.1859 0.0000
7 -13 2 2.5000 0.0000
7 -13 3 -2.7592 0.0000
7 -13 4 -2.4505 0.0000
7 -13 5 0.2642 0.0000
7 -13 6 -0.8635 0.0000
7 -13 7 -3.6622 0.0000
7 -13 8 -1.9174 0.0000
7 -13 9 -1.6220 0.0000
7 -13 10 -1.7883 0.0000
7 -13 11 -0.9002 0.0000
7 -13 12 -1.4579 0.0000
7 -13 13 -0.6663 0.0000
7 -13 14 0.6565 0.0000
7 -13 15 -0.6019 0.0000
7 -13 16 0.1891 0.0000
7 -13 17 -0.4701 0.0000
7 -13 18 0.0748 0.0000
7 -13 19 -0.4679 0.0000
7 -12 0 1.6771 0.0000
7 -12 1 2.9337 0.0000
7 -12 2 1.9465 0.0000
7 -12 3 3.2302 0.0000
7 -12 4 2.4048 0.0000
7 -12 5 7.6788 0.0000
7 -12 6 3.7736 0.0000
7 -12 7 -1.5359 0.0000
7 -12 8 7.6947 0.0000
7 -12 9 1.0217 0.0000
7 -12 10 1.3931 0.0000
7 -12 11 1.9346 0.0000
7 -12 12 0.6848 0.0000
7 -12 13 0.2446 0.0000
7 -12 14 1.9491 0.0000
7 -12 15 0.4813 0.0000
7 -12 16 1.4199 0.0000
7 -12 17 0.5246 0.0000
7 -12 18 0.2278 0.0000
7 -12 19 0.2430 0.0000
7 -11 0 8.1728 0.0000
7 -11 1 -6.8967 0.0000
7 -11 2 -1.1606 0.0000
7 -11 3 1.6462 0.0000
7 -11 4 0.3615 0.0000
7 -11 5 1.7363 0.0000
7 -11 6 0.4461 0.0000
7 -11 7 -0.4195 0.0000
7 -11 8 7.4041 0.0000
7 -11 9 0.2764 0.0000
7 -11 10 1.9845 0.0000
7 -11 11 2.8641 0.0000
7 -11 12 1.0094 0.0000
7 -11 13 0.8976 0.0000
7 -11 14 -0.3265 0.0000
7 -11 15 -1.7828 0.0000
7 -11 16 -1.1461 0.0000
7 -11 17 -0.4360 0.0000
7 -11 18 -1.3835 0.0000
7 -11 19 -0.8131 0.0000
7 -10 0 5.8425 0.0000
7 -10 1 -3.9294 0.0000
7 -10 2 3.7248 0.0000
7 -10 3 -0.4493 0.0000
7 -10 4 -0.9131 0.0000
7 -10 5 -8.8524 0.0000
7 -10 6 -1.8981 0.0000
7 -10 7 -2.3322 0.0000
7 -10 8 -6.6243 0.0000
7 -10 9 -4.4345 0.0000
7 -10 10 -4.2986 0.0000
7 -10 11 -2.4587 0.0000
7 -10 12 -2.3626 0.0000
7 -10 13 -1.2239 0.0000
7 -10 14 -2.6444 0.0000
7 -10 15 -1.5159 0.0000
7 -10 16 -1.3257 0.0000
7 -10 17 1.6462 0.0000
7 -10 18 0.1467 0.0000
7 -10 19 0.8202 0.0000
7 -9 0 -12.9301 0.0000
7 -9 1 6.4153 0.0000
7 -9 2 -2.7696 0.0000
7 -9 3 -0.4644 0.0000
7 -9 4 0.7963 0.0000
7 -9 5 -6.9128 0.0000
7 -9 6 5.3973 0.0000
7 -9 7 1.0482 0.0000
7 -9 8 -8.5025 0.0000
7 -9 9 4.1014 0.0000
7 -9 10 -2.6400 0.0000
7 -9 11 -2.3016 0.0000
7 -9 12 0.1139 0.0000
7 -9 13 0.1254 0.0000
7 -9 14 1.7081 0.0000
7 -9 15 2.1799 0.0000
7 -9 16 0.3905 0.0000
7 -9 17 1.2108 0.0000
7 -9 18 0.1073 0.0000
7 -9 19 -0.4065 0.0000
7 -8 0 -14.6359 0.0000
7 -8 1 10.9208 0.0000
7 -8 2 -15.8710 0.0000
7 -8 3 -3.2231 0.0000
7 -8 4 -0.9831 0.0000
7 -8 5 -0.8897 0.0000
7 -8 6 4.1861 0.0000
7 -8 7 2.3529 0.0000
7 -8 8 -1.3091 0.0000
7 -8 9 11.0307 0.0000
7 -8 10 2.3110 0.0000
7 -8 11 2.1309 0.0000
7 -8 12 3.8628 0.0000
7 -8 13 0.4951 0.0000
7 -8 14 1.1333 0.0000
7 -8 15 0.4407 0.0000
7 -8 16 -0.3194 0.0000
7 -8 17 0.0884 0.0000
7 -8 18 -0.4994 0.0000
7 -8 19 -0.9449 0.0000
7 -7 0 2.4784 0.0000
7 -7 1 11.3245 0.0000
7 -7 2 -3.6961 0.0000
7 -7 3 4.9550 0.0000
7 -7 4 7.1581 0.0000
7 -7 5 5.8066 0.0000
7 -7 6 -5.3167 0.0000
7 -7 7 3.6900 0.0000
7 -7 8 -1.0904 0.0000
7 -7 9 1.5468 0.0000
7 -7 10 -0.5763 0.0000
7 -7 11 -0.1368 0.0000
7 -7 12 2.9270 0.0000
7 -7 13 -0.0996 0.0000
7 -7 14 0.1530 0.0000
7 -7 15 0.1766 0.0000
7 -7 16 0.1651 0.0000
7 -7 17 -0.0868 0.0000
7 -7 18 -0.3397 0.0000
7 -7 19 -0.0229 0.0000
7 -6 0 1.6606 0.0000
7 -6 1 -1.3094 0.0000
7 -6 2 14.9480 0.0000
7 -6 3 0.4620 0.0000
7 -6 4 11.4399 0.0000
7 -6 5 3.0985 0.0000
7 -6 6 -4.0926 0.0000
7 -6 7 8.3811 0.0000
7 -6 8 -0.1830 0.0000
7 -6 9 -4.4847 0.0000
7 -6 10 -0.0804 0.0000
7 -6 11 -3.3540 0.0000
7 -6 12 -0.3892 0.0000
7 -6 13 -3.6934 0.0000
7 -6 14 0.0512 0.0000
7 -6 15 -0.2440 0.0000
7 -6 16 0.7005 0.0000
7 -6 17 -0.6537 0.0000
7 -6 18 -0.4169 0.0000
7 -6 19 0.3203 0.0000
7 -5 0 -17.6646 0.0000
7 -5 1 -20.8428 0.0000
7 -5 2 12.2166 0.0000
7 -5 3 -24.0927 0.0000
7 -5 4 -4.9380 0.0000
7 -5 5 -10.5872 0.0000
7 -5 6 -4.9156 0.0000
7 -5 7 0.2759 0.0000
7 -5 8 -3.1099 0.0000
7 -5 9 -4.0406 0.0000
7 -5 10 2.4223 0.0000
7 -5 11 -1.4113 0.0000
7 -5 12 -0.7414 0.0000
7 -5 13 -0.9536 0.0000
7 -5 14 -0.7296 0.0000
7 -5 15 0.4882 0.0000
7 -5 16 -1.2762 0.0000
7 -5 17 -0.4084 0.0000
7 -5 18 0.4703 0.0000
7 -5 19 0.0970 0.0000
7 -4 0 5.6237 0.0000
7 -4 1 -5.8846 0.0000
7 -4 2 18.6313 0.0000
7 -4 3 -15.6710 0.0000
7 -4 4 0.9181 0.0000
7 -4 5 -1.1215 0.0000
7 -4 6 -1.2660 0.0000
7 -4 7 -4.0948 0.0000
7 -4 8 -1.7053 0.0000
7 -4 9 -0.2139 0.0000
7 -4 10 2.8865 0.0000
7 -4 11 -1.5657 0.0000
7 -4 12 0.7294 0.0000
7 -4 13 0.7639 0.0000
7 -4 14 -0.1563 0.0000
7 -4 15 0.9164 0.0000
7 -4 16 -0.1930 0.0000
7 -4 17 0.0751 0.0000
7 -4 18 1.5476 0.0000
7 -3 0 20.6559 0.0000
7 -3 1 -5.2071 0.0000
7 -3 2 5.9362 0.0000
7 -3 3 2.6362 0.0000
7 -3 4 8.3613 0.0000
7 -3 5 10.6625 0.0000
7 -3 6 0.6885 0.0000
7 -3 7 1.6152 0.0000
7 -3 8 3.1471 0.0000
7 -3 9 2.5094 0.0000
7 -3 10 0.4636 0.0000
7 -3 11 0.0529 0.0000
7 -3 12 1.2551 0.0000
7 -3 13 1.6443 0.0000
7 -3 14 -0.8241 0.0000
7 -3 15 0.7937 0.0000
7 -3 16 0.0061 0.0000
7 -3 17 -0.2116 0.0000
7 -3 18 0.6159 0.0000
7 -2 0 17.7800 0.0000
7 -2 1 -15.1875 0.0000
7 -2 2 -7.6599 0.0000
7 -2 3 9.9093 0.0000
7 -2 4 -4.8006 0.0000
7 -2 5 6.1706 0.0000
7 -2 6 -4.6211 0.0000
7 -2 7 6.1618 0.0000
7 -2 8 1.6724 0.0000
7 -2 9 0.7635 0.0000
7 -2 10 -2.4984 0.0000
7 -2 11 2.2434 0.0000
7 -2 12 -0.5279 0.0000
7 -2 13 1.0384 0.0000
7 -2 14 -1.6864 0.0000
7 -2 15 0.3175 0.0000
7 -2 16 -0.3738 0.0000
7 -2 17 -0.9750 0.0000
7 -2 18 0.1259 0.0000
7 -1 0 12.1173 0.0000
7 -1 1 -3.5052 0.0000
7 -1 2 1.1513 0.0000
7 -1 3 12.2665 0.0000
7 -1 4 -13.5666 0.0000
7 -1 5 2.0366 0.0000
7 -1 6 -4.8040 0.0000
7 -1 7 1.7127 0.0000
7 -1 8 -2.6085 0.0000
7 -1 9 -3.3519 0.0000
7 -1 10 -0.9631 0.0000
7 -1 11 0.4469 0.0000
7 -1 12 -1.6399 0.0000
7 -1 13 -0.8226 0.0000
7 -1 14 -0.5851 0.0000
7 -1 15 0.1226 0.0000
7 -1 16 0.2340 0.0000
7 -1 17 -0.0125 0.0000
7 0 0 -5.7353 0.0000
7 0 1 -3.7406 0.0000
7 0 2 2.4105 0.0000
7 0 3 1.0938 0.0000
7 0 4 -8.7808 0.0000
7 0 5 3.4162 0.0000
7 0 6 0.5552 0.0000
7 0 7 -2.5607 0.0000
7 0 8 -0.9754 0.0000
7 0 9 -2.7569 0.0000
7 0 10 1.7550 0.0000
7 0 11 -2.1657 0.0000
7 0 12 -0.4938 0.0000
7 0 13 0.5793 0.0000
7 0 14 1.9835 0.0000
7 0 15 -0.7813 0.0000
7 0 16 0.6902 0.0000
7 0 17 -0.2685 0.0000
7 1 0 -1.6811 0.0000
7 1 1 0.3039 0.0000
7 1 2 -1.6161 0.0000
7 1 3 -3.9263 0.0000
7 1 4 -0.4183 0.0000
7 1 5 3.7210 0.0000
7 1 6 -0.2059 0.0000
7 1 7 -2.4919 0.0000
7 1 8 2.9801 0.0000
7 1 9 1.0883 0.0000
7 1 10 4.7409 0.0000
7 1 11 -1.7156 0.0000
7 1 12 1.7928 0.0000
7 1 13 -0.0003 0.0000
7 1 14 0.4807 0.0000
7 1 15 -1.8357 0.0000
7 1 16 0.1352 0.0000
7 2 0 7.8093 0.0000
7 2 1 1.0786 0.0000
7 2 2 -2.5383 0.0000
7 2 4 3.8969 0.0000
7 2 5 0.0005 0.0000
7 2 6 0.0915 0.0000
7 2 7 -0.8097 0.0000
7 2 8 2.3399 0.0000
7 2 9 -0.8916 0.0000
7 2 10 0.7660 0.0000
7 2 11 -0.7346 0.0000
7 2 12 1.2847 0.0000
7 2 13 -1.0896 0.0000
7 2 14 -0.5499 0.0000
7 2 15 -0.2971 0.0000
7 3 0 7.2747 0.0000
7 3 1 -1.7088 0.0000
7 3 2 -1.3786 0.0000
7 3 3 4.2931 0.0000
7 3 4 0.0007 0.0000
7 3 5 -2.1276 0.0000
7 3 6 0.2296 0.0000
7 3 7 0.2801 0.0000
7 3 8 0.8512 0.0000
7 3 9 -1.8335 0.0000
7 3 10 -0.4198 0.0000
7 3 11 0.3346 0.0000
7 3 12 -0.1046 0.0000
7 3 13 -0.1513 0.0000
7 3 14 0.7113 0.0000
7 3 15 1.0794 0.0000
7 4 0 0.2142 0.0000
7 4 1 -2.2436 0.0000
7 4 2 -1.5421 0.0000
7 4 3 5.0860 0.0000
7 4 4 -3.9238 0.0000
7 4 5 1.3355 0.0000
7 4 6 1.6726 0.0000
7 4 7 0.3219 0.0000
7 4 8 0.0755 0.0000
7 4 9 -1.0457 0.0000
7 4 10 0.5576 0.0000
7 4 11 -0.2679 0.0000
7 4 12 -2.1573 0.0000
7 4 13 1.4916 0.0000
7 4 14 0.3383 0.0000
7 5 0 -0.7423 0.0000
7 5 1 3.3613 0.0000
7 5 2 -1.3651 0.0000
7 5 3 2.0865 0.0000
7 5 4 -4.6312 0.0000
7 5 5 1.8046 0.0000
7 5 6 -1.2044 0.0000
7 5 7 -1.0441 0.0000
7 5 8 -0.6151 0.0000
7 5 9 0.5875 0.0000
7 5 10 0.8417 0.0000
7 5 11 -0.7715 0.0000
7 5 12 -1.1219 0.0000
7 5 13 1.2026 0.0000
7 6 0 -0.0022 0.0000
7 6 1 3.9038 0.0000
7 6 2 -2.8344 0.0000
7 6 3 0.6755 0.0000
7 6 4 -0.4125 0.0000
7 6 5 0.7383 0.0000
7 6 6 -0.7870 0.0000
7 6 7 0.4368 0.0000
7 6 8 0.3363 0.0000
7 6 9 1.1419 0.0000
7 6 10 -0.3063 0.0000
7 6 11 1.1713 0.0000
7 6 12 1.1678 0.0000
7 7 0 -1.1262 0.0000
7 7 1 -0.5330 0.0000
7 7 2 -2.0442 0.0000
7 7 3 1.7761 0.0000
7 7 4 2.3200 0.0000
7 7 5 -1.6232 0.0000
7 7 6 0.6511 0.0000
7 7 7 1.0607 0.0000
7 7 8 0.0910 0.0000
7 7 9 -0.1417 0.0000
7 7 10 -1.1180 0.0000
7 7 11 0.5323 0.0000
7 8 0 0.2228 0.0000
7 8 1 -0.8237 0.0000
7 8 2 -0.3531 0.0000
7 8 3 1.5346 0.0000
7 8 4 0.0396 0.0000
7 8 5 -0.5164 0.0000
7 8 6 1.0932 0.0000
7 8 7 -0.2732 0.0000
7 8 8 -0.1072 0.0000
7 8 9 -1.1996 0.0000
7 8 10 0.1020 0.0000
7 9 0 -0.2995 0.0000
7 9 1 -0.9230 0.0000
7 9 2 2.0521 0.0000
7 9 3 -2.2833 0.0000
7 9 4 -1.0499 0.0000
7 9 5 -1.5867 0.0000
7 9 6 -0.8084 0.0000
7 9 7 -2.4053 0.0000
7 9 8 -0.2612 0.0000
7 9 9 0.1470 0.0000
7 10 0 0.2740 0.0000
7 10 1 -0.9288 0.0000
7 10 2 1.6645 0.0000
7 10 3 -1.0904 0.0000
7 10 4 0.6480 0.0000
7 10 5 1.9671 0.0000
7 10 6 0.3206 0.0000
7 10 7 0.8337 0.0000
7 11 0 0.7668 0.0000
7 11 1 -0.2636 0.0000
7 11 2 -0.5094 0.0000
7 11 3 -1.5475 0.0000
7 11 4 -0.1606 0.0000
7 11 5 -1.8076 0.0000
7 11 6 -0.5980 0.0000
7 12 0 -1.0268 0.0000
7 12 1 -1.0039 0.0000
7 12 2 0.2764 0.0000
7 12 3 1.5581 0.0000
7 12 4 2.8796 0.0000
7 13 0 0.3449 0.0000
7 13 1 0.4030 0.0000
7 13 2 0.6427 0.0000
7 14 0 1.0346 0.0000
8 -22 1 0.3504 0.0000
8 -22 2 0.8562 0.0000
8 -22 3 0.7896 0.0000
8 -22 4 -0.5191 0.0000
8 -22 5 1.0026 0.0000
8 -22 6 -1.0633 0.0000
8 -22 7 0.5193 0.0000
8 -22 8 -0.4551 0.0000
8 -21 0 0.4420 0.0000
8 -21 1 -0.5438 0.0000
8 -21 2 -0.3203 0.0000
8 -21 3 -1.9376 0.0000
8 -21 4 -1.9089 0.0000
8 -21 5 -1.1749 0.0000
8 -21 6 -1.2793 0.0000
8 -21 7 -0.4606 0.0000
8 -21 8 0.0715 0.0000
8 -21 9 0.4405 0.0000
8 -21 10 -0.0863 0.0000
8 -21 11 0.6497 0.0000
8 -20 0 0.1121 0.0000
8 -20 1 0.4779 0.0000
8 -20 2 -0.1040 0.0000
8 -20 3 0.6714 0.0000
8 -20 4 0.4032 0.0000
8 -20 5 0.1664 0.0000
8 -20 6 -0.9381 0.0000
8 -20 7 -0.7976 0.0000
8 -20 8 -0.2141 0.0000
8 -20 9 -0.4327 0.0000
8 -20 10 -0.3226 0.0000
8 -20 11 0.1305 0.0000
8 -20 12 0.2729 0.0000
8 -20 13 -0.3201 0.0000
8 -19 0 0.9318 0.0000
8 -19 1 -0.0419 0.0000
8 -19 2 -0.7801 0.0000
8 -19 3 0.1618 0.0000
8 -19 4 1.0740 0.0000
8 -19 5 0.4394 0.0000
8 -19 6 1.3526 0.0000
8 -19 7 2.0856 0.0000
8 -19 8 0.2772 0.0000
8 -19 9 -0.2149 0.0000
8 -19 10 1.2158 0.0000
8 -19 11 -0.5988 0.0000
8 -19 12 1.8756 0.0000
8 -19 13 0.2118 0.0000
8 -19 14 0.8326 0.0000
8 -18 0 0.8736 0.0000
8 -18 1 -1.1210 0.0000
8 -18 2 -0.6860 0.0000
8 -18 3 -0.2442 0.0000
8 -18 4 -1.1311 0.0000
8 -18 5 -0.8143 0.0000
8 -18 6 0.1378 0.0000
8 -18 7 1.4534 0.0000
8 -18 8 -1.8657 0.0000
8 -18 9 0.8632 0.0000
8 -18 10 0.6141 0.0000
8 -18 11 -1.4003 0.0000
8 -18 12 0.8325 0.0000
8 -18 13 -0.7633 0.0000
8 -18 14 1.3137 0.0000
8 -18 15 1.4237 0.0000
8 -17 0 0.3406 0.0000
8 -17 1 0.2905 0.0000
8 -17 2 1.6372 0.0000
8 -17 3 0.9939 0.0000
8 -17 4 0.6908 0.0000
8 -17 5 -0.0795 0.0000
8 -17 6 0.6300 0.0000
8 -17 7 -2.1475 0.0000
8 -17 8 -0.7637 0.0000
8 -17 9 0.0927 0.0000
8 -17 10 -0.3046 0.0000
8 -17 11 -1.1656 0.0000
8 -17 12 -0.3190 0.0000
8 -17 13 -1.8062 0.0000
8 -17 14 -1.0261 0.0000
8 -17 15 -1.1730 0.0000
8 -17 16 -1.4343 0.0000
8 -16 0 0.0279 0.0000
8 -16 1 0.5739 0.0000
8 -16 2 0.2635 0.0000
8 -16 3 -0.2152 0.0000
8 -16 4 1.6548 0.0000
8 -16 5 0.7408 0.0000
8 -16 6 0.3663 0.0000
8 -16 7 -1.1437 0.0000
8 -16 8 2.6652 0.0000
8 -16 9 -0.7332 0.0000
8 -16 10 0.2754 0.0000
8 -16 11 0.1059 0.0000
8 -16 12 -0.1789 0.0000
8 -16 13 0.1128 0.0000
8 -16 14 -1.4230 0.0000
8 -16 15 -0.3781 0.0000
8 -16 16 -0.1037 0.0000
8 -16 17 1.1342 0.0000
8 -15 0 0.5027 0.0000
8 -15 1 -0.8368 0.0000
8 -15 2 -2.8185 0.0000
8 -15 3 -1.0997 0.0000
8 -15 4 -1.9936 0.0000
8 -15 5 -0.2913 0.0000
8 -15 6 -3.5083 0.0000
8 -15 7 0.8716 0.0000
8 -15 8 0.3949 0.0000
8 -15 9 -2.5339 0.0000
8 -15 10 0.5596 0.0000
8 -15 11 -0.3634 0.0000
8 -15 12 0.5061 0.0000
8 -15 13 0.2799 0.0000
8 -15 14 0.2098 0.0000
8 -15 15 0.6119 0.0000
8 -15 16 1.3283 0.0000
8 -15 17 0.2261 0.0000
8 -14 0 0.4787 0.0000
8 -14 1 -2.0791 0.0000
8 -14 2 1.7613 0.0000
8 -14 3 1.0599 0.0000
8 -14 4 -1.9501 0.0000
8 -14 5 0.5164 0.0000
8 -14 6 -2.6458 0.0000
8 -14 7 1.1407 0.0000
8 -14 8 -1.6143 0.0000
8 -14 9 -1.3698 0.0000
8 -14 10 0.1628 0.0000
8 -14 11 -0.8582 0.0000
8 -14 12 0.5773 0.0000
8 -14 13 -0.4174 0.0000
8 -14 14 1.1868 0.0000
8 -14 15 0.1832 0.0000
8 -14 16 -0.2713 0.0000
8 -14 17 -1.4121 0.0000
8 -14 18 -0.0141 0.0000
8 -13 0 -2.0543 0.0000
8 -13 1 0.8089 0.0000
8 -13 2 5.9788 0.0000
8 -13 3 3.4203 0.0000
8 -13 4 2.2148 0.0000
8 -13 5 4.8843 0.0000
8 -13 6 6.1482 0.0000
8 -13 7 1.6312 0.0000
8 -13 8 2.8398 0.0000
8 -13 9 3.0612 0.0000
8 -13 10 1.2233 0.0000
8 -13 11 1.2928 0.0000
8 -13 12 2.0119 0.0000
8 -13 13 -1.1634 0.0000
8 -13 14 1.2266 0.0000
8 -13 15 -0.1988 0.0000
8 -13 16 0.4045 0.0000
8 -13 17 -0.2864 0.0000
8 -13 18 0.4580 0.0000
8 -12 0 1.2756 0.0000
8 -12 1 1.2498 0.0000
8 -12 2 -3.0280 0.0000
8 -12 3 -1.1967 0.0000
8 -12 4 -2.3952 0.0000
8 -12 5 0.3549 0.0000
8 -12 6 3.2999 0.0000
8 -12 7 -5.1078 0.0000
8 -12 8 3.2844 0.0000
8 -12 9 1.2642 0.0000
8 -12 10 -0.1531 0.0000
8 -12 11 0.4104 0.0000
8 -12 12 0.7665 0.0000
8 -12 13 -2.1291 0.0000
8 -12 14 0.1270 0.0000
8 -12 15 -1.2345 0.0000
8 -12 16 -1.0571 0.0000
8 -12 17 -0.3496 0.0000
8 -12 18 -0.0628 0.0000
8 -11 0 8.9824 0.0000
8 -11 1 -3.6917 0.0000
8 -11 2 -5.7468 0.0000
8 -11 3 -3.3989 0.0000
8 -11 4 -3.7043 0.0000
8 -11 5 -6.6224 0.0000
8 -11 6 -5.1266 0.0000
8 -11 7 -7.9999 0.0000
8 -11 8 -2.4203 0.0000
8 -11 9 -4.8506 0.0000
8 -11 10 -4.3347 0.0000
8 -11 11 -2.3666 0.0000
8 -11 12 -1.9878 0.0000
8 -11 13 -0.3606 0.0000
8 -11 14 0.3688 0.0000
8 -11 15 -0.2830 0.0000
8 -11 16 -0.1820 0.0000
8 -11 17 1.2840 0.0000
8 -11 18 1.8518 0.0000
8 -10 0 0.4948 0.0000
8 -10 1 -4.8254 0.0000
8 -10 2 1.1107 0.0000
8 -10 3 3.3045 0.0000
8 -10 4 4.6895 0.0000
8 -10 5 -1.9264 0.0000
8 -10 6 -0.2788 0.0000
8 -10 7 6.3102 0.0000
8 -10 8 -0.9670 0.0000
8 -10 9 0.8959 0.0000
8 -10 10 1.3933 0.0000
8 -10 11 0.4230 0.0000
8 -10 12 0.9170 0.0000
8 -10 13 2.9759 0.0000
8 -10 14 0.7301 0.0000
8 -10 15 1.7918 0.0000
8 -10 16 -0.8236 0.0000
8 -10 17 0.0328 0.0000
8 -10 18 -0.2707 0.0000
8 -10 19 -1.8189 0.0000
8 -9 0 -13.1873 0.0000
8 -9 1 3.4214 0.0000
8 -9 2 2.1918 0.0000
8 -9 3 -0.8008 0.0000
8 -9 4 4.6309 0.0000
8 -9 5 -0.3302 0.0000
8 -9 6 4.8667 0.0000
8 -9 7 10.9671 0.0000
8 -9 8 -1.8801 0.0000
8 -9 9 6.0098 0.0000
8 -9 10 5.7412 0.0000
8 -9 11 1.5211 0.0000
8 -9 12 1.7649 0.0000
8 -9 13 0.0724 0.0000
8 -9 14 -0.9771 0.0000
8 -9 15 0.8115 0.0000
8 -9 16 -0.2358 0.0000
8 -9 17 0.4590 0.0000
8 -9 18 0.1216 0.0000
8 -9 19 -0.5792 0.0000
8 -8 0 -7.9181 0.0000
8 -8 1 15.1629 0.0000
8 -8 2 0.6193 0.0000
8 -8 3 -3.5448 0.0000
8 -8 4 0.3612 0.0000
8 -8 5 1.4550 0.0000
8 -8 6 -3.2123 0.0000
8 -8 7 0.6134 0.0000
8 -8 8 -6.6480 0.0000
8 -8 9 -0.1897 0.0000
8 -8 10 0.0668 0.0000
8 -8 11 -3.4457 0.0000
8 -8 12 -0.2627 0.0000
8 -8 13 -0.7202 0.0000
8 -8 14 -0.5458 0.0000
8 -8 15 -0.2232 0.0000
8 -8 16 -0.5471 0.0000
8 -8 17 -0.2300 0.0000
8 -8 18 0.3435 0.0000
8 -7 0 4.8320 0.0000
8 -7 1 6.9856 0.0000
8 -7 2 0.2715 0.0000
8 -7 3 -1.3981 0.0000
8 -7 4 2.7510 0.0000
8 -7 5 7.6185 0.0000
8 -7 6 -6.5565 0.0000
8 -7 7 0.1066 0.0000
8 -7 8 -0.2046 0.0000
8 -7 9 -3.0431 0.0000
8 -7 10 -0.9217 0.0000
8 -7 11 -4.7143 0.0000
8 -7 12 0.3227 0.0000
8 -7 13 -1.4460 0.0000
8 -7 14 -0.4100 0.0000
8 -7 15 -0.6720 0.0000
8 -7 16 0.3229 0.0000
8 -7 17 -0.6116 0.0000
8 -7 18 0.2491 0.0000
8 -6 0 0.1454 0.0000
8 -6 1 -22.3643 0.0000
8 -6 2 -0.5743 0.0000
8 -6 3 -8.7930 0.0000
8 -6 4 -5.3999 0.0000
8 -6 5 -2.5828 0.0000
8 -6 6 -8.4473 0.0000
8 -6 7 -0.5291 0.0000
8 -6 8 3.5751 0.0000
8 -6 9 -3.6197 0.0000
8 -6 10 1.9413 0.0000
8 -6 11 -0.5842 0.0000
8 -6 12 2.2023 0.0000
8 -6 13 -1.2034 0.0000
8 -6 14 -0.2996 0.0000
8 -6 15 0.1635 0.0000
8 -6 16 0.5844 0.0000
8 -6 17 0.3361 0.0000
8 -6 18 0.2953 0.0000
8 -5 0 9.4766 0.0000
8 -5 1 -18.1265 0.0000
8 -5 2 19.3532 0.0000
8 -5 3 0.2278 0.0000
8 -5 4 -1.8343 0.0000
8 -5 5 0.2724 0.0000
8 -5 6 0.4677 0.0000
8 -5 7 0.4317 0.0000
8 -5 8 2.2734 0.0000
8 -5 9 -2.4360 0.0000
8 -5 10 2.8666 0.0000
8 -5 11 1.6299 0.0000
8 -5 12 -0.0855 0.0000
8 -5 13 1.1689 0.0000
8 -5 14 -0.0685 0.0000
8 -5 15 1.2451 0.0000
8 -5 16 0.6912 0.0000
8 -5 17 -0.6466 0.0000
8 -5 18 0.5755 0.0000
8 -4 0 7.3798 0.0000
8 -4 1 -6.3967 0.0000
8 -4 2 15.0687 0.0000
8 -4 3 0.6502 0.0000
8 -4 4 0.8608 0.0000
8 -4 5 7.8833 0.0000
8 -4 6 6.1877 0.0000
8 -4 7 0.9526 0.0000
8 -4 8 1.3456 0.0000
8 -4 9 -0.2022 0.0000
8 -4 10 2.4144 0.0000
8 -4 11 -0.4326 0.0000
8 -4 12 -0.3602 0.0000
8 -4 13 1.0764 0.0000
8 -4 14 -0.2416 0.0000
8 -4 15 -0.4922 0.0000
8 -4 16 0.4431 0.0000
8 -4 17 -0.9409 0.0000
8 -4 18 0.0781 0.0000
8 -3 0 10.8285 0.0000
8 -3 1 2.7028 0.0000
8 -3 2 -5.4108 0.0000
8 -3 3 -0.6911 0.0000
8 -3 4 -2.1968 0.0000
8 -3 5 4.5532 0.0000
8 -3 6 -1.1260 0.0000
8 -3 7 -1.7729 0.0000
8 -3 8 0.6532 0.0000
8 -3 9 1.1930 0.0000
8 -3 10 -1.3130 0.0000
8 -3 11 -0.3933 0.0000
8 -3 12 -0.9942 0.0000
8 -3 13 0.7258 0.0000
8 -3 14 -1.1231 0.0000
8 -3 15 -1.1630 0.0000
8 -3 16 -0.0255 0.0000
8 -3 17 -1.7043 0.0000
8 -2 0 11.6319 0.0000
8 -2 1 4.7917 0.0000
8 -2 2 -16.0161 0.0000
8 -2 3 8.1265 0.0000
8 -2 4 -6.8041 0.0000
8 -2 5 -0.4474 0.0000
8 -2 6 -7.9889 0.0000
8 -2 7 -1.5935 0.0000
8 -2 8 -1.1381 0.0000
8 -2 9 -0.6268 0.0000
8 -2 10 -3.2284 0.0000
8 -2 11 0.7724 0.0000
8 -2 12 -0.4157 0.0000
8 -2 13 0.5726 0.0000
8 -2 14 0.0449 0.0000
8 -2 15 -0.0055 0.0000
8 -2 16 1.0910 0.0000
8 -2 17 -0.0971 0.0000
8 -1 0 -1.6906 0.0000
8 -1 1 -2.2012 0.0000
8 -1 2 -10.1090 0.0000
8 -1 3 11.4539 0.0000
8 -1 4 -5.3434 0.0000
8 -1 5 -0.2553 0.0000
8 -1 6 0.4512 0.0000
8 -1 7 2.0887 0.0000
8 -1 8 1.4351 0.0000
8 -1 9 -1.2155 0.0000
8 -1 10 -0.4507 0.0000
8 -1 11 0.8197 0.0000
8 -1 12 -0.3541 0.0000
8 -1 13 0.1018 0.0000
8 -1 14 0.8233 0.0000
8 -1 15 0.3123 0.0000
8 -1 16 0.1567 0.0000
8 0 0 -2.6999 0.0000
8 0 1 -0.1801 0.0000
8 0 2 0.4761 0.0000
8 0 3 4.9336 0.0000
8 0 4 -3.4172 0.0000
8 0 5 1.0283 0.0000
8 0 6 4.3958 0.0000
8 0 7 -0.3024 0.0000
8 0 8 1.9260 0.0000
8 0 9 0.0261 0.0000
8 0 10 3.7635 0.0000
8 0 11 0.4376 0.0000
8 0 12 -0.0583 0.0000
8 0 13 -1.3341 0.0000
8 0 14 1.1083 0.0000
8 0 15 -0.9685 0.0000
8 0 16 -0.0719 0.0000
8 1 0 1.1287 0.0000
8 1 1 2.9259 0.0000
8 1 2 1.6638 0.0000
8 1 3 -2.9300 0.0000
8 1 4 -1.2998 0.0000
8 1 5 1.7727 0.0000
8 1 6 1.9687 0.0000
8 1 7 -2.8904 0.0000
8 1 8 0.1056 0.0000
8 1 9 -1.7169 0.0000
8 1 10 1.4791 0.0000
8 1 11 -1.8572 0.0000
8 1 12 0.6818 0.0000
8 1 13 -0.0650 0.0000
8 1 14 0.3570 0.0000
8 1 15 -0.3902 0.0000
8 2 0 3.0378 0.0000
8 2 1 2.8820 0.0000
8 2 2 -0.1218 0.0000
8 2 3 -1.5427 0.0000
8 2 4 2.3602 0.0000
8 2 5 -0.1510 0.0000
8 2 6 -0.7392 0.0000
8 2 7 -1.3139 0.0000
8 2 8 0.7334 0.0000
8 2 9 -0.4935 0.0000
8 2 10 -0.6169 0.0000
8 2 11 -1.1316 0.0000
8 2 12 1.7428 0.0000
8 2 13 0.6286 0.0000
8 2 14 -0.7801 0.0000
8 3 0 -0.3096 0.0000
8 3 1 1.0982 0.0000
8 3 2 -3.6091 0.0000
8 3 3 2.7371 0.0000
8 3 4 0.9690 0.0000
8 3 5 -1.3911 0.0000
8 3 6 -0.2612 0.0000
8 3 7 0.6810 0.0000
8 3 8 1.3093 0.0000
8 3 9 -0.4393 0.0000
8 3 10 -0.5541 0.0000
8 3 11 0.4471 0.0000
8 3 12 -0.9730 0.0000
8 3 13 -0.4732 0.0000
8 3 14 -0.4241 0.0000
8 4 0 -2.4447 0.0000
8 4 1 1.9153 0.0000
8 4 2 -3.0004 0.0000
8 4 3 3.6149 0.0000
8 4 4 -2.4228 0.0000
8 4 5 -1.1866 0.0000
8 4 6 0.7407 0.0000
8 4 7 -0.2516 0.0000
8 4 8 -0.0917 0.0000
8 4 9 -1.1883 0.0000
8 4 10 1.1125 0.0000
8 4 11 1.8440 0.0000
8 4 12 -2.1900 0.0000
8 4 13 0.3302 0.0000
8 5 0 -3.9153 0.0000
8 5 1 3.4102 0.0000
8 5 2 -2.3302 0.0000
8 5 3 1.8835 0.0000
8 5 4 -2.4606 0.0000
8 5 5 1.4867 0.0000
8 5 6 0.8805 0.0000
8 5 7 -0.5190 0.0000
8 5 8 -0.1017 0.0000
8 5 9 -0.1234 0.0000
8 5 10 1.2192 0.0000
8 5 11 0.3998 0.0000
8 5 12 -1.2986 0.0000
8 6 0 -1.7452 0.0000
8 6 1 2.9176 0.0000
8 6 2 -1.4303 0.0000
8 6 3 0.2721 0.0000
8 6 4 1.1095 0.0000
8 6 5 0.0776 0.0000
8 6 6 -1.2753 0.0000
8 6 7 -0.6716 0.0000
8 6 8 -0.2748 0.0000
8 6 9 1.2003 0.0000
8 6 10 -1.1887 0.0000
8 6 11 -0.0286 0.0000
8 7 0 1.2954 0.0000
8 7 1 0.8323 0.0000
8 7 2 -2.3138 0.0000
8 7 3 -0.3259 0.0000
8 7 4 1.1451 0.0000
8 7 5 -0.5581 0.0000
8 7 6 -0.8212 0.0000
8 7 7 1.2220 0.0000
8 7 8 0.0393 0.0000
8 7 9 -0.0286 0.0000
8 7 10 -1.3013 0.0000
8 8 0 -0.1396 0.0000
8 8 1 -0.2065 0.0000
8 8 2 -0.1492 0.0000
8 8 3 0.3352 0.0000
8 8 4 -0.0843 0.0000
8 8 5 -1.2640 0.0000
8 8 6 0.1577 0.0000
8 8 7 -0.2592 0.0000
8 8 8 -0.8356 0.0000
8 8 9 -0.1399 0.0000
8 9 0 -1.1352 0.0000
8 9 1 -2.0146 0.0000
8 9 2 0.8002 0.0000
8 9 3 -0.2099 0.0000
8 9 4 0.3416 0.0000
8 9 5 0.8647 0.0000
8 9 6 1.6907 0.0000
8 9 7 0.3174 0.0000
8 10 0 0.5871 0.0000
8 10 1 0.2384 0.0000
8 10 2 0.2913 0.0000
8 10 3 0.0125 0.0000
8 10 4 -0.8691 0.0000
8 10 5 -0.4750 0.0000
8 10 6 -0.4374 0.0000
8 11 0 1.0893 0.0000
8 11 1 0.0752 0.0000
8 11 2 1.6235 0.0000
8 11 3 -0.2149 0.0000
8 12 0 0.9956 0.0000
8 12 1 -0.0005 0.0000
8 12 2 -0.8122 0.0000
8 13 0 0.2960 0.0000
9 -22 1 -1.3714 0.0000
9 -22 2 -0.8289 0.0000
9 -22 3 -0.4050 0.0000
9 -22 4 -2.1228 0.0000
9 -22 5 -0.4982 0.0000
9 -22 6 -0.6299 0.0000
9 -22 7 -0.5330 0.0000
9 -22 8 0.6080 0.0000
9 -21 0 0.0731 0.0000
9 -21 1 0.0464 0.0000
9 -21 2 1.5922 0.0000
9 -21 3 1.2205 0.0000
9 -21 4 0.4550 0.0000
9 -21 5 1.1559 0.0000
9 -21 6 0.4946 0.0000
9 -21 7 -0.4286 0.0000
9 -21 8 -0.4822 0.0000
9 -21 9 0.1032 0.0000
9 -21 10 -1.2566 0.0000
9 -21 11 -0.2331 0.0000
9 -20 0 0.1101 0.0000
9 -20 1 0.6569 0.0000
9 -20 2 -0.3238 0.0000
9 -20 3 -0.4811 0.0000
9 -20 4 0.7159 0.0000
9 -20 5 0.8467 0.0000
9 -20 6 0.8744 0.0000
9 -20 7 -0.0268 0.0000
9 -20 8 0.7958 0.0000
9 -20 9 -0.6035 0.0000
9 -20 10 0.3014 0.0000
9 -20 11 -0.1508 0.0000
9 -20 12 0.7929 0.0000
9 -20 13 0.1564 0.0000
9 -19 0 0.6804 0.0000
9 -19 1 0.8769 0.0000
9 -19 2 -0.6564 0.0000
9 -19 3 -0.0949 0.0000
9 -19 4 -0.3497 0.0000
9 -19 5 -0.9247 0.0000
9 -19 6 -1.8179 0.0000
9 -19 7 1.0954 0.0000
9 -19 8 0.6129 0.0000
9 -19 9 -0.6540 0.0000
9 -19 10 1.5928 0.0000
9 -19 11 -1.2634 0.0000
9 -19 12 0.3805 0.0000
9 -19 13 -0.5090 0.0000
9 -19 14 -0.0334 0.0000
9 -18 0 0.6745 0.0000
9 -18 1 0.9132 0.0000
9 -18 2 -0.1575 0.0000
9 -18 3 1.6667 0.0000
9 -18 4 -0.2073 0.0000
9 -18 5 -0.2124 0.0000
9 -18 6 -0.6908 0.0000
9 -18 7 1.2851 0.0000
9 -18 8 -1.6458 0.0000
9 -18 9 -1.0068 0.0000
9 -18 10 0.7159 0.0000
9 -18 11 -1.7151 0.0000
9 -18 12 0.2992 0.0000
9 -18 13 -2.3826 0.0000
9 -18 14 -1.2641 0.0000
9 -18 15 -0.1907 0.0000
9 -17 0 -0.4983 0.0000
9 -17 1 -0.7762 0.0000
9 -17 2 0.1975 0.0000
9 -17 3 -0.8745 0.0000
9 -17 4 1.2619 0.0000
9 -17 5 0.0488 0.0000
9 -17 6 2.5749 0.0000
9 -17 7 -0.5321 0.0000
9 -17 8 -0.3352 0.0000
9 -17 9 -0.1397 0.0000
9 -17 10 0.2083 0.0000
9 -17 11 -0.9498 0.0000
9 -17 12 0.3035 0.0000
9 -17 13 -0.3087 0.0000
9 -17 14 0.4844 0.0000
9 -17 15 1.0155 0.0000
9 -17 16 -1.2078 0.0000
9 -16 0 -1.8337 0.0000
9 -16 1 0.2130 0.0000
9 -16 2 -1.4720 0.0000
9 -16 3 -2.2202 0.0000
9 -16 4 -0.5146 0.0000
9 -16 5 -0.6239 0.0000
9 -16 6 -0.4417 0.0000
9 -16 7 -2.0591 0.0000
9 -16 8 1.0228 0.0000
9 -16 9 0.1419 0.0000
9 -16 10 0.1441 0.0000
9 -16 11 1.1586 0.0000
9 -16 12 0.5735 0.0000
9 -16 13 2.3082 0.0000
9 -16 14 0.4568 0.0000
9 -16 15 -0.0635 0.0000
9 -16 16 -0.6641 0.0000
9 -15 0 1.2455 0.0000
9 -15 1 1.8817 0.0000
9 -15 2 -0.4532 0.0000
9 -15 3 2.4888 0.0000
9 -15 4 -0.5560 0.0000
9 -15 5 1.4933 0.0000
9 -15 6 -2.0984 0.0000
9 -15 7 -0.4293 0.0000
9 -15 8 2.0817 0.0000
9 -15 9 -1.1215 0.0000
9 -15 10 0.7360 0.0000
9 -15 11 0.1340 0.0000
9 -15 12 0.2929 0.0000
9 -15 13 0.5527 0.0000
9 -15 14 -0.9766 0.0000
9 -15 15 -0.5713 0.0000
9 -15 16 -0.3783 0.0000
9 -15 17 -0.2198 0.0000
9 -14 0 2.4525 0.0000
9 -14 1 -1.7252 0.0000
9 -14 2 2.0043 0.0000
9 -14 3 4.4785 0.0000
9 -14 4 0.8463 0.0000
9 -14 5 3.4242 0.0000
9 -14 6 2.1278 0.0000
9 -14 7 2.6095 0.0000
9 -14 8 1.9544 0.0000
9 -14 9 0.5041 0.0000
9 -14 10 1.3482 0.0000
9 -14 11 -0.4097 0.0000
9 -14 12 0.7306 0.0000
9 -14 13 -1.0727 0.0000
9 -14 14 -0.3699 0.0000
9 -14 15 0.5273 0.0000
9 -14 16 1.0990 0.0000
9 -14 17 -0.3624 0.0000
9 -13 0 -2.2113 0.0000
9 -13 1 -3.2561 0.0000
9 -13 2 -1.3671 0.0000
9 -13 3 -1.5611 0.0000
9 -13 4 -3.9585 0.0000
9 -13 5 -3.0165 0.0000
9 -13 6 1.4198 0.0000
9 -13 7 -2.2021 0.0000
9 -13 8 -1.8111 0.0000
9 -13 9 0.0060 0.0000
9 -13 10 -0.3529 0.0000
9 -13 11 -2.4510 0.0000
9 -13 12 1.6973 0.0000
9 -13 13 -1.9448 0.0000
9 -13 14 0.2595 0.0000
9 -13 15 -0.1741 0.0000
9 -13 16 -0.2605 0.0000
9 -13 17 -0.6677 0.0000
9 -13 18 -0.0790 0.0000
9 -12 0 -1.9074 0.0000
9 -12 1 1.4070 0.0000
9 -12 2 -3.5950 0.0000
9 -12 3 -5.0370 0.0000
9 -12 4 -3.8241 0.0000
9 -12 5 -6.4797 0.0000
9 -12 6 0.0768 0.0000
9 -12 7 -7.0050 0.0000
9 -12 8 -2.9354 0.0000
9 -12 9 -1.2457 0.0000
9 -12 10 -1.8046 0.0000
9 -12 11 -1.5134 0.0000
9 -12 12 0.9464 0.0000
9 -12 13 -0.7559 0.0000
9 -12 14 1.0607 0.0000
9 -12 15 1.0384 0.0000
9 -12 16 0.1561 0.0000
9 -12 17 0.7080 0.0000
9 -12 18 0.6017 0.0000
9 -11 0 6.5424 0.0000
9 -11 1 4.1763 0.0000
9 -11 2 0.4823 0.0000
9 -11 3 3.5896 0.0000
9 -11 4 7.0185 0.0000
9 -11 5 3.4459 0.0000
9 -11 6 2.9192 0.0000
9 -11 7 2.4865 0.0000
9 -11 8 3.8245 0.0000
9 -11 9 2.4544 0.0000
9 -11 10 1.6094 0.0000
9 -11 11 1.3651 0.0000
9 -11 12 0.0277 0.0000
9 -11 13 1.2509 0.0000
9 -11 14 1.1649 0.0000
9 -11 15 0.2983 0.0000
9 -11 16 -0.6759 0.0000
9 -11 17 -1.9757 0.0000
9 -11 18 0.0395 0.0000
9 -10 0 2.6351 0.0000
9 -10 1 -1.3582 0.0000
9 -10 2 -0.3671 0.0000
9 -10 3 3.6187 0.0000
9 -10 4 5.7528 0.0000
9 -10 5 3.8593 0.0000
9 -10 6 -0.6935 0.0000
9 -10 7 8.1852 0.0000
9 -10 8 2.6074 0.0000
9 -10 9 0.7074 0.0000
9 -10 10 2.4787 0.0000
9 -10 11 1.1239 0.0000
9 -10 12 -0.9611 0.0000
9 -10 13 1.3361 0.0000
9 -10 14 -1.8967 0.0000
9 -10 15 0.5112 0.0000
9 -10 16 0.0691 0.0000
9 -10 17 0.1328 0.0000
9 -10 18 1.5242 0.0000
9 -9 0 -6.8844 0.0000
9 -9 1 -2.2620 0.0000
9 -9 2 3.0940 0.0000
9 -9 3 -3.9437 0.0000
9 -9 4 -3.8650 0.0000
9 -9 5 -4.2641 0.0000
9 -9 6 -7.8515 0.0000
9 -9 7 1.2646 0.0000
9 -9 8 -6.2948 0.0000
9 -9 9 -5.1906 0.0000
9 -9 10 -0.8816 0.0000
9 -9 11 -1.7247 0.0000
9 -9 12 -1.1707 0.0000
9 -9 13 -0.7147 0.0000
9 -9 14 -1.9140 0.0000
9 -9 15 -0.4594 0.0000
9 -9 16 -0.8968 0.0000
9 -9 17 -0.1969 0.0000
9 -9 18 -0.4269 0.0000
9 -8 0 -6.7818 0.0000
9 -8 1 6.4485 0.0000
9 -8 2 5.7471 0.0000
9 -8 3 -2.7575 0.0000
9 -8 4 -3.6469 0.0000
9 -8 5 4.7122 0.0000
9 -8 6 -2.7598 0.0000
9 -8 7 -0.4762 0.0000
9 -8 8 -1.9562 0.0000
9 -8 9 -2.6814 0.0000
9 -8 10 1.7589 0.0000
9 -8 11 -1.8895 0.0000
9 -8 12 -0.9865 0.0000
9 -8 13 -0.6881 0.0000
9 -8 14 0.2394 0.0000
9 -8 15 0.2020 0.0000
9 -8 16 0.5390 0.0000
9 -8 17 -0.7537 0.0000
9 -8 18 1.3540 0.0000
9 -7 0 -2.7740 0.0000
9 -7 1 -3.4319 0.0000
9 -7 2 -4.3022 0.0000
9 -7 3 -6.0441 0.0000
9 -7 4 -5.2190 0.0000
9 -7 5 4.9608 0.0000
9 -7 6 -2.1010 0.0000
9 -7 7 -1.9788 0.0000
9 -7 8 5.0032 0.0000
9 -7 9 0.3672 0.0000
9 -7 10 3.6788 0.0000
9 -7 11 -1.3668 0.0000
9 -7 12 1.9548 0.0000
9 -7 13 0.4713 0.0000
9 -7 14 1.3306 0.0000
9 -7 15 0.0895 0.0000
9 -7 16 1.6482 0.0000
9 -7 17 0.3432 0.0000
9 -7 18 2.6593 0.0000
9 -6 0 15.9742 0.0000
9 -6 1 -8.9683 0.0000
9 -6 2 2.1152 0.0000
9 -6 3 6.3472 0.0000
9 -6 4 2.3671 0.0000
9 -6 5 2.8743 0.0000
9 -6 6 1.0696 0.0000
9 -6 7 -2.3995 0.0000
9 -6 8 5.4325 0.0000
9 -6 9 -1.8204 0.0000
9 -6 10 0.7080 0.0000
9 -6 11 0.3198 0.0000
9 -6 12 1.4672 0.0000
9 -6 13 1.0471 0.0000
9 -6 14 -0.2351 0.0000
9 -6 15 0.0497 0.0000
9 -6 16 0.1666 0.0000
9 -6 17 -0.7782 0.0000
9 -5 0 14.6446 0.0000
9 -5 1 -13.2207 0.0000
9 -5 2 5.4945 0.0000
9 -5 3 9.0873 0.0000
9 -5 4 -0.9636 0.0000
9 -5 5 0.0960 0.0000
9 -5 6 3.6982 0.0000
9 -5 7 -0.1548 0.0000
9 -5 8 1.8683 0.0000
9 -5 9 -2.5564 0.0000
9 -5 10 -0.6948 0.0000
9 -5 11 1.4428 0.0000
9 -5 12 -1.3794 0.0000
9 -5 13 0.1007 0.0000
9 -5 14 -0.9244 0.0000
9 -5 15 -1.1934 0.0000
9 -5 16 0.0570 0.0000
9 -5 17 -1.1529 0.0000
9 -4 0 4.2622 0.0000
9 -4 1 -3.2572 0.0000
9 -4 2 3.4758 0.0000
9 -4 3 1.3655 0.0000
9 -4 4 -6.2493 0.0000
9 -4 5 -1.3972 0.0000
9 -4 6 2.4043 0.0000
9 -4 7 -1.3357 0.0000
9 -4 8 -0.2604 0.0000
9 -4 9 -0.1589 0.0000
9 -4 10 0.4156 0.0000
9 -4 11 0.2266 0.0000
9 -4 12 -1.2734 0.0000
9 -4 13 0.0448 0.0000
9 -4 14 0.0726 0.0000
9 -4 15 -1.1281 0.0000
9 -4 16 -0.1874 0.0000
9 -4 17 0.0996 0.0000
9 -3 0 -4.9949 0.0000
9 -3 1 7.5015 0.0000
9 -3 2 -8.1951 0.0000
9 -3 3 -3.2147 0.0000
9 -3 4 -5.4018 0.0000
9 -3 5 -0.1994 0.0000
9 -3 6 -2.2311 0.0000
9 -3 7 -3.8150 0.0000
9 -3 8 -2.1957 0.0000
9 -3 9 1.1294 0.0000
9 -3 10 -1.8173 0.0000
9 -3 11 0.6218 0.0000
9 -3 12 -0.2843 0.0000
9 -3 13 0.9190 0.0000
9 -3 14 1.4728 0.0000
9 -3 15 -0.0076 0.0000
9 -3 16 1.9149 0.0000
9 -2 0 -4.8834 0.0000
9 -2 1 12.5872 0.0000
9 -2 2 -12.8345 0.0000
9 -2 3 5.1269 0.0000
9 -2 4 1.6953 0.0000
9 -2 5 3.4740 0.0000
9 -2 6 -0.6466 0.0000
9 -2 7 1.2205 0.0000
9 -2 8 1.6400 0.0000
9 -2 9 1.5720 0.0000
9 -2 10 -1.4611 0.0000
9 -2 11 0.3656 0.0000
9 -2 12 -0.5644 0.0000
9 -2 13 -0.1872 0.0000
9 -2 14 0.6264 0.0000
9 -2 15 -0.1580 0.0000
9 -2 16 0.2242 0.0000
9 -1 0 -1.6690 0.0000
9 -1 1 6.3708 0.0000
9 -1 2 -6.6867 0.0000
9 -1 3 7.6036 0.0000
9 -1 4 3.1536 0.0000
9 -1 5 -1.0298 0.0000
9 -1 6 1.3891 0.0000
9 -1 7 1.1899 0.0000
9 -1 8 1.8842 0.0000
9 -1 9 0.6491 0.0000
9 -1 10 0.7498 0.0000
9 -1 11 1.3112 0.0000
9 -1 12 0.0806 0.0000
9 -1 13 -1.0468 0.0000
9 -1 14 -0.2662 0.0000
9 -1 15 -0.5414 0.0000
9 0 0 -2.0001 0.0000
9 0 1 0.3047 0.0000
9 0 2 -1.0531 0.0000
9 0 3 1.1698 0.0000
9 0 4 -2.7038 0.0000
9 0 5 -3.5003 0.0000
9 0 6 2.2600 0.0000
9 0 7 -1.2802 0.0000
9 0 8 -0.7821 0.0000
9 0 9 -2.1169 0.0000
9 0 10 0.4240 0.0000
9 0 11 -0.4507 0.0000
9 0 12 0.6229 0.0000
9 0 13 -1.2124 0.0000
9 0 14 0.7229 0.0000
9 0 15 0.1648 0.0000
9 1 0 -0.1324 0.0000
9 1 1 0.7635 0.0000
9 1 2 3.4934 0.0000
9 1 3 -1.6865 0.0000
9 1 4 -1.7156 0.0000
9 1 5 -0.9018 0.0000
9 1 6 1.5071 0.0000
9 1 7 -1.4216 0.0000
9 1 8 -0.2584 0.0000
9 1 9 -0.4013 0.0000
9 1 10 0.3599 0.0000
9 1 11 -1.5955 0.0000
9 1 12 -0.0442 0.0000
9 1 13 1.0553 0.0000
9 1 14 0.1147 0.0000
9 2 0 -0.7147 0.0000
9 2 1 1.4371 0.0000
9 2 2 0.0842 0.0000
9 2 3 -0.7232 0.0000
9 2 4 1.8251 0.0000
9 2 5 1.8606 0.0000
9 2 6 -0.3393 0.0000
9 2 7 -0.1838 0.0000
9 2 8 0.7412 0.0000
9 2 9 0.6388 0.0000
9 2 10 -0.0512 0.0000
9 2 11 -1.4018 0.0000
9 2 12 0.0144 0.0000
9 2 13 1.7867 0.0000
9 3 0 -1.6143 0.0000
9 3 1 0.7763 0.0000
9 3 2 -2.6237 0.0000
9 3 3 0.4685 0.0000
9 3 4 1.5170 0.0000
9 3 5 -0.4882 0.0000
9 3 6 -1.6049 0.0000
9 3 7 -0.2453 0.0000
9 3 8 0.1683 0.0000
9 3 9 -0.7688 0.0000
9 3 10 -0.3701 0.0000
9 3 11 2.4970 0.0000
9 3 12 0.4762 0.0000
9 3 13 -0.1477 0.0000
9 4 0 -4.0823 0.0000
9 4 1 1.1754 0.0000
9 4 2 -1.9412 0.0000
9 4 3 0.8887 0.0000
9 4 4 -0.9159 0.0000
9 4 5 -2.0689 0.0000
9 4 6 0.7054 0.0000
9 4 7 0.5097 0.0000
9 4 8 1.0922 0.0000
9 4 9 -1.0703 0.0000
9 4 10 0.1977 0.0000
9 4 11 1.6831 0.0000
9 4 12 -2.1512 0.0000
9 5 0 -3.6356 0.0000
9 5 1 3.4154 0.0000
9 5 2 0.1042 0.0000
9 5 3 0.8485 0.0000
9 5 4 -0.4457 0.0000
9 5 5 -0.7167 0.0000
9 5 6 1.3916 0.0000
9 5 7 -1.2444 0.0000
9 5 8 -0.2540 0.0000
9 5 9 -0.0826 0.0000
9 5 10 0.1431 0.0000
9 5 11 0.7839 0.0000
9 6 0 -1.1125 0.0000
9 6 1 1.9004 0.0000
9 6 2 -1.0378 0.0000
9 6 3 -1.4363 0.0000
9 6 4 1.2747 0.0000
9 6 5 1.3666 0.0000
9 6 6 0.5468 0.0000
9 6 7 -0.2742 0.0000
9 6 8 -0.3568 0.0000
9 6 9 0.8937 0.0000
9 6 10 -1.0211 0.0000
9 7 0 0.2407 0.0000
9 7 1 0.7861 0.0000
9 7 2 -0.7412 0.0000
9 7 3 0.0799 0.0000
9 7 4 0.4903 0.0000
9 7 5 0.2159 0.0000
9 7 6 -1.5437 0.0000
9 7 7 0.0652 0.0000
9 7 8 -0.0696 0.0000
9 7 9 0.0252 0.0000
9 8 0 -0.2739 0.0000
9 8 1 -1.7871 0.0000
9 8 2 0.1600 0.0000
9 8 3 -0.4550 0.0000
9 8 4 0.3633 0.0000
9 8 5 0.0247 0.0000
9 8 6 0.4161 0.0000
9 8 7 2.2453 0.0000
9 9 0 0.1128 0.0000
9 9 1 0.1752 0.0000
9 9 2 0.4264 0.0000
9 9 3 0.2633 0.0000
9 9 4 -0.4048 0.0000
9 9 5 -0.3847 0.0000
9 9 6 -0.1661 0.0000
9 10 0 0.0734 0.0000
9 10 1 0.7763 0.0000
9 10 2 0.7070 0.0000
9 10 3 0.0160 0.0000
9 10 4 1.2879 0.0000
9 11 0 0.6322 0.0000
9 11 1 -0.3966 0.0000
9 11 2 0.4531 0.0000
9 12 0 0.5754 0.0000
10 -22 0 0.6614 0.0000
10 -22 1 -0.4381 0.0000
10 -22 2 0.5850 0.0000
10 -22 3 1.9279 0.0000
10 -22 4 0.7546 0.0000
10 -22 5 0.2298 0.0000
10 -22 6 0.8719 0.0000
10 -22 7 -0.7972 0.0000
10 -21 0 -0.0363 0.0000
10 -21 1 -0.3891 0.0000
10 -21 2 0.4834 0.0000
10 -21 3 0.6988 0.0000
10 -21 4 -0.4098 0.0000
10 -21 5 0.1432 0.0000
10 -21 6 0.5982 0.0000
10 -21 7 0.3392 0.0000
10 -21 8 -0.1829 0.0000
10 -21 9 0.8467 0.0000
10 -21 10 -0.3214 0.0000
10 -20 0 -0.0989 0.0000
10 -20 1 0.5575 0.0000
10 -20 2 0.8242 0.0000
10 -20 3 -1.1336 0.0000
10 -20 4 -0.2280 0.0000
10 -20 5 -0.3916 0.0000
10 -20 6 -0.1236 0.0000
10 -20 7 -0.4812 0.0000
10 -20 8 1.4377 0.0000
10 -20 9 -0.4704 0.0000
10 -20 10 0.9303 0.0000
10 -20 11 -0.5696 0.0000
10 -20 12 -0.0485 0.0000
10 -19 0 -0.5724 0.0000
10 -19 1 1.2692 0.0000
10 -19 2 -1.1079 0.0000
10 -19 3 0.6444 0.0000
10 -19 4 0.1093 0.0000
10 -19 5 1.0110 0.0000
10 -19 6 -2.0566 0.0000
10 -19 7 0.0937 0.0000
10 -19 8 0.0840 0.0000
10 -19 9 -1.7633 0.0000
10 -19 10 0.5564 0.0000
10 -19 11 -1.2894 0.0000
10 -19 12 0.0123 0.0000
10 -19 13 -0.4948 0.0000
10 -18 0 -0.4432 0.0000
10 -18 1 0.0053 0.0000
10 -18 2 -0.9176 0.0000
10 -18 3 0.4312 0.0000
10 -18 4 0.5327 0.0000
10 -18 5 -0.1440 0.0000
10 -18 6 0.0133 0.0000
10 -18 7 1.7061 0.0000
10 -18 8 0.1681 0.0000
10 -18 9 -1.2596 0.0000
10 -18 10 0.9178 0.0000
10 -18 11 -1.0566 0.0000
10 -18 12 1.8659 0.0000
10 -18 13 0.2362 0.0000
10 -18 14 -0.3003 0.0000
10 -17 0 -0.6530 0.0000
10 -17 1 -1.1591 0.0000
10 -17 2 0.7060 0.0000
10 -17 3 -2.5408 0.0000
10 -17 4 -0.4992 0.0000
10 -17 5 -1.6224 0.0000
10 -17 6 1.2209 0.0000
10 -17 7 0.3830 0.0000
10 -17 8 -0.1088 0.0000
10 -17 9 0.7118 0.0000
10 -17 10 1.6146 0.0000
10 -17 11 1.3584 0.0000
10 -17 12 0.7721 0.0000
10 -17 13 0.4360 0.0000
10 -17 14 -0.3540 0.0000
10 -17 15 1.2447 0.0000
10 -16 0 -1.2618 0.0000
10 -16 1 2.0287 0.0000
10 -16 2 1.0063 0.0000
10 -16 3 0.4719 0.0000
10 -16 4 0.4070 0.0000
10 -16 5 1.5222 0.0000
10 -16 6 0.3433 0.0000
10 -16 7 -1.3037 0.0000
10 -16 8 0.3605 0.0000
10 -16 9 0.8204 0.0000
10 -16 10 -0.4140 0.0000
10 -16 11 -0.0009 0.0000
10 -16 12 -1.6653 0.0000
10 -16 13 0.5124 0.0000
10 -16 14 0.1330 0.0000
10 -16 15 -0.1565 0.0000
10 -16 16 -1.5143 0.0000
10 -15 0 0.6078 0.0000
10 -15 1 1.2828 0.0000
10 -15 2 -1.6879 0.0000
10 -15 3 2.4608 0.0000
10 -15 4 0.4639 0.0000
10 -15 5 2.0665 0.0000
10 -15 6 0.2547 0.0000
10 -15 7 -1.4912 0.0000
10 -15 8 1.1740 0.0000
10 -15 9 -0.6604 0.0000
10 -15 10 -1.1049 0.0000
10 -15 11 -0.0046 0.0000
10 -15 12 -0.6126 0.0000
10 -15 13 1.5137 0.0000
10 -15 14 -0.8582 0.0000
10 -15 15 0.2041 0.0000
10 -15 16 0.0611 0.0000
10 -14 0 1.9179 0.0000
10 -14 1 -3.0037 0.0000
10 -14 2 -3.6870 0.0000
10 -14 3 0.2593 0.0000
10 -14 4 -2.6593 0.0000
10 -14 5 -2.7454 0.0000
10 -14 6 -0.8781 0.0000
10 -14 7 -0.6535 0.0000
10 -14 8 -0.6041 0.0000
10 -14 9 -1.0514 0.0000
10 -14 10 0.1762 0.0000
10 -14 11 -1.0948 0.0000
10 -14 12 0.6419 0.0000
10 -14 13 -0.6895 0.0000
10 -14 14 -0.7835 0.0000
10 -14 15 -0.5926 0.0000
10 -14 16 1.0798 0.0000
10 -14 17 -0.4217 0.0000
10 -13 0 -2.1483 0.0000
10 -13 1 -1.1388 0.0000
10 -13 2 -0.9483 0.0000
10 -13 3 -1.0403 0.0000
10 -13 4 -2.1147 0.0000
10 -13 5 -4.7585 0.0000
10 -13 6 0.7747 0.0000
10 -13 7 -0.5831 0.0000
10 -13 8 -1.5406 0.0000
10 -13 9 -0.4451 0.0000
10 -13 10 2.0458 0.0000
10 -13 11 -1.9652 0.0000
10 -13 12 1.4764 0.0000
10 -13 13 -0.2883 0.0000
10 -13 14 0.6709 0.0000
10 -13 15 1.8366 0.0000
10 -13 16 0.7457 0.0000
10 -13 17 0.4269 0.0000
10 -12 0 -0.4861 0.0000
10 -12 1 5.7564 0.0000
10 -12 2 6.1844 0.0000
10 -12 3 1.6656 0.0000
10 -12 4 6.4775 0.0000
10 -12 5 1.9214 0.0000
10 -12 6 5.3522 0.0000
10 -12 7 2.2062 0.0000
10 -12 8 0.8973 0.0000
10 -12 9 2.0527 0.0000
10 -12 10 1.0135 0.0000
10 -12 11 -0.3048 0.0000
10 -12 12 0.4298 0.0000
10 -12 13 -0.3773 0.0000
10 -12 14 0.1218 0.0000
10 -12 15 -0.0648 0.0000
10 -12 16 -1.2672 0.0000
10 -12 17 -1.2616 0.0000
10 -11 0 1.0645 0.0000
10 -11 1 4.7276 0.0000
10 -11 2 -1.3732 0.0000
10 -11 3 -0.3874 0.0000
10 -11 4 3.8897 0.0000
10 -11 5 3.9258 0.0000
10 -11 6 0.0029 0.0000
10 -11 7 0.9467 0.0000
10 -11 8 1.6259 0.0000
10 -11 9 0.2681 0.0000
10 -11 10 0.2204 0.0000
10 -11 11 0.9780 0.0000
10 -11 12 -1.3153 0.0000
10 -11 13 -0.0816 0.0000
10 -11 14 -0.6641 0.0000
10 -11 15 -0.7166 0.0000
10 -11 16 0.9866 0.0000
10 -11 17 -0.9277 0.0000
10 -10 0 0.5305 0.0000
10 -10 1 -3.9592 0.0000
10 -10 2 -6.5595 0.0000
10 -10 3 -4.0078 0.0000
10 -10 4 -5.2226 0.0000
10 -10 5 -3.2946 0.0000
10 -10 6 -9.8468 0.0000
10 -10 7 -2.4710 0.0000
10 -10 8 -1.8217 0.0000
10 -10 9 -3.7907 0.0000
10 -10 10 -2.7434 0.0000
10 -10 11 -0.3088 0.0000
10 -10 12 -2.1668 0.0000
10 -10 13 1.3191 0.0000
10 -10 14 -1.5147 0.0000
10 -10 15 -0.6039 0.0000
10 -10 16 -0.1262 0.0000
10 -10 17 -0.5594 0.0000
10 -9 0 0.4646 0.0000
10 -9 1 -3.7498 0.0000
10 -9 2 4.4295 0.0000
10 -9 3 2.9977 0.0000
10 -9 4 -2.6946 0.0000
10 -9 5 2.5761 0.0000
10 -9 6 -2.4275 0.0000
10 -9 7 1.7352 0.0000
10 -9 8 0.8946 0.0000
10 -9 9 -2.2454 0.0000
10 -9 10 0.4641 0.0000
10 -9 11 0.7242 0.0000
10 -9 12 0.5466 0.0000
10 -9 13 0.4015 0.0000
10 -9 14 -0.1449 0.0000
10 -9 15 0.8443 0.0000
10 -9 16 0.7724 0.0000
10 -9 17 0.9112 0.0000
10 -8 0 -8.0316 0.0000
10 -8 1 -3.0658 0.0000
10 -8 2 3.8510 0.0000
10 -8 3 0.3583 0.0000
10 -8 4 -5.3784 0.0000
10 -8 5 4.6984 0.0000
10 -8 6 3.8137 0.0000
10 -8 7 1.0148 0.0000
10 -8 8 3.6161 0.0000
10 -8 9 0.3969 0.0000
10 -8 10 3.8037 0.0000
10 -8 11 1.5336 0.0000
10 -8 12 0.9886 0.0000
10 -8 13 -0.2287 0.0000
10 -8 14 1.3101 0.0000
10 -8 15 0.6608 0.0000
10 -8 16 1.9275 0.0000
10 -8 17 -0.8873 0.0000
10 -7 0 3.0878 0.0000
10 -7 1 3.4920 0.0000
10 -7 2 1.4951 0.0000
10 -7 3 1.6025 0.0000
10 -7 4 -0.1356 0.0000
10 -7 5 3.3232 0.0000
10 -7 6 3.1267 0.0000
10 -7 7 -4.6168 0.0000
10 -7 8 1.9930 0.0000
10 -7 9 -0.8303 0.0000
10 -7 10 1.6246 0.0000
10 -7 11 -1.3803 0.0000
10 -7 12 0.3933 0.0000
10 -7 13 -0.2312 0.0000
10 -7 14 0.8254 0.0000
10 -7 15 -1.3255 0.0000
10 -7 16 -0.8373 0.0000
10 -7 17 -2.5072 0.0000
10 -6 0 13.2013 0.0000
10 -6 1 -0.0491 0.0000
10 -6 2 -6.1219 0.0000
10 -6 3 2.6232 0.0000
10 -6 4 2.7281 0.0000
10 -6 5 -2.3825 0.0000
10 -6 6 2.0876 0.0000
10 -6 7 -4.0622 0.0000
10 -6 8 1.9327 0.0000
10 -6 9 -0.8869 0.0000
10 -6 10 -2.7099 0.0000
10 -6 11 -0.0813 0.0000
10 -6 12 -1.1060 0.0000
10 -6 13 0.4124 0.0000
10 -6 14 -1.1299 0.0000
10 -6 15 -1.6105 0.0000
10 -6 16 -0.1474 0.0000
10 -5 0 9.5109 0.0000
10 -5 1 -4.1510 0.0000
10 -5 2 -5.6217 0.0000
10 -5 3 5.6916 0.0000
10 -5 4 -0.3559 0.0000
10 -5 5 -4.8508 0.0000
10 -5 6 1.0664 0.0000
10 -5 7 0.3720 0.0000
10 -5 8 1.4039 0.0000
10 -5 9 0.5714 0.0000
10 -5 10 -1.4592 0.0000
10 -5 11 1.4536 0.0000
10 -5 12 -0.5631 0.0000
10 -5 13 0.0772 0.0000
10 -5 14 0.2965 0.0000
10 -5 15 0.1920 0.0000
10 -5 16 0.6770 0.0000
10 -4 0 -6.4169 0.0000
10 -4 1 -4.0438 0.0000
10 -4 2 -2.7526 0.0000
10 -4 3 0.8543 0.0000
10 -4 4 -4.3091 0.0000
10 -4 5 -4.3487 0.0000
10 -4 6 0.3299 0.0000
10 -4 7 -1.4477 0.0000
10 -4 8 -2.6480 0.0000
10 -4 9 0.2146 0.0000
10 -4 10 -0.8476 0.0000
10 -4 11 0.9320 0.0000
10 -4 12 -0.0404 0.0000
10 -4 13 0.5461 0.0000
10 -4 14 1.3082 0.0000
10 -4 15 1.2613 0.0000
10 -4 16 -0.4192 0.0000
10 -3 0 -8.9207 0.0000
10 -3 1 11.1695 0.0000
10 -3 2 1.0519 0.0000
10 -3 3 1.0993 0.0000
10 -3 4 0.1616 0.0000
10 -3 5 3.9947 0.0000
10 -3 6 2.4230 0.0000
10 -3 7 1.3325 0.0000
10 -3 8 -0.7650 0.0000
10 -3 9 2.6180 0.0000
10 -3 10 -1.0481 0.0000
10 -3 11 0.4178 0.0000
10 -3 12 -0.4319 0.0000
10 -3 13 -1.1832 0.0000
10 -3 14 0.4631 0.0000
10 -3 15 -0.9131 0.0000
10 -2 0 -7.3490 0.0000
10 -2 1 12.6707 0.0000
10 -2 2 -3.4140 0.0000
10 -2 3 -0.4576 0.0000
10 -2 4 3.5394 0.0000
10 -2 5 2.3541 0.0000
10 -2 6 -0.2222 0.0000
10 -2 7 -0.0984 0.0000
10 -2 8 0.3801 0.0000
10 -2 9 1.4597 0.0000
10 -2 10 -0.5112 0.0000
10 -2 11 0.8812 0.0000
10 -2 12 -0.4153 0.0000
10 -2 13 -1.0448 0.0000
10 -2 14 -0.3022 0.0000
10 -2 15 -0.3399 0.0000
10 -1 0 -3.6838 0.0000
10 -1 1 2.8339 0.0000
10 -1 2 -6.5458 0.0000
10 -1 3 -2.6590 0.0000
10 -1 4 0.6950 0.0000
10 -1 5 -4.1095 0.0000
10 -1 6 -0.9201 0.0000
10 -1 7 -0.5366 0.0000
10 -1 8 -0.4763 0.0000
10 -1 9 -0.9646 0.0000
10 -1 10 -0.8765 0.0000
10 -1 11 -0.3914 0.0000
10 -1 12 0.6870 0.0000
10 -1 13 -0.3409 0.0000
10 -1 14 0.6033 0.0000
10 0 0 -0.8770 0.0000
10 0 1 -1.8215 0.0000
10 0 2 1.5335 0.0000
10 0 3 1.4639 0.0000
10 0 4 0.4478 0.0000
10 0 5 -3.6407 0.0000
10 0 6 1.1702 0.0000
10 0 7 0.3501 0.0000
10 0 8 -0.4557 0.0000
10 0 9 -0.7242 0.0000
10 0 10 0.5072 0.0000
10 0 11 -0.6930 0.0000
10 0 12 1.2817 0.0000
10 0 13 -0.0332 0.0000
10 0 14 0.2909 0.0000
10 1 0 -1.1760 0.0000
10 1 1 -1.2070 0.0000
10 1 2 4.2130 0.0000
10 1 3 1.6408 0.0000
10 1 4 1.5696 0.0000
10 1 5 0.9987 0.0000
10 1 6 1.6128 0.0000
10 1 7 0.0379 0.0000
10 1 8 -0.7672 0.0000
10 1 9 1.0312 0.0000
10 1 10 1.5093 0.0000
10 1 11 -0.2471 0.0000
10 1 12 -1.1768 0.0000
10 1 13 0.6784 0.0000
10 2 0 -0.6729 0.0000
10 2 1 0.2605 0.0000
10 2 2 -1.3258 0.0000
10 2 3 -2.4125 0.0000
10 2 4 -1.5407 0.0000
10 2 5 0.9749 0.0000
10 2 6 -1.4399 0.0000
10 2 7 -1.2558 0.0000
10 2 8 0.0755 0.0000
10 2 9 0.3779 0.0000
10 2 10 -0.0504 0.0000
10 2 11 0.1329 0.0000
10 2 12 -1.1970 0.0000
10 3 0 0.9423 0.0000
10 3 1 -0.0448 0.0000
10 3 2 -1.3175 0.0000
10 3 3 -1.2833 0.0000
10 3 4 -0.0921 0.0000
10 3 5 0.5560 0.0000
10 3 6 -0.7674 0.0000
10 3 7 1.2815 0.0000
10 3 8 2.2412 0.0000
10 3 9 -0.3547 0.0000
10 3 10 -2.0574 0.0000
10 3 11 0.1027 0.0000
10 4 0 -0.6144 0.0000
10 4 1 0.1865 0.0000
10 4 2 1.2822 0.0000
10 4 3 1.2690 0.0000
10 4 4 2.0323 0.0000
10 4 5 -1.2218 0.0000
10 4 6 0.4757 0.0000
10 4 7 -0.6171 0.0000
10 4 8 -0.2504 0.0000
10 4 9 -1.5074 0.0000
10 4 10 -0.1576 0.0000
10 5 0 -3.4758 0.0000
10 5 1 -0.4278 0.0000
10 5 2 0.8765 0.0000
10 5 3 -1.0175 0.0000
10 5 4 1.3390 0.0000
10 5 5 -1.0707 0.0000
10 5 6 2.1097 0.0000
10 5 7 -0.2232 0.0000
10 5 8 -0.7313 0.0000
10 5 9 1.1353 0.0000
10 6 0 -1.0748 0.0000
10 6 1 1.0479 0.0000
10 6 2 0.5014 0.0000
10 6 3 -1.4044 0.0000
10 6 4 -0.0412 0.0000
10 6 5 -0.0485 0.0000
10 6 6 0.3440 0.0000
10 6 7 -0.8161 0.0000
10 6 8 -0.1952 0.0000
10 7 0 1.4851 0.0000
10 7 1 -0.1050 0.0000
10 7 2 -0.2024 0.0000
10 7 3 -0.3261 0.0000
10 7 4 -0.0276 0.0000
10 7 5 0.7146 0.0000
10 7 6 -0.5816 0.0000
10 7 7 0.9513 0.0000
10 8 0 1.2918 0.0000
10 8 1 -1.4052 0.0000
10 8 2 0.4084 0.0000
10 8 3 0.0275 0.0000
10 8 4 -0.6890 0.0000
10 8 5 0.1334 0.0000
10 8 6 -1.9814 0.0000
10 9 0 -0.1085 0.0000
10 9 1 0.4201 0.0000
10 9 2 0.5891 0.0000
10 9 3 0.1620 0.0000
10 9 4 -0.1681 0.0000
10 10 0 -0.6036 0.0000
10 10 1 -0.4334 0.0000
10 10 2 1.1348 0.0000
10 11 0 -0.4044 0.0000
11 -22 0 0.6201 0.0000
11 -22 1 -0.4615 0.0000
11 -22 2 -0.6212 0.0000
11 -22 3 0.7577 0.0000
11 -22 4 0.7833 0.0000
11 -22 5 -0.0120 0.0000
11 -22 6 0.4524 0.0000
11 -22 7 0.4851 0.0000
11 -21 0 -0.4980 0.0000
11 -21 1 -0.8905 0.0000
11 -21 2 -0.2986 0.0000
11 -21 3 0.0990 0.0000
11 -21 4 -0.5825 0.0000
11 -21 5 -0.6018 0.0000
11 -21 6 -0.4684 0.0000
11 -21 7 0.1081 0.0000
11 -21 8 0.3037 0.0000
11 -21 9 0.6042 0.0000
11 -21 10 -0.0306 0.0000
11 -20 0 -0.1660 0.0000
11 -20 1 -0.1177 0.0000
11 -20 2 0.5939 0.0000
11 -20 3 -0.3374 0.0000
11 -20 4 -0.5541 0.0000
11 -20 5 0.5953 0.0000
11 -20 6 -0.2563 0.0000
11 -20 7 -1.1075 0.0000
11 -20 8 0.8035 0.0000
11 -20 9 -1.7599 0.0000
11 -20 10 0.1997 0.0000
11 -20 11 -0.2534 0.0000
11 -19 0 -0.7789 0.0000
11 -19 1 1.2584 0.0000
11 -19 2 -1.3812 0.0000
11 -19 3 0.2852 0.0000
11 -19 4 -0.1804 0.0000
11 -19 5 1.8069 0.0000
11 -19 6 -1.0690 0.0000
11 -19 7 0.4317 0.0000
11 -19 8 1.0323 0.0000
11 -19 9 -0.8402 0.0000
11 -19 10 1.2011 0.0000
11 -19 11 -0.3989 0.0000
11 -19 12 0.5314 0.0000
11 -19 13 0.7031 0.0000
11 -18 0 0.7227 0.0000
11 -18 1 -0.7990 0.0000
11 -18 2 0.0909 0.0000
11 -18 3 -0.9864 0.0000
11 -18 4 0.2942 0.0000
11 -18 5 -1.2093 0.0000
11 -18 6 -0.8178 0.0000
11 -18 7 1.2627 0.0000
11 -18 8 1.4210 0.0000
11 -18 9 0.0036 0.0000
11 -18 10 1.3790 0.0000
11 -18 11 -0.4233 0.0000
11 -18 12 0.5742 0.0000
11 -18 13 0.6200 0.0000
11 -18 14 -1.2697 0.0000
11 -17 0 0.5926 0.0000
11 -17 1 -0.7898 0.0000
11 -17 2 2.6426 0.0000
11 -17 3 0.5033 0.0000
11 -17 4 -0.0384 0.0000
11 -17 5 -0.2591 0.0000
11 -17 6 0.4516 0.0000
11 -17 7 0.6118 0.0000
11 -17 8 -0.8832 0.0000
11 -17 9 -0.5178 0.0000
11 -17 10 -0.6791 0.0000
11 -17 11 0.3121 0.0000
11 -17 12 -0.2819 0.0000
11 -17 13 -0.0680 0.0000
11 -17 14 -0.5503 0.0000
11 -16 0 -1.5836 0.0000
11 -16 1 0.6768 0.0000
11 -16 2 -0.4331 0.0000
11 -16 3 0.2574 0.0000
11 -16 4 -1.2695 0.0000
11 -16 5 1.3728 0.0000
11 -16 6 0.5014 0.0000
11 -16 7 -2.5066 0.0000
11 -16 8 -2.1936 0.0000
11 -16 9 -0.5669 0.0000
11 -16 10 -0.8014 0.0000
11 -16 11 0.1577 0.0000
11 -16 12 -1.3314 0.0000
11 -16 13 0.3004 0.0000
11 -16 14 0.1048 0.0000
11 -16 15 1.1555 0.0000
11 -15 0 -0.3045 0.0000
11 -15 1 0.9890 0.0000
11 -15 2 -3.2729 0.0000
11 -15 3 -0.6919 0.0000
11 -15 4 -0.5568 0.0000
11 -15 5 -0.3535 0.0000
11 -15 6 0.3440 0.0000
11 -15 7 -0.3233 0.0000
11 -15 8 0.8147 0.0000
11 -15 9 1.9546 0.0000
11 -15 10 -0.9559 0.0000
11 -15 11 -0.0795 0.0000
11 -15 12 -1.3324 0.0000
11 -15 13 1.1759 0.0000
11 -15 14 -0.3518 0.0000
11 -15 15 -0.2320 0.0000
11 -14 0 1.3866 0.0000
11 -14 1 0.7422 0.0000
11 -14 2 -2.4780 0.0000
11 -14 3 0.6411 0.0000
11 -14 4 0.8507 0.0000
11 -14 5 -2.3457 0.0000
11 -14 6 -0.2714 0.0000
11 -14 7 1.1347 0.0000
11 -14 8 0.9061 0.0000
11 -14 9 -0.5445 0.0000
11 -14 10 1.2613 0.0000
11 -14 11 -0.1216 0.0000
11 -14 12 1.6563 0.0000
11 -14 13 0.3455 0.0000
11 -14 14 0.7047 0.0000
11 -14 15 -0.1183 0.0000
11 -14 16 1.4154 0.0000
11 -13 0 0.6119 0.0000
11 -13 1 1.5522 0.0000
11 -13 2 4.7196 0.0000
11 -13 3 3.0070 0.0000
11 -13 4 4.5935 0.0000
11 -13 5 -0.1019 0.0000
11 -13 6 1.8949 0.0000
11 -13 7 1.8924 0.0000
11 -13 8 -0.1213 0.0000
11 -13 9 -1.5705 0.0000
11 -13 10 1.5475 0.0000
11 -13 11 -0.5581 0.0000
11 -13 12 -0.5252 0.0000
11 -13 13 -1.0261 0.0000
11 -13 14 -1.8024 0.0000
11 -13 15 0.1138 0.0000
11 -13 16 -1.1289 0.0000
11 -12 0 -3.7383 0.0000
11 -12 1 -0.3774 0.0000
11 -12 2 3.6719 0.0000
11 -12 3 -2.7609 0.0000
11 -12 4 1.2931 0.0000
11 -12 5 0.9566 0.0000
11 -12 6 0.1831 0.0000
11 -12 7 0.6455 0.0000
11 -12 8 -0.6417 0.0000
11 -12 9 0.1985 0.0000
11 -12 10 0.6618 0.0000
11 -12 11 -0.2287 0.0000
11 -12 12 -0.3830 0.0000
11 -12 13 -0.7873 0.0000
11 -12 14 -0.0324 0.0000
11 -12 15 -0.0681 0.0000
11 -12 16 0.2080 0.0000
11 -11 0 -5.4520 0.0000
11 -11 1 0.1918 0.0000
11 -11 2 -5.4677 0.0000
11 -11 3 -7.3994 0.0000
11 -11 4 -5.6140 0.0000
11 -11 5 -2.3104 0.0000
11 -11 6 -5.0935 0.0000
11 -11 7 -3.9897 0.0000
11 -11 8 -1.3724 0.0000
11 -11 9 -0.9482 0.0000
11 -11 10 -2.2586 0.0000
11 -11 11 0.5044 0.0000
11 -11 12 -1.1345 0.0000
11 -11 13 1.4356 0.0000
11 -11 14 0.6943 0.0000
11 -11 15 -0.6962 0.0000
11 -11 16 1.2825 0.0000
11 -10 0 4.9649 0.0000
11 -10 1 2.3221 0.0000
11 -10 2 -1.3749 0.0000
11 -10 3 3.7914 0.0000
11 -10 4 0.5442 0.0000
11 -10 5 4.1201 0.0000
11 -10 6 -0.9766 0.0000
11 -10 7 0.3460 0.0000
11 -10 8 2.1217 0.0000
11 -10 9 1.4545 0.0000
11 -10 10 -0.4617 0.0000
11 -10 11 1.4461 0.0000
11 -10 12 -0.3164 0.0000
11 -10 13 1.4153 0.0000
11 -10 14 0.3219 0.0000
11 -10 15 0.0015 0.0000
11 -10 16 0.6334 0.0000
11 -9 0 1.9204 0.0000
11 -9 1 -4.5967 0.0000
11 -9 2 0.5955 0.0000
11 -9 3 6.8329 0.0000
11 -9 4 -1.2078 0.0000
11 -9 5 2.9788 0.0000
11 -9 6 3.7577 0.0000
11 -9 7 2.4772 0.0000
11 -9 8 4.4152 0.0000
11 -9 9 0.4340 0.0000
11 -9 10 0.9985 0.0000
11 -9 11 1.0662 0.0000
11 -9 12 1.3481 0.0000
11 -9 13 0.4610 0.0000
11 -9 14 -0.1250 0.0000
11 -9 15 0.0025 0.0000
11 -9 16 0.4887 0.0000
11 -8 0 -1.3429 0.0000
11 -8 1 -2.7484 0.0000
11 -8 2 3.3045 0.0000
11 -8 3 3.5768 0.0000
11 -8 4 -3.3945 0.0000
11 -8 5 -1.0495 0.0000
11 -8 6 2.2554 0.0000
11 -8 7 -2.5561 0.0000
11 -8 8 -1.1691 0.0000
11 -8 9 -2.5609 0.0000
11 -8 10 0.4264 0.0000
11 -8 11 -0.0361 0.0000
11 -8 12 0.7999 0.0000
11 -8 13 -1.7282 0.0000
11 -8 14 -0.3163 0.0000
11 -8 15 -1.3882 0.0000
11 -8 16 0.1452 0.0000
11 -7 0 0.3578 0.0000
11 -7 1 3.8748 0.0000
11 -7 2 -0.2847 0.0000
11 -7 3 -3.2326 0.0000
11 -7 4 -0.1902 0.0000
11 -7 5 -2.6508 0.0000
11 -7 6 2.7068 0.0000
11 -7 7 -4.1400 0.0000
11 -7 8 -1.1854 0.0000
11 -7 9 -0.8095 0.0000
11 -7 10 -0.4620 0.0000
11 -7 11 -1.3771 0.0000
11 -7 12 -1.2135 0.0000
11 -7 13 -1.2177 0.0000
11 -7 14 0.1871 0.0000
11 -7 15 -0.2592 0.0000
11 -7 16 -0.0307 0.0000
11 -6 0 2.9061 0.0000
11 -6 1 5.7531 0.0000
11 -6 2 -5.5885 0.0000
11 -6 3 -3.0192 0.0000
11 -6 4 4.1601 0.0000
11 -6 5 -2.7253 0.0000
11 -6 6 1.2853 0.0000
11 -6 7 -0.1645 0.0000
11 -6 8 1.2254 0.0000
11 -6 9 3.7348 0.0000
11 -6 10 -1.9778 0.0000
11 -6 11 0.4603 0.0000
11 -6 12 -0.7800 0.0000
11 -6 13 1.3381 0.0000
11 -6 14 1.2430 0.0000
11 -6 15 0.2158 0.0000
11 -6 16 0.4435 0.0000
11 -5 0 -0.8838 0.0000
11 -5 1 -1.0122 0.0000
11 -5 2 -7.7504 0.0000
11 -5 3 0.7658 0.0000
11 -5 4 2.6181 0.0000
11 -5 5 -3.8064 0.0000
11 -5 6 -1.7611 0.0000
11 -5 7 -0.2534 0.0000
11 -5 8 -1.4498 0.0000
11 -5 9 0.7817 0.0000
11 -5 10 -1.2227 0.0000
11 -5 11 0.7980 0.0000
11 -5 12 0.7412 0.0000
11 -5 13 0.6946 0.0000
11 -5 14 -0.2503 0.0000
11 -5 15 0.9038 0.0000
11 -4 0 -0.5656 0.0000
11 -4 1 2.4143 0.0000
11 -4 2 2.3373 0.0000
11 -4 3 5.1800 0.0000
11 -4 4 1.7224 0.0000
11 -4 5 0.4552 0.0000
11 -4 6 1.9128 0.0000
11 -4 7 2.6934 0.0000
11 -4 8 -1.5252 0.0000
11 -4 9 1.3460 0.0000
11 -4 10 -0.7475 0.0000
11 -4 11 0.3931 0.0000
11 -4 12 -0.5086 0.0000
11 -4 13 -0.9173 0.0000
11 -4 14 -1.1918 0.0000
11 -4 15 1.2406 0.0000
11 -3 0 -8.6449 0.0000
11 -3 1 3.4929 0.0000
11 -3 2 2.8981 0.0000
11 -3 3 -0.9434 0.0000
11 -3 4 -2.4776 0.0000
11 -3 5 1.5222 0.0000
11 -3 6 -0.1791 0.0000
11 -3 7 0.6340 0.0000
11 -3 8 -1.8097 0.0000
11 -3 9 1.0260 0.0000
11 -3 10 -0.7775 0.0000
11 -3 11 -0.0899 0.0000
11 -3 12 0.3718 0.0000
11 -3 13 -1.0920 0.0000
11 -3 14 0.0801 0.0000
11 -2 0 -7.5357 0.0000
11 -2 1 2.9421 0.0000
11 -2 2 -1.2026 0.0000
11 -2 3 -7.0379 0.0000
11 -2 4 -0.5435 0.0000
11 -2 5 -0.4079 0.0000
11 -2 6 -0.8223 0.0000
11 -2 7 -0.1552 0.0000
11 -2 8 -0.6993 0.0000
11 -2 9 1.0061 0.0000
11 -2 10 -0.6025 0.0000
11 -2 11 0.7258 0.0000
11 -2 12 0.6996 0.0000
11 -2 13 -0.3455 0.0000
11 -2 14 0.3161 0.0000
11 -1 0 -0.5951 0.0000
11 -1 1 2.1090 0.0000
11 -1 2 0.6252 0.0000
11 -1 3 -0.2463 0.0000
11 -1 4 4.0003 0.0000
11 -1 5 -1.9907 0.0000
11 -1 6 -0.7120 0.0000
11 -1 7 0.3206 0.0000
11 -1 8 0.4419 0.0000
11 -1 9 -0.1806 0.0000
11 -1 10 0.5744 0.0000
11 -1 11 -0.7604 0.0000
11 -1 12 1.2482 0.0000
11 -1 13 0.0438 0.0000
11 0 0 2.2271 0.0000
11 0 1 -3.4285 0.0000
11 0 2 2.3072 0.0000
11 0 3 2.2470 0.0000
11 0 4 3.6328 0.0000
11 0 5 -1.0981 0.0000
11 0 6 0.5085 0.0000
11 0 7 1.2794 0.0000
11 0 8 -0.3090 0.0000
11 0 9 -0.6338 0.0000
11 0 10 1.3179 0.0000
11 0 11 -0.9389 0.0000
11 0 12 0.2752 0.0000
11 0 13 -0.6077 0.0000
11 1 0 -0.5363 0.0000
11 1 1 -3.4764 0.0000
11 1 2 -0.3481 0.0000
11 1 3 -2.6180 0.0000
11 1 4 -2.3707 0.0000
11 1 5 -0.7240 0.0000
11 1 6 0.3704 0.0000
11 1 7 0.1666 0.0000
11 1 8 -1.7626 0.0000
11 1 9 -0.4723 0.0000
11 1 10 0.4427 0.0000
11 1 11 0.6555 0.0000
11 1 12 -1.1201 0.0000
11 2 0 0.5310 0.0000
11 2 1 1.7196 0.0000
11 2 2 1.0174 0.0000
11 2 3 0.1261 0.0000
11 2 4 -1.0059 0.0000
11 2 5 2.1727 0.0000
11 2 6 0.4379 0.0000
11 2 7 -0.1918 0.0000
11 2 8 1.1541 0.0000
11 2 9 1.6126 0.0000
11 2 10 -0.8150 0.0000
11 2 11 0.1255 0.0000
11 3 0 2.1801 0.0000
11 3 1 0.3799 0.0000
11 3 2 0.0894 0.0000
11 3 3 0.5901 0.0000
11 3 4 0.2188 0.0000
11 3 5 0.6326 0.0000
11 3 6 -1.8073 0.0000
11 3 7 -1.1094 0.0000
11 3 8 1.1375 0.0000
11 3 9 -0.4754 0.0000
11 3 10 -0.8511 0.0000
11 4 0 0.5114 0.0000
11 4 1 -2.4468 0.0000
11 4 2 -0.0451 0.0000
11 4 3 -1.1009 0.0000
11 4 4 1.6564 0.0000
11 4 5 -0.7775 0.0000
11 4 6 0.9480 0.0000
11 4 7 1.5109 0.0000
11 4 8 0.1755 0.0000
11 4 9 -0.4014 0.0000
11 5 0 -0.0452 0.0000
11 5 1 -1.3876 0.0000
11 5 2 1.4981 0.0000
11 5 3 -1.3715 0.0000
11 5 4 1.2364 0.0000
11 5 5 -1.0464 0.0000
11 5 6 0.7164 0.0000
11 5 7 -0.3469 0.0000
11 5 8 -2.5345 0.0000
11 6 0 0.4583 0.0000
11 6 1 0.2371 0.0000
11 6 2 1.1115 0.0000
11 6 3 -0.7484 0.0000
11 6 4 -0.1290 0.0000
11 6 5 -0.9681 0.0000
11 6 6 -0.0888 0.0000
11 6 7 -0.7753 0.0000
11 7 0 1.0869 0.0000
11 7 1 -0.8776 0.0000
11 7 2 -0.0370 0.0000
11 7 3 -0.3328 0.0000
11 7 4 -0.6196 0.0000
11 7 5 0.7762 0.0000
11 7 6 -1.0880 0.0000
11 8 0 1.9345 0.0000
11 8 1 0.5145 0.0000
11 8 2 0.3993 0.0000
11 8 3 1.2054 0.0000
11 8 4 -0.5427 0.0000
11 9 0 -0.4153 0.0000
11 9 1 -1.1218 0.0000
11 9 2 0.3379 0.0000
11 10 0 -0.6216 0.0000
12 -22 0 0.0729 0.0000
12 -22 1 -0.2665 0.0000
12 -22 2 -1.6415 0.0000
12 -22 3 -1.0082 0.0000
12 -22 4 -0.7207 0.0000
12 -22 5 0.1814 0.0000
12 -22 6 -0.7748 0.0000
12 -21 0 0.3046 0.0000
12 -21 1 -0.4391 0.0000
12 -21 2 -0.1513 0.0000
12 -21 3 0.4019 0.0000
12 -21 4 0.2329 0.0000
12 -21 5 0.4907 0.0000
12 -21 6 -0.1087 0.0000
12 -21 7 -1.3650 0.0000
12 -21 8 -0.0663 0.0000
12 -21 9 -0.6347 0.0000
12 -20 0 -0.8126 0.0000
12 -20 1 0.4804 0.0000
12 -20 2 -0.3420 0.0000
12 -20 3 0.9218 0.0000
12 -20 4 -1.1004 0.0000
12 -20 5 0.7574 0.0000
12 -20 6 -0.0146 0.0000
12 -20 7 -0.8891 0.0000
12 -20 8 2.3103 0.0000
12 -20 9 -0.3725 0.0000
12 -20 10 0.5075 0.0000
12 -20 11 0.5257 0.0000
12 -19 0 0.3937 0.0000
12 -19 1 1.6004 0.0000
12 -19 2 -0.1855 0.0000
12 -19 3 -0.3004 0.0000
12 -19 4 -0.6295 0.0000
12 -19 5 1.1595 0.0000
12 -19 6 -0.5783 0.0000
12 -19 7 0.3410 0.0000
12 -19 8 1.5596 0.0000
12 -19 9 -0.7583 0.0000
12 -19 10 0.9685 0.0000
12 -19 11 -0.3423 0.0000
12 -19 12 -0.5632 0.0000
12 -18 0 1.8797 0.0000
12 -18 1 -1.2087 0.0000
12 -18 2 1.1746 0.0000
12 -18 3 0.3406 0.0000
12 -18 4 1.1334 0.0000
12 -18 5 -0.1205 0.0000
12 -18 6 -1.4222 0.0000
12 -18 7 -0.2373 0.0000
12 -18 8 -0.4131 0.0000
12 -18 9 -0.6297 0.0000
12 -18 10 -0.2251 0.0000
12 -18 11 -0.3684 0.0000
12 -18 12 -0.2590 0.0000
12 -18 13 0.8812 0.0000
12 -17 0 0.5573 0.0000
12 -17 1 -1.8415 0.0000
12 -17 2 0.1566 0.0000
12 -17 3 1.1054 0.0000
12 -17 4 -1.5073 0.0000
12 -17 5 -0.9305 0.0000
12 -17 6 -0.5105 0.0000
12 -17 7 -0.8023 0.0000
12 -17 8 -1.8558 0.0000
12 -17 9 -1.4877 0.0000
12 -17 10 -1.0843 0.0000
12 -17 11 -0.7391 0.0000
12 -17 12 0.0827 0.0000
12 -17 13 -0.2264 0.0000
12 -17 14 0.3802 0.0000
12 -16 0 -1.4622 0.0000
12 -16 1 0.7455 0.0000
12 -16 2 -0.9304 0.0000
12 -16 3 -0.3074 0.0000
12 -16 4 -1.8906 0.0000
12 -16 5 0.8009 0.0000
12 -16 6 3.2685 0.0000
12 -16 7 1.8678 0.0000
12 -16 8 0.9854 0.0000
12 -16 9 1.6492 0.0000
12 -16 10 1.0021 0.0000
12 -16 11 0.9334 0.0000
12 -16 12 -0.8601 0.0000
12 -16 13 0.7081 0.0000
12 -16 14 -0.6639 0.0000
12 -15 0 -0.6135 0.0000
12 -15 1 2.4262 0.0000
12 -15 2 -0.8428 0.0000
12 -15 3 -1.0538 0.0000
12 -15 4 1.5361 0.0000
12 -15 5 0.4831 0.0000
12 -15 6 -0.5818 0.0000
12 -15 7 -0.0494 0.0000
12 -15 8 -0.6897 0.0000
12 -15 9 1.6575 0.0000
12 -15 10 0.6404 0.0000
12 -15 11 0.3794 0.0000
12 -15 12 0.1801 0.0000
12 -15 13 0.2941 0.0000
12 -15 14 0.7101 0.0000
12 -15 15 -0.1332 0.0000
12 -14 0 1.1835 0.0000
12 -14 1 2.5992 0.0000
12 -14 2 1.1596 0.0000
12 -14 3 1.3261 0.0000
12 -14 4 4.1615 0.0000
12 -14 5 -0.5436 0.0000
12 -14 6 -1.3767 0.0000
12 -14 7 -0.5292 0.0000
12 -14 8 0.5491 0.0000
12 -14 9 -2.0367 0.0000
12 -14 10 -0.9233 0.0000
12 -14 11 -1.1960 0.0000
12 -14 12 0.0111 0.0000
12 -14 13 -1.1599 0.0000
12 -14 14 -0.9939 0.0000
12 -14 15 -1.0541 0.0000
12 -13 0 -0.6261 0.0000
12 -13 1 -4.1740 0.0000
12 -13 2 1.1615 0.0000
12 -13 3 -1.4395 0.0000
12 -13 4 0.3424 0.0000
12 -13 5 -0.7566 0.0000
12 -13 6 -0.6672 0.0000
12 -13 7 0.9230 0.0000
12 -13 8 0.7418 0.0000
12 -13 9 -1.0297 0.0000
12 -13 10 0.4547 0.0000
12 -13 11 1.1762 0.0000
12 -13 12 0.1181 0.0000
12 -13 13 -0.0789 0.0000
12 -13 14 -0.9739 0.0000
12 -13 15 0.6769 0.0000
12 -12 0 -4.5787 0.0000
12 -12 1 -5.1249 0.0000
12 -12 2 -0.1326 0.0000
12 -12 3 -5.2732 0.0000
12 -12 4 -5.2438 0.0000
12 -12 5 -1.7322 0.0000
12 -12 6 -2.1464 0.0000
12 -12 7 -1.5333 0.0000
12 -12 8 -0.8227 0.0000
12 -12 9 -0.4114 0.0000
12 -12 10 0.5467 0.0000
12 -12 11 0.3159 0.0000
12 -12 12 0.1583 0.0000
12 -12 13 0.7417 0.0000
12 -12 14 1.4426 0.0000
12 -12 15 0.3648 0.0000
12 -11 0 -0.1932 0.0000
12 -11 1 5.2920 0.0000
12 -11 2 3.1233 0.0000
12 -11 3 1.6622 0.0000
12 -11 4 1.4675 0.0000
12 -11 5 4.2320 0.0000
12 -11 6 1.9095 0.0000
12 -11 7 0.8467 0.0000
12 -11 8 0.3471 0.0000
12 -11 9 2.8598 0.0000
12 -11 10 -0.5724 0.0000
12 -11 11 1.0892 0.0000
12 -11 12 -1.0615 0.0000
12 -11 13 0.7112 0.0000
12 -11 14 0.9544 0.0000
12 -11 15 -0.8563 0.0000
12 -10 0 2.4380 0.0000
12 -10 1 3.6899 0.0000
12 -10 2 -2.4198 0.0000
12 -10 3 4.4010 0.0000
12 -10 4 1.8278 0.0000
12 -10 5 2.9848 0.0000
12 -10 6 2.6337 0.0000
12 -10 7 0.8834 0.0000
12 -10 8 1.4981 0.0000
12 -10 9 1.0883 0.0000
12 -10 10 -0.5035 0.0000
12 -10 11 -0.0211 0.0000
12 -10 12 0.3006 0.0000
12 -10 13 0.1728 0.0000
12 -10 14 0.2079 0.0000
12 -10 15 -0.7145 0.0000
12 -9 0 2.8337 0.0000
12 -9 1 -3.2638 0.0000
12 -9 2 -4.4702 0.0000
12 -9 3 3.4945 0.0000
12 -9 4 -1.6401 0.0000
12 -9 5 -4.5017 0.0000
12 -9 6 -1.1028 0.0000
12 -9 7 -2.9539 0.0000
12 -9 8 -0.5163 0.0000
12 -9 9 -1.8740 0.0000
12 -9 10 -1.0095 0.0000
12 -9 11 -0.4725 0.0000
12 -9 12 0.4296 0.0000
12 -9 13 -0.5122 0.0000
12 -9 14 -0.8278 0.0000
12 -9 15 -1.4830 0.0000
12 -8 0 1.1022 0.0000
12 -8 1 -3.0704 0.0000
12 -8 2 0.2343 0.0000
12 -8 3 0.4228 0.0000
12 -8 4 -1.8890 0.0000
12 -8 5 -3.5844 0.0000
12 -8 6 1.2434 0.0000
12 -8 7 -0.3697 0.0000
12 -8 8 -0.7235 0.0000
12 -8 9 -2.4810 0.0000
12 -8 10 -0.3240 0.0000
12 -8 11 -1.4795 0.0000
12 -8 12 0.6298 0.0000
12 -8 13 -1.2762 0.0000
12 -8 14 -0.2246 0.0000
12 -8 15 -0.2335 0.0000
12 -7 0 -4.0876 0.0000
12 -7 1 1.7106 0.0000
12 -7 2 3.5369 0.0000
12 -7 3 -4.4367 0.0000
12 -7 4 2.0016 0.0000
12 -7 5 -1.1400 0.0000
12 -7 6 3.0612 0.0000
12 -7 7 1.3821 0.0000
12 -7 8 -0.2052 0.0000
12 -7 9 2.6474 0.0000
12 -7 10 0.6974 0.0000
12 -7 11 0.7557 0.0000
12 -7 12 -0.5489 0.0000
12 -7 13 0.4956 0.0000
12 -7 14 0.7899 0.0000
12 -7 15 1.7744 0.0000
12 -6 0 -4.6209 0.0000
12 -6 1 4.3487 0.0000
12 -6 2 -0.2756 0.0000
12 -6 3 -4.5400 0.0000
12 -6 4 3.3074 0.0000
12 -6 5 -0.1620 0.0000
12 -6 6 -2.2989 0.0000
12 -6 7 -0.5683 0.0000
12 -6 8 -2.7120 0.0000
12 -6 9 2.7976 0.0000
12 -6 10 -0.2207 0.0000
12 -6 11 -0.0189 0.0000
12 -6 12 -0.5343 0.0000
12 -6 13 0.4954 0.0000
12 -6 14 0.5149 0.0000
12 -6 15 0.4662 0.0000
12 -5 0 2.9537 0.0000
12 -5 1 4.6328 0.0000
12 -5 2 -1.4719 0.0000
12 -5 3 0.2716 0.0000
12 -5 4 4.0924 0.0000
12 -5 5 0.6389 0.0000
12 -5 6 -0.4277 0.0000
12 -5 7 1.8268 0.0000
12 -5 8 -0.8753 0.0000
12 -5 9 0.5029 0.0000
12 -5 10 -0.9746 0.0000
12 -5 11 -0.5037 0.0000
12 -5 12 -0.1182 0.0000
12 -5 13 0.6400 0.0000
12 -5 14 -1.6978 0.0000
12 -4 0 -2.0959 0.0000
12 -4 1 -2.2422 0.0000
12 -4 2 -2.1805 0.0000
12 -4 3 1.5770 0.0000
12 -4 4 -1.8023 0.0000
12 -4 5 -0.4906 0.0000
12 -4 6 -0.8915 0.0000
12 -4 7 1.9974 0.0000
12 -4 8 -1.1201 0.0000
12 -4 9 0.3674 0.0000
12 -4 10 -0.2577 0.0000
12 -4 11 0.3069 0.0000
12 -4 12 0.3898 0.0000
12 -4 13 0.0631 0.0000
12 -4 14 -1.7482 0.0000
12 -3 0 -4.9529 0.0000
12 -3 1 -2.5229 0.0000
12 -3 2 2.6960 0.0000
12 -3 3 -0.6267 0.0000
12 -3 4 -2.6946 0.0000
12 -3 5 1.0461 0.0000
12 -3 6 0.2222 0.0000
12 -3 7 1.1608 0.0000
12 -3 8 -0.5583 0.0000
12 -3 9 0.8153 0.0000
12 -3 10 0.7960 0.0000
12 -3 11 0.2388 0.0000
12 -3 12 0.9743 0.0000
12 -3 13 -0.4145 0.0000
12 -2 0 -1.7997 0.0000
12 -2 1 1.7615 0.0000
12 -2 2 5.1661 0.0000
12 -2 3 -2.3654 0.0000
12 -2 4 1.2844 0.0000
12 -2 5 0.3836 0.0000
12 -2 6 -1.3343 0.0000
12 -2 7 -0.1522 0.0000
12 -2 8 -1.3684 0.0000
12 -2 9 0.2445 0.0000
12 -2 10 -0.4177 0.0000
12 -2 11 -0.5440 0.0000
12 -2 12 1.2892 0.0000
12 -2 13 0.0181 0.0000
12 -1 0 2.3172 0.0000
12 -1 1 -1.0394 0.0000
12 -1 2 0.2936 0.0000
12 -1 3 -1.6529 0.0000
12 -1 4 4.3916 0.0000
12 -1 5 -0.1540 0.0000
12 -1 6 -0.9571 0.0000
12 -1 7 -0.4219 0.0000
12 -1 8 1.2120 0.0000
12 -1 9 -0.4368 0.0000
12 -1 10 1.4812 0.0000
12 -1 11 -1.4097 0.0000
12 -1 12 0.1947 0.0000
12 0 0 3.5820 0.0000
12 0 1 -4.3270 0.0000
12 0 2 -1.0423 0.0000
12 0 3 -2.1072 0.0000
12 0 4 0.2617 0.0000
12 0 5 -1.5085 0.0000
12 0 6 -0.4808 0.0000
12 0 7 1.4849 0.0000
12 0 8 0.5839 0.0000
12 0 9 -1.8944 0.0000
12 0 10 0.3534 0.0000
12 0 11 -1.0928 0.0000
12 1 0 0.8536 0.0000
12 1 1 -0.7733 0.0000
12 1 2 2.5705 0.0000
12 1 3 0.9597 0.0000
12 1 4 -0.9196 0.0000
12 1 5 0.0830 0.0000
12 1 6 1.2579 0.0000
12 1 7 1.3869 0.0000
12 1 8 -0.6067 0.0000
12 1 9 -0.0287 0.0000
12 1 10 -0.5008 0.0000
12 1 11 0.8703 0.0000
12 2 0 -1.3646 0.0000
12 2 1 -0.1354 0.0000
12 2 2 -0.4966 0.0000
12 2 3 0.2078 0.0000
12 2 4 -1.6297 0.0000
12 2 5 1.4594 0.0000
12 2 6 -0.3628 0.0000
12 2 7 -1.8007 0.0000
12 2 8 -1.0159 0.0000
12 2 9 0.9969 0.0000
12 2 10 -0.0268 0.0000
12 3 0 1.0809 0.0000
12 3 1 1.0832 0.0000
12 3 2 -0.1497 0.0000
12 3 3 0.6695 0.0000
12 3 4 0.6483 0.0000
12 3 5 1.3430 0.0000
12 3 6 -1.0692 0.0000
12 3 7 -0.5042 0.0000
12 3 8 1.9471 0.0000
12 3 9 0.3297 0.0000
12 4 0 2.5106 0.0000
12 4 1 -0.4695 0.0000
12 4 2 0.3262 0.0000
12 4 3 -1.4304 0.0000
12 4 4 0.2780 0.0000
12 4 5 -0.8341 0.0000
12 4 6 -1.3627 0.0000
12 4 7 1.4013 0.0000
12 4 8 -1.2973 0.0000
12 5 0 1.3996 0.0000
12 5 1 -0.8822 0.0000
12 5 2 0.4799 0.0000
12 5 3 -1.5620 0.0000
12 5 4 -0.0829 0.0000
12 5 5 -0.8581 0.0000
12 5 6 0.8356 0.0000
12 6 0 -0.0981 0.0000
12 6 1 -1.2592 0.0000
12 6 2 0.6251 0.0000
12 6 3 0.1102 0.0000
12 6 4 1.2490 0.0000
12 6 5 1.1918 0.0000
12 7 0 1.2667 0.0000
12 7 1 0.3769 0.0000
12 7 2 1.1036 0.0000
12 7 3 0.9859 0.0000
12 7 4 -0.7535 0.0000
12 8 0 -0.6643 0.0000
12 8 1 -0.5059 0.0000
12 8 2 -1.0425 0.0000
12 9 0 0.5261 0.0000
13 -22 0 0.4226 0.0000
13 -22 1 0.9896 0.0000
13 -22 2 0.3653 0.0000
13 -22 3 0.3070 0.0000
13 -22 4 -0.6732 0.0000
13 -21 0 0.1593 0.0000
13 -21 1 0.2112 0.0000
13 -21 2 -0.5394 0.0000
13 -21 3 0.0567 0.0000
13 -21 4 -0.1596 0.0000
13 -21 5 0.4754 0.0000
13 -21 6 1.8123 0.0000
13 -21 7 -0.7068 0.0000
13 -21 8 1.7938 0.0000
13 -20 0 -0.9319 0.0000
13 -20 1 1.7837 0.0000
13 -20 2 -0.2528 0.0000
13 -20 3 1.4511 0.0000
13 -20 4 -0.1218 0.0000
13 -20 5 0.7893 0.0000
13 -20 6 0.4464 0.0000
13 -20 7 -2.2979 0.0000
13 -20 8 1.1031 0.0000
13 -20 9 -0.9369 0.0000
13 -20 10 -0.9252 0.0000
13 -19 0 -0.9534 0.0000
13 -19 1 -0.0548 0.0000
13 -19 2 0.3475 0.0000
13 -19 3 -0.1791 0.0000
13 -19 4 -0.9116 0.0000
13 -19 5 -0.2616 0.0000
13 -19 6 -1.5979 0.0000
13 -19 7 -1.3687 0.0000
13 -19 8 0.4016 0.0000
13 -19 9 -1.0957 0.0000
13 -19 10 0.1949 0.0000
13 -19 11 0.2997 0.0000
13 -18 0 2.0181 0.0000
13 -18 1 -1.1671 0.0000
13 -18 2 -0.8089 0.0000
13 -18 3 -0.0312 0.0000
13 -18 4 -0.3099 0.0000
13 -18 5 0.2338 0.0000
13 -18 6 -0.5626 0.0000
13 -18 7 0.2733 0.0000
13 -18 8 -0.7722 0.0000
13 -18 9 -0.3703 0.0000
13 -18 10 0.0191 0.0000
13 -18 11 -0.6010 0.0000
13 -18 12 -0.1642 0.0000
13 -17 0 0.8270 0.0000
13 -17 1 -0.8542 0.0000
13 -17 2 -0.9878 0.0000
13 -17 3 1.7769 0.0000
13 -17 4 -0.1444 0.0000
13 -17 5 0.2970 0.0000
13 -17 6 2.8391 0.0000
13 -17 7 2.6181 0.0000
13 -17 8 2.5035 0.0000
13 -17 9 0.8419 0.0000
13 -17 10 1.5707 0.0000
13 -17 11 -0.0037 0.0000
13 -17 12 0.1982 0.0000
13 -17 13 -0.0565 0.0000
13 -16 0 -1.1879 0.0000
13 -16 1 1.2311 0.0000
13 -16 2 1.4224 0.0000
13 -16 3 0.6274 0.0000
13 -16 4 -0.4274 0.0000
13 -16 5 -0.8980 0.0000
13 -16 6 -0.1394 0.0000
13 -16 7 -0.6754 0.0000
13 -16 8 -1.1224 0.0000
13 -16 9 -0.7136 0.0000
13 -16 10 0.3535 0.0000
13 -16 11 0.8426 0.0000
13 -16 12 -0.6801 0.0000
13 -16 13 0.6510 0.0000
13 -15 0 -0.6042 0.0000
13 -15 1 2.0636 0.0000
13 -15 2 1.5970 0.0000
13 -15 3 -2.1530 0.0000
13 -15 4 0.8584 0.0000
13 -15 5 0.6367 0.0000
13 -15 6 -1.4657 0.0000
13 -15 7 -1.4455 0.0000
13 -15 8 -1.4622 0.0000
13 -15 9 -1.2779 0.0000
13 -15 10 -0.3815 0.0000
13 -15 11 -1.5477 0.0000
13 -15 12 0.3678 0.0000
13 -15 13 -1.1803 0.0000
13 -15 14 0.0462 0.0000
13 -14 0 -0.7791 0.0000
13 -14 1 -2.2217 0.0000
13 -14 2 -1.5235 0.0000
13 -14 3 -2.8659 0.0000
13 -14 4 1.3887 0.0000
13 -14 5 0.2194 0.0000
13 -14 6 -0.3800 0.0000
13 -14 7 0.0106 0.0000
13 -14 8 2.0997 0.0000
13 -14 9 1.2821 0.0000
13 -14 10 -0.1607 0.0000
13 -14 11 0.5298 0.0000
13 -14 12 0.6730 0.0000
13 -14 13 0.1138 0.0000
13 -14 14 -0.8143 0.0000
13 -13 0 1.3699 0.0000
13 -13 1 -4.7640 0.0000
13 -13 2 -0.3220 0.0000
13 -13 3 -0.8491 0.0000
13 -13 4 -1.7728 0.0000
13 -13 5 -0.9654 0.0000
13 -13 6 -0.6832 0.0000
13 -13 7 -0.1182 0.0000
13 -13 8 0.8972 0.0000
13 -13 9 -0.3481 0.0000
13 -13 10 0.0338 0.0000
13 -13 11 1.0667 0.0000
13 -13 12 0.9726 0.0000
13 -13 13 0.9338 0.0000
13 -13 14 0.6781 0.0000
13 -12 0 2.2694 0.0000
13 -12 1 0.2845 0.0000
13 -12 2 5.2524 0.0000
13 -12 3 3.3985 0.0000
13 -12 4 0.6704 0.0000
13 -12 5 2.1632 0.0000
13 -12 6 1.9626 0.0000
13 -12 7 0.3610 0.0000
13 -12 8 -0.5102 0.0000
13 -12 9 0.1754 0.0000
13 -12 10 0.2334 0.0000
13 -12 11 0.5463 0.0000
13 -12 12 -1.2416 0.0000
13 -12 13 -0.2814 0.0000
13 -12 14 0.7653 0.0000
13 -11 0 -1.6994 0.0000
13 -11 1 2.6826 0.0000
13 -11 2 1.5074 0.0000
13 -11 3 0.9343 0.0000
13 -11 4 -0.2088 0.0000
13 -11 5 1.8637 0.0000
13 -11 6 0.5552 0.0000
13 -11 7 0.9485 0.0000
13 -11 8 -1.7554 0.0000
13 -11 9 0.7899 0.0000
13 -11 10 -0.9853 0.0000
13 -11 11 -0.7026 0.0000
13 -11 12 -0.7897 0.0000
13 -11 13 -0.5857 0.0000
13 -11 14 0.3152 0.0000
13 -10 0 -2.0777 0.0000
13 -10 1 1.6666 0.0000
13 -10 2 -5.9180 0.0000
13 -10 3 -2.3875 0.0000
13 -10 4 -0.8157 0.0000
13 -10 5 -3.3937 0.0000
13 -10 6 -1.3920 0.0000
13 -10 7 -1.9864 0.0000
13 -10 8 -0.4318 0.0000
13 -10 9 -0.1210 0.0000
13 -10 10 -0.2709 0.0000
13 -10 11 -0.7371 0.0000
13 -10 12 0.3395 0.0000
13 -10 13 -0.4272 0.0000
13 -10 14 -0.3096 0.0000
13 -9 0 3.6175 0.0000
13 -9 1 0.4695 0.0000
13 -9 2 -4.2494 0.0000
13 -9 3 0.5541 0.0000
13 -9 4 1.8152 0.0000
13 -9 5 -2.1484 0.0000
13 -9 6 0.0560 0.0000
13 -9 7 -0.2311 0.0000
13 -9 8 0.5547 0.0000
13 -9 9 -1.0750 0.0000
13 -9 10 -0.7041 0.0000
13 -9 11 -1.0659 0.0000
13 -9 12 0.6402 0.0000
13 -9 13 -0.0525 0.0000
13 -9 14 0.8340 0.0000
13 -8 0 0.9255 0.0000
13 -8 1 -2.7639 0.0000
13 -8 2 2.1938 0.0000
13 -8 3 1.0345 0.0000
13 -8 4 1.7803 0.0000
13 -8 5 -1.3125 0.0000
13 -8 6 1.3953 0.0000
13 -8 7 1.8077 0.0000
13 -8 8 1.9218 0.0000
13 -8 9 -0.0053 0.0000
13 -8 10 1.2378 0.0000
13 -8 11 0.0158 0.0000
13 -8 12 0.6601 0.0000
13 -8 13 0.7304 0.0000
13 -8 14 0.3786 0.0000
13 -7 0 -3.0090 0.0000
13 -7 1 -2.1107 0.0000
13 -7 2 5.9816 0.0000
13 -7 3 -2.3250 0.0000
13 -7 4 0.2197 0.0000
13 -7 5 -0.1282 0.0000
13 -7 6 -1.3123 0.0000
13 -7 7 0.9689 0.0000
13 -7 8 -3.0353 0.0000
13 -7 9 1.3008 0.0000
13 -7 10 0.4396 0.0000
13 -7 11 1.4035 0.0000
13 -7 12 -1.1094 0.0000
13 -7 13 0.2047 0.0000
13 -7 14 -1.2187 0.0000
13 -6 0 -1.5624 0.0000
13 -6 1 2.0497 0.0000
13 -6 2 2.6078 0.0000
13 -6 3 -3.3167 0.0000
13 -6 4 0.7688 0.0000
13 -6 5 2.6592 0.0000
13 -6 6 -0.5198 0.0000
13 -6 7 1.2039 0.0000
13 -6 8 -1.6942 0.0000
13 -6 9 0.4787 0.0000
13 -6 10 1.0006 0.0000
13 -6 11 -0.4454 0.0000
13 -6 12 -0.6327 0.0000
13 -6 13 0.0220 0.0000
13 -5 0 -0.5890 0.0000
13 -5 1 1.0688 0.0000
13 -5 2 -2.1349 0.0000
13 -5 3 -1.5176 0.0000
13 -5 4 0.4164 0.0000
13 -5 5 0.4395 0.0000
13 -5 6 -1.2348 0.0000
13 -5 7 1.7033 0.0000
13 -5 8 0.3333 0.0000
13 -5 9 0.9228 0.0000
13 -5 10 -0.2900 0.0000
13 -5 11 -0.4688 0.0000
13 -5 12 -0.4658 0.0000
13 -5 13 1.1188 0.0000
13 -4 0 -0.0632 0.0000
13 -4 1 -0.7055 0.0000
13 -4 2 -1.4997 0.0000
13 -4 3 3.0293 0.0000
13 -4 4 -0.5499 0.0000
13 -4 5 0.3406 0.0000
13 -4 6 -0.3671 0.0000
13 -4 7 0.5844 0.0000
13 -4 8 0.0165 0.0000
13 -4 9 -1.2649 0.0000
13 -4 10 0.3457 0.0000
13 -4 11 0.3548 0.0000
13 -4 12 0.9391 0.0000
13 -4 13 1.0333 0.0000
13 -3 0 0.0265 0.0000
13 -3 1 -2.1724 0.0000
13 -3 2 3.3508 0.0000
13 -3 3 0.9325 0.0000
13 -3 4 -1.9029 0.0000
13 -3 5 -0.5554 0.0000
13 -3 6 -1.0534 0.0000
13 -3 7 0.0204 0.0000
13 -3 8 -1.3656 0.0000
13 -3 9 -1.1268 0.0000
13 -3 10 0.0939 0.0000
13 -3 11 -0.4196 0.0000
13 -3 12 0.8375 0.0000
13 -2 0 0.4228 0.0000
13 -2 1 -1.7128 0.0000
13 -2 2 2.5823 0.0000
13 -2 3 -2.4187 0.0000
13 -2 4 0.4709 0.0000
13 -2 5 1.6510 0.0000
13 -2 6 -0.1820 0.0000
13 -2 7 0.2282 0.0000
13 -2 8 0.3554 0.0000
13 -2 9 0.9104 0.0000
13 -2 10 1.4403 0.0000
13 -2 11 -1.5485 0.0000
13 -1 0 3.7622 0.0000
13 -1 1 -1.5093 0.0000
13 -1 2 -0.1177 0.0000
13 -1 3 -3.8790 0.0000
13 -1 4 1.6543 0.0000
13 -1 5 0.9446 0.0000
13 -1 6 0.1296 0.0000
13 -1 7 -1.3528 0.0000
13 -1 8 1.0952 0.0000
13 -1 9 -1.8534 0.0000
13 -1 10 0.4327 0.0000
13 -1 11 -1.8248 0.0000
13 0 0 2.3134 0.0000
13 0 1 -2.2288 0.0000
13 0 2 0.9453 0.0000
13 0 3 0.3940 0.0000
13 0 4 1.1550 0.0000
13 0 5 -1.1294 0.0000
13 0 6 -1.3128 0.0000
13 0 7 0.1291 0.0000
13 0 8 1.4880 0.0000
13 0 9 -0.6431 0.0000
13 0 10 0.6172 0.0000
13 1 0 -0.6230 0.0000
13 1 1 -1.9110 0.0000
13 1 2 0.5418 0.0000
13 1 3 1.2931 0.0000
13 1 4 -1.1268 0.0000
13 1 5 -0.8303 0.0000
13 1 6 0.5112 0.0000
13 1 7 1.4717 0.0000
13 1 8 -0.2992 0.0000
13 1 9 0.8167 0.0000
13 2 0 0.6300 0.0000
13 2 1 2.2179 0.0000
13 2 2 0.7464 0.0000
13 2 3 1.3966 0.0000
13 2 4 -1.6373 0.0000
13 2 5 1.7768 0.0000
13 2 6 0.5043 0.0000
13 2 7 -1.1298 0.0000
13 2 8 -0.6055 0.0000
13 3 0 -0.5066 0.0000
13 3 1 0.2612 0.0000
13 3 2 -1.2672 0.0000
13 3 3 -1.0679 0.0000
13 3 4 -0.8026 0.0000
13 3 5 1.7920 0.0000
13 3 6 -1.4016 0.0000
13 3 7 -1.2590 0.0000
13 4 0 0.5013 0.0000
13 4 1 0.4871 0.0000
13 4 2 0.6285 0.0000
13 4 3 -0.3480 0.0000
13 4 4 -0.3001 0.0000
13 4 5 0.1708 0.0000
13 4 6 -1.5250 0.0000
13 5 0 0.5617 0.0000
13 5 1 0.1158 0.0000
13 5 2 0.8795 0.0000
13 5 3 -0.3362 0.0000
13 5 4 0.8664 0.0000
13 5 5 -0.0349 0.0000
13 6 0 0.5466 0.0000
13 6 1 -1.1928 0.0000
13 6 2 -0.3050 0.0000
13 6 3 -0.3348 0.0000
13 7 0 -0.5591 0.0000
13 7 1 -1.4475 0.0000
13 7 2 -0.2819 0.0000
13 8 0 0.2243 0.0000
14 -21 0 -0.4168 0.0000
14 -21 1 1.1950 0.0000
14 -21 2 0.2140 0.0000
14 -21 3 -0.0061 0.0000
14 -21 4 -0.2714 0.0000
14 -21 5 -1.2720 0.0000
14 -21 6 0.9987 0.0000
14 -21 7 -2.7836 0.0000
14 -20 0 -2.6397 0.0000
14 -20 1 -0.7338 0.0000
14 -20 2 -1.2565 0.0000
14 -20 3 -0.8897 0.0000
14 -20 4 -0.8516 0.0000
14 -20 5 -0.4739 0.0000
14 -20 6 1.0117 0.0000
14 -20 7 -1.6288 0.0000
14 -20 8 1.2987 0.0000
14 -20 9 0.5658 0.0000
14 -19 0 0.0182 0.0000
14 -19 1 -0.0557 0.0000
14 -19 2 0.1653 0.0000
14 -19 3 1.1396 0.0000
14 -19 4 0.7028 0.0000
14 -19 5 1.2668 0.0000
14 -19 6 0.5306 0.0000
14 -19 7 0.2337 0.0000
14 -19 8 0.7046 0.0000
14 -19 9 -0.2114 0.0000
14 -19 10 0.2879 0.0000
14 -18 0 1.4710 0.0000
14 -18 1 0.8315 0.0000
14 -18 2 -0.6521 0.0000
14 -18 3 1.4546 0.0000
14 -18 4 0.0172 0.0000
14 -18 5 0.1861 0.0000
14 -18 6 0.7066 0.0000
14 -18 7 1.5440 0.0000
14 -18 8 0.8473 0.0000
14 -18 9 -0.1339 0.0000
14 -18 10 1.2328 0.0000
14 -18 11 -0.1946 0.0000
14 -17 0 0.9081 0.0000
14 -17 1 0.1858 0.0000
14 -17 2 -0.7580 0.0000
14 -17 3 1.0979 0.0000
14 -17 4 -0.3474 0.0000
14 -17 5 -2.0575 0.0000
14 -17 6 -0.6827 0.0000
14 -17 7 -1.6876 0.0000
14 -17 8 0.1452 0.0000
14 -17 9 -0.9719 0.0000
14 -17 10 0.3268 0.0000
14 -17 11 0.5802 0.0000
14 -17 12 -1.0177 0.0000
14 -16 0 -1.0123 0.0000
14 -16 1 -1.4017 0.0000
14 -16 2 1.2482 0.0000
14 -16 3 -1.2011 0.0000
14 -16 4 -0.6710 0.0000
14 -16 5 -0.4232 0.0000
14 -16 6 -0.0941 0.0000
14 -16 7 -0.7233 0.0000
14 -16 8 -0.3327 0.0000
14 -16 9 -1.6571 0.0000
14 -16 10 -0.8853 0.0000
14 -16 11 -0.7310 0.0000
14 -16 12 -0.3229 0.0000
14 -15 0 -1.5179 0.0000
14 -15 1 -1.3535 0.0000
14 -15 2 1.3189 0.0000
14 -15 3 -2.6007 0.0000
14 -15 4 0.0746 0.0000
14 -15 5 1.3679 0.0000
14 -15 6 1.1963 0.0000
14 -15 7 0.4176 0.0000
14 -15 8 1.2751 0.0000
14 -15 9 0.9582 0.0000
14 -15 10 1.0968 0.0000
14 -15 11 -0.5283 0.0000
14 -15 12 1.3108 0.0000
14 -15 13 -0.4172 0.0000
14 -14 0 2.4905 0.0000
14 -14 1 0.0423 0.0000
14 -14 2 0.4127 0.0000
14 -14 3 -0.8638 0.0000
14 -14 4 0.4723 0.0000
14 -14 5 0.3524 0.0000
14 -14 6 -0.4191 0.0000
14 -14 7 -0.6074 0.0000
14 -14 8 -0.0813 0.0000
14 -14 9 1.3461 0.0000
14 -14 10 -0.4117 0.0000
14 -14 11 0.8392 0.0000
14 -14 12 1.0014 0.0000
14 -14 13 1.3619 0.0000
14 -13 0 4.4476 0.0000
14 -13 1 -0.5781 0.0000
14 -13 2 1.0434 0.0000
14 -13 3 2.5936 0.0000
14 -13 4 0.9923 0.0000
14 -13 5 -0.2222 0.0000
14 -13 6 0.4544 0.0000
14 -13 7 -0.7015 0.0000
14 -13 8 -0.2160 0.0000
14 -13 9 -1.2357 0.0000
14 -13 10 -0.8230 0.0000
14 -13 11 -0.0894 0.0000
14 -13 12 -0.6527 0.0000
14 -13 13 -0.5862 0.0000
14 -12 0 0.2339 0.0000
14 -12 1 -2.0992 0.0000
14 -12 2 0.7311 0.0000
14 -12 3 1.5503 0.0000
14 -12 4 -0.5884 0.0000
14 -12 5 0.1623 0.0000
14 -12 6 0.6043 0.0000
14 -12 7 0.8398 0.0000
14 -12 8 -1.7268 0.0000
14 -12 9 -0.6232 0.0000
14 -12 10 -0.9918 0.0000
14 -12 11 0.1334 0.0000
14 -12 12 -1.3692 0.0000
14 -12 13 -1.2170 0.0000
14 -11 0 -4.6761 0.0000
14 -11 1 -1.0195 0.0000
14 -11 2 -2.0828 0.0000
14 -11 3 -2.0840 0.0000
14 -11 4 -2.5131 0.0000
14 -11 5 -0.7979 0.0000
14 -11 6 -1.2400 0.0000
14 -11 7 0.2225 0.0000
14 -11 8 0.0724 0.0000
14 -11 9 1.0043 0.0000
14 -11 10 1.5901 0.0000
14 -11 11 -0.5007 0.0000
14 -11 12 0.1495 0.0000
14 -11 13 -0.0883 0.0000
14 -10 0 -0.3774 0.0000
14 -10 1 4.6411 0.0000
14 -10 2 -0.0046 0.0000
14 -10 3 -2.3348 0.0000
14 -10 4 1.4032 0.0000
14 -10 5 -0.6678 0.0000
14 -10 6 -0.5613 0.0000
14 -10 7 -0.3370 0.0000
14 -10 8 0.1342 0.0000
14 -10 9 0.0461 0.0000
14 -10 10 -0.2749 0.0000
14 -10 11 -0.7127 0.0000
14 -10 12 0.6398 0.0000
14 -10 13 0.8226 0.0000
14 -9 0 1.7868 0.0000
14 -9 1 2.3375 0.0000
14 -9 2 -0.4909 0.0000
14 -9 3 -0.1599 0.0000
14 -9 4 3.0572 0.0000
14 -9 5 0.4634 0.0000
14 -9 6 0.6816 0.0000
14 -9 7 0.5545 0.0000
14 -9 8 2.0193 0.0000
14 -9 9 -0.1770 0.0000
14 -9 10 0.8521 0.0000
14 -9 11 -0.6600 0.0000
14 -9 12 0.8909 0.0000
14 -9 13 -0.4364 0.0000
14 -8 0 2.5278 0.0000
14 -8 1 -3.9983 0.0000
14 -8 2 1.0675 0.0000
14 -8 3 0.1846 0.0000
14 -8 4 1.4842 0.0000
14 -8 5 -0.4866 0.0000
14 -8 6 -0.4727 0.0000
14 -8 7 0.4077 0.0000
14 -8 8 0.0477 0.0000
14 -8 9 0.3277 0.0000
14 -8 10 0.0613 0.0000
14 -8 11 1.0897 0.0000
14 -8 12 -1.0455 0.0000
14 -8 13 0.1895 0.0000
14 -7 0 0.1292 0.0000
14 -7 1 -4.6075 0.0000
14 -7 2 2.6280 0.0000
14 -7 3 0.0823 0.0000
14 -7 4 -1.4200 0.0000
14 -7 5 1.6309 0.0000
14 -7 6 -0.9747 0.0000
14 -7 7 1.6723 0.0000
14 -7 8 -1.8846 0.0000
14 -7 9 -0.5046 0.0000
14 -7 10 0.1843 0.0000
14 -7 11 1.3546 0.0000
14 -7 12 -0.5157 0.0000
14 -7 13 1.0201 0.0000
14 -6 0 -1.1582 0.0000
14 -6 1 -0.2388 0.0000
14 -6 2 2.5153 0.0000
14 -6 3 -1.1948 0.0000
14 -6 4 -1.0241 0.0000
14 -6 5 0.8531 0.0000
14 -6 6 -0.8211 0.0000
14 -6 7 0.4613 0.0000
14 -6 8 -0.3891 0.0000
14 -6 9 -0.3405 0.0000
14 -6 10 0.7887 0.0000
14 -6 11 -0.3354 0.0000
14 -6 12 -0.8803 0.0000
14 -5 0 -0.1449 0.0000
14 -5 1 2.3143 0.0000
14 -5 2 -1.0188 0.0000
14 -5 3 0.4333 0.0000
14 -5 4 -0.0061 0.0000
14 -5 5 0.6430 0.0000
14 -5 6 -1.6671 0.0000
14 -5 7 -0.4729 0.0000
14 -5 8 -0.1516 0.0000
14 -5 9 -0.1847 0.0000
14 -5 10 0.0641 0.0000
14 -5 11 0.0999 0.0000
14 -5 12 0.0395 0.0000
14 -4 0 1.3619 0.0000
14 -4 1 0.1366 0.0000
14 -4 2 -1.5434 0.0000
14 -4 3 0.8138 0.0000
14 -4 4 -0.6919 0.0000
14 -4 5 -1.4328 0.0000
14 -4 6 -0.0026 0.0000
14 -4 7 -0.0318 0.0000
14 -4 8 1.9281 0.0000
14 -4 9 -2.1799 0.0000
14 -4 10 -0.9165 0.0000
14 -4 11 -0.9524 0.0000
14 -3 0 0.5065 0.0000
14 -3 1 -3.2335 0.0000
14 -3 2 0.5263 0.0000
14 -3 3 0.6220 0.0000
14 -3 4 -0.5140 0.0000
14 -3 5 0.7116 0.0000
14 -3 6 0.2147 0.0000
14 -3 7 1.4378 0.0000
14 -3 8 0.2277 0.0000
14 -3 9 -0.1753 0.0000
14 -3 10 0.9493 0.0000
14 -3 11 -0.3479 0.0000
14 -2 0 1.2714 0.0000
14 -2 1 -1.3261 0.0000
14 -2 2 1.6986 0.0000
14 -2 3 -1.3538 0.0000
14 -2 4 -0.7410 0.0000
14 -2 5 1.1460 0.0000
14 -2 6 1.3713 0.0000
14 -2 7 -1.3839 0.0000
14 -2 8 -0.9725 0.0000
14 -2 9 -1.3111 0.0000
14 -2 10 1.2422 0.0000
14 -1 0 2.6648 0.0000
14 -1 1 -0.9338 0.0000
14 -1 2 1.4670 0.0000
14 -1 3 -1.6863 0.0000
14 -1 4 0.0250 0.0000
14 -1 5 0.1128 0.0000
14 -1 6 0.1180 0.0000
14 -1 7 -1.9624 0.0000
14 -1 8 1.6623 0.0000
14 -1 9 0.0752 0.0000
14 0 0 1.6907 0.0000
14 0 1 -1.5442 0.0000
14 0 2 0.1077 0.0000
14 0 3 0.4423 0.0000
14 0 4 2.1166 0.0000
14 0 5 0.1005 0.0000
14 0 6 -0.2394 0.0000
14 0 7 0.4181 0.0000
14 0 8 1.4525 0.0000
14 0 9 0.5594 0.0000
14 1 0 0.7740 0.0000
14 1 1 0.2992 0.0000
14 1 2 0.2458 0.0000
14 1 3 2.2342 0.0000
14 1 4 -0.5228 0.0000
14 1 5 -1.4022 0.0000
14 1 6 -1.1526 0.0000
14 1 7 -0.0747 0.0000
14 1 8 -1.2973 0.0000
14 2 0 -1.5974 0.0000
14 2 1 0.1324 0.0000
14 2 2 -1.1441 0.0000
14 2 3 0.3360 0.0000
14 2 4 -2.8763 0.0000
14 2 5 0.8402 0.0000
14 2 6 1.7412 0.0000
14 2 7 -0.3688 0.0000
14 3 0 -0.4467 0.0000
14 3 1 0.9397 0.0000
14 3 2 -0.0376 0.0000
14 3 3 0.1171 0.0000
14 3 4 -1.7763 0.0000
14 3 5 2.1780 0.0000
14 4 0 -0.7035 0.0000
14 4 1 -0.2496 0.0000
14 4 2 0.5957 0.0000
14 4 3 0.2791 0.0000
14 4 4 0.5322 0.0000
14 5 0 -0.4367 0.0000
14 5 1 -0.8629 0.0000
14 5 2 0.6067 0.0000
14 5 3 -0.7561 0.0000
14 6 0 1.4946 0.0000
14 6 1 0.1346 0.0000
15 -21 0 -1.6198 0.0000
15 -21 1 -0.8364 0.0000
15 -21 2 -0.0676 0.0000
15 -21 3 -0.7187 0.0000
15 -21 4 0.0683 0.0000
15 -21 5 -1.1087 0.0000
15 -20 0 0.7175 0.0000
15 -20 1 0.3946 0.0000
15 -20 2 0.8091 0.0000
15 -20 3 0.6955 0.0000
15 -20 4 0.7004 0.0000
15 -20 5 0.2580 0.0000
15 -20 6 1.1171 0.0000
15 -20 7 -0.8659 0.0000
15 -19 0 0.0079 0.0000
15 -19 1 0.4733 0.0000
15 -19 2 -0.9727 0.0000
15 -19 3 0.5939 0.0000
15 -19 4 0.1519 0.0000
15 -19 5 -0.1750 0.0000
15 -19 6 -0.3278 0.0000
15 -19 7 0.1543 0.0000
15 -19 8 0.1024 0.0000
15 -19 9 -0.8491 0.0000
15 -18 0 -0.5496 0.0000
15 -18 1 0.6460 0.0000
15 -18 2 -2.0780 0.0000
15 -18 3 0.8664 0.0000
15 -18 4 -0.1884 0.0000
15 -18 5 -1.2357 0.0000
15 -18 6 -0.5332 0.0000
15 -18 7 -0.3807 0.0000
15 -18 8 0.4923 0.0000
15 -18 9 -0.5455 0.0000
15 -18 10 0.4770 0.0000
15 -17 0 0.2756 0.0000
15 -17 1 -0.2602 0.0000
15 -17 2 -0.8269 0.0000
15 -17 3 0.1769 0.0000
15 -17 4 -0.2446 0.0000
15 -17 5 -0.6494 0.0000
15 -17 6 0.4804 0.0000
15 -17 7 -1.3218 0.0000
15 -17 8 -0.4910 0.0000
15 -17 9 -0.9568 0.0000
15 -17 10 -1.4766 0.0000
15 -17 11 0.6947 0.0000
15 -16 0 1.3255 0.0000
15 -16 1 -2.1447 0.0000
15 -16 2 2.1282 0.0000
15 -16 3 -0.4366 0.0000
15 -16 4 -0.2092 0.0000
15 -16 5 0.2822 0.0000
15 -16 6 0.9260 0.0000
15 -16 7 0.3724 0.0000
15 -16 8 1.7129 0.0000
15 -16 9 0.8136 0.0000
15 -16 10 1.4306 0.0000
15 -16 11 -0.8078 0.0000
15 -15 0 1.0362 0.0000
15 -15 1 -0.2138 0.0000
15 -15 2 2.2005 0.0000
15 -15 3 -0.6710 0.0000
15 -15 4 -0.1817 0.0000
15 -15 5 0.1681 0.0000
15 -15 6 0.3305 0.0000
15 -15 7 -0.0042 0.0000
15 -15 8 -0.4542 0.0000
15 -15 9 0.6001 0.0000
15 -15 10 0.1047 0.0000
15 -15 11 -0.5333 0.0000
15 -15 12 1.5750 0.0000
15 -14 0 1.2320 0.0000
15 -14 1 0.7194 0.0000
15 -14 2 -0.2513 0.0000
15 -14 3 0.3571 0.0000
15 -14 4 0.5333 0.0000
15 -14 5 0.4727 0.0000
15 -14 6 -0.2616 0.0000
15 -14 7 -0.9698 0.0000
15 -14 8 -1.3338 0.0000
15 -14 9 -0.5236 0.0000
15 -14 10 -1.2534 0.0000
15 -14 11 -0.0969 0.0000
15 -14 12 -0.3455 0.0000
15 -13 0 1.5349 0.0000
15 -13 1 -0.8417 0.0000
15 -13 2 -1.0731 0.0000
15 -13 3 0.5829 0.0000
15 -13 4 1.0289 0.0000
15 -13 5 -0.7171 0.0000
15 -13 6 0.2723 0.0000
15 -13 7 0.2973 0.0000
15 -13 8 0.1338 0.0000
15 -13 9 -0.4469 0.0000
15 -13 10 -1.0583 0.0000
15 -13 11 0.2505 0.0000
15 -13 12 -0.9857 0.0000
15 -12 0 -1.2997 0.0000
15 -12 1 -2.5564 0.0000
15 -12 2 -2.6235 0.0000
15 -12 3 -0.8646 0.0000
15 -12 4 -1.8316 0.0000
15 -12 5 -0.8864 0.0000
15 -12 6 -0.0340 0.0000
15 -12 7 1.9944 0.0000
15 -12 8 0.7119 0.0000
15 -12 9 0.9262 0.0000
15 -12 10 1.1998 0.0000
15 -12 11 0.5650 0.0000
15 -12 12 0.2629 0.0000
15 -11 0 -0.5954 0.0000
15 -11 1 2.2635 0.0000
15 -11 2 1.9573 0.0000
15 -11 3 0.2060 0.0000
15 -11 4 -0.5321 0.0000
15 -11 5 -0.0332 0.0000
15 -11 6 -0.2085 0.0000
15 -11 7 -1.1290 0.0000
15 -11 8 -0.3946 0.0000
15 -11 9 -0.5990 0.0000
15 -11 10 1.0862 0.0000
15 -11 11 0.2012 0.0000
15 -11 12 -0.0309 0.0000
15 -10 0 -2.1474 0.0000
15 -10 1 2.1762 0.0000
15 -10 2 3.3185 0.0000
15 -10 3 0.2885 0.0000
15 -10 4 1.7884 0.0000
15 -10 5 2.2024 0.0000
15 -10 6 0.0186 0.0000
15 -10 7 0.0525 0.0000
15 -10 8 0.7732 0.0000
15 -10 9 0.3271 0.0000
15 -10 10 0.4513 0.0000
15 -10 11 -0.6962 0.0000
15 -10 12 -0.1128 0.0000
15 -9 0 0.2711 0.0000
15 -9 1 -0.3669 0.0000
15 -9 2 -0.4002 0.0000
15 -9 3 -2.4446 0.0000
15 -9 4 0.7813 0.0000
15 -9 5 -0.2690 0.0000
15 -9 6 0.2816 0.0000
15 -9 7 -0.3204 0.0000
15 -9 8 1.4448 0.0000
15 -9 9 -0.2695 0.0000
15 -9 10 0.4640 0.0000
15 -9 11 -0.6392 0.0000
15 -9 12 0.3933 0.0000
15 -8 0 3.6199 0.0000
15 -8 1 -2.6224 0.0000
15 -8 2 -1.0759 0.0000
15 -8 3 -0.4071 0.0000
15 -8 4 -0.3846 0.0000
15 -8 5 0.0118 0.0000
15 -8 6 -1.3532 0.0000
15 -8 7 0.3962 0.0000
15 -8 8 -1.7608 0.0000
15 -8 9 0.1594 0.0000
15 -8 10 -0.9212 0.0000
15 -8 11 1.8040 0.0000
15 -8 12 -0.3627 0.0000
15 -7 0 2.0550 0.0000
15 -7 1 -2.1772 0.0000
15 -7 2 0.8630 0.0000
15 -7 3 1.5124 0.0000
15 -7 4 -0.9403 0.0000
15 -7 5 0.4614 0.0000
15 -7 6 -0.5646 0.0000
15 -7 7 0.2166 0.0000
15 -7 8 -0.1894 0.0000
15 -7 9 -1.4410 0.0000
15 -7 10 -0.3733 0.0000
15 -7 11 -0.2783 0.0000
15 -6 0 -0.8085 0.0000
15 -6 1 -0.7117 0.0000
15 -6 2 0.9412 0.0000
15 -6 3 -0.1703 0.0000
15 -6 4 -0.6266 0.0000
15 -6 5 1.1825 0.0000
15 -6 6 -0.9041 0.0000
15 -6 7 0.0510 0.0000
15 -6 8 -0.8613 0.0000
15 -6 9 -0.2423 0.0000
15 -6 10 0.4801 0.0000
15 -6 11 0.8475 0.0000
15 -5 0 -0.7547 0.0000
15 -5 1 2.4381 0.0000
15 -5 2 -0.8936 0.0000
15 -5 3 -0.0138 0.0000
15 -5 4 -0.4010 0.0000
15 -5 5 0.1693 0.0000
15 -5 6 -0.1760 0.0000
15 -5 7 -0.8126 0.0000
15 -5 8 1.6405 0.0000
15 -5 9 -0.5960 0.0000
15 -5 10 -0.7710 0.0000
15 -4 0 0.6918 0.0000
15 -4 1 -0.9059 0.0000
15 -4 2 -0.9379 0.0000
15 -4 3 -0.0672 0.0000
15 -4 4 0.8394 0.0000
15 -4 5 -0.7129 0.0000
15 -4 6 -0.0074 0.0000
15 -4 7 -0.2793 0.0000
15 -4 8 3.1887 0.0000
15 -4 9 0.4023 0.0000
15 -4 10 0.3889 0.0000
15 -3 0 0.9166 0.0000
15 -3 1 -1.0197 0.0000
15 -3 2 0.0752 0.0000
15 -3 3 0.5785 0.0000
15 -3 4 -0.2579 0.0000
15 -3 5 0.2405 0.0000
15 -3 6 0.5918 0.0000
15 -3 7 1.1032 0.0000
15 -3 8 -0.4252 0.0000
15 -3 9 -1.3709 0.0000
15 -2 0 1.1348 0.0000
15 -2 1 -0.3236 0.0000
15 -2 2 1.1081 0.0000
15 -2 3 0.1257 0.0000
15 -2 4 -0.9681 0.0000
15 -2 5 -1.3148 0.0000
15 -2 6 1.5528 0.0000
15 -2 7 -0.9181 0.0000
15 -2 8 -0.4330 0.0000
15 -2 9 -0.7937 0.0000
15 -1 0 2.0751 0.0000
15 -1 1 -0.4303 0.0000
15 -1 2 1.0668 0.0000
15 -1 3 0.0841 0.0000
15 -1 4 0.8241 0.0000
15 -1 5 0.8900 0.0000
15 -1 6 1.2056 0.0000
15 -1 7 -1.2020 0.0000
15 -1 8 0.6985 0.0000
15 0 0 1.5938 0.0000
15 0 1 -0.6330 0.0000
15 0 2 -0.5928 0.0000
15 0 3 -0.8852 0.0000
15 0 4 1.0198 0.0000
15 0 5 -0.4461 0.0000
15 0 6 -1.7712 0.0000
15 0 7 -1.0199 0.0000
15 1 0 -1.0191 0.0000
15 1 1 -0.4439 0.0000
15 1 2 -1.7845 0.0000
15 1 3 0.6908 0.0000
15 1 4 -0.1167 0.0000
15 1 5 -0.5390 0.0000
15 1 6 0.4614 0.0000
15 2 0 -1.3342 0.0000
15 2 1 0.5674 0.0000
15 2 2 -0.2740 0.0000
15 2 3 1.6135 0.0000
15 2 4 -1.6942 0.0000
15 2 5 -0.8424 0.0000
15 3 0 -0.7012 0.0000
15 3 1 0.6267 0.0000
15 3 2 -0.0512 0.0000
15 3 3 1.2262 0.0000
15 4 0 0.4403 0.0000
15 4 1 -1.1036 0.0000
15 4 2 0.8343 0.0000
15 5 0 1.6732 0.0000
16 -21 0 0.8934 0.0000
16 -21 1 -0.2259 0.0000
16 -21 2 1.0448 0.0000
16 -20 0 0.4091 0.0000
16 -20 1 0.3389 0.0000
16 -20 2 -0.3922 0.0000
16 -20 3 0.2961 0.0000
16 -20 4 0.0352 0.0000
16 -20 5 -0.0264 0.0000
16 -20 6 0.2133 0.0000
16 -19 0 -1.1518 0.0000
16 -19 1 0.0780 0.0000
16 -19 2 -2.3051 0.0000
16 -19 3 -0.8957 0.0000
16 -19 4 -0.0425 0.0000
16 -19 5 -0.4365 0.0000
16 -19 6 -0.4296 0.0000
16 -19 7 0.4426 0.0000
16 -18 0 -0.8928 0.0000
16 -18 1 2.0155 0.0000
16 -18 2 -1.4056 0.0000
16 -18 3 0.9453 0.0000
16 -18 4 0.4747 0.0000
16 -18 5 -0.5712 0.0000
16 -18 6 -0.0232 0.0000
16 -18 7 -1.0458 0.0000
16 -18 8 -1.1333 0.0000
16 -18 9 -1.0311 0.0000
16 -17 0 1.4977 0.0000
16 -17 1 0.5234 0.0000
16 -17 2 0.3900 0.0000
16 -17 3 0.9783 0.0000
16 -17 4 -0.2055 0.0000
16 -17 5 0.0168 0.0000
16 -17 6 0.9465 0.0000
16 -17 7 0.5762 0.0000
16 -17 8 0.9714 0.0000
16 -17 9 1.3928 0.0000
16 -16 0 2.0514 0.0000
16 -16 1 -1.9033 0.0000
16 -16 2 1.2697 0.0000
16 -16 3 0.2405 0.0000
16 -16 4 -0.0389 0.0000
16 -16 5 0.2941 0.0000
16 -16 6 0.0530 0.0000
16 -16 7 -0.2426 0.0000
16 -16 8 0.2732 0.0000
16 -16 9 -0.3021 0.0000
16 -16 10 1.7036 0.0000
16 -15 0 -0.5044 0.0000
16 -15 1 -0.5836 0.0000
16 -15 2 0.5334 0.0000
16 -15 3 0.1067 0.0000
16 -15 4 0.0200 0.0000
16 -15 5 0.0632 0.0000
16 -15 6 -0.3375 0.0000
16 -15 7 -0.1233 0.0000
16 -15 8 -1.1047 0.0000
16 -15 9 0.0113 0.0000
16 -15 10 -0.3463 0.0000
16 -14 0 -0.8078 0.0000
16 -14 1 0.8028 0.0000
16 -14 2 -1.1560 0.0000
16 -14 3 -0.6997 0.0000
16 -14 4 -0.2746 0.0000
16 -14 5 -0.3590 0.0000
16 -14 6 0.6037 0.0000
16 -14 7 -0.2426 0.0000
16 -14 8 0.1427 0.0000
16 -14 9 -0.0448 0.0000
16 -14 10 -1.4278 0.0000
16 -14 11 0.0344 0.0000
16 -13 0 0.0113 0.0000
16 -13 1 -0.7686 0.0000
16 -13 2 -1.9185 0.0000
16 -13 3 -1.3307 0.0000
16 -13 4 0.5233 0.0000
16 -13 5 0.1379 0.0000
16 -13 6 0.1245 0.0000
16 -13 7 1.3776 0.0000
16 -13 8 0.9387 0.0000
16 -13 9 1.2325 0.0000
16 -13 10 0.2387 0.0000
16 -13 11 1.1294 0.0000
16 -12 0 1.9770 0.0000
16 -12 1 2.3590 0.0000
16 -12 2 1.5973 0.0000
16 -12 3 1.1333 0.0000
16 -12 4 0.2702 0.0000
16 -12 5 -1.4252 0.0000
16 -12 6 -0.7920 0.0000
16 -12 7 -0.2722 0.0000
16 -12 8 0.2935 0.0000
16 -12 9 -0.7528 0.0000
16 -12 10 1.1987 0.0000
16 -12 11 0.3324 0.0000
16 -11 0 -1.8707 0.0000
16 -11 1 -0.6588 0.0000
16 -11 2 1.9551 0.0000
16 -11 3 1.5584 0.0000
16 -11 4 0.8190 0.0000
16 -11 5 0.8613 0.0000
16 -11 6 1.0728 0.0000
16 -11 7 -0.3077 0.0000
16 -11 8 -0.5727 0.0000
16 -11 9 -0.6378 0.0000
16 -11 10 -0.6700 0.0000
16 -11 11 0.6259 0.0000
16 -10 0 -2.8368 0.0000
16 -10 1 -2.7797 0.0000
16 -10 2 -0.7850 0.0000
16 -10 3 -1.5489 0.0000
16 -10 4 -1.3381 0.0000
16 -10 5 0.7888 0.0000
16 -10 6 0.3814 0.0000
16 -10 7 -1.0870 0.0000
16 -10 8 0.7493 0.0000
16 -10 9 -0.5235 0.0000
16 -10 10 0.5600 0.0000
16 -10 11 -0.6228 0.0000
16 -9 0 1.7157 0.0000
16 -9 1 0.3995 0.0000
16 -9 2 1.4279 0.0000
16 -9 3 -0.9980 0.0000
16 -9 4 0.0926 0.0000
16 -9 5 -0.8037 0.0000
16 -9 6 -1.5359 0.0000
16 -9 7 -0.7661 0.0000
16 -9 8 -0.4325 0.0000
16 -9 9 0.2525 0.0000
16 -9 10 0.4669 0.0000
16 -9 11 0.2768 0.0000
16 -8 0 3.0351 0.0000
16 -8 1 1.2671 0.0000
16 -8 2 -0.4825 0.0000
16 -8 3 0.7105 0.0000
16 -8 4 -0.4221 0.0000
16 -8 5 0.3344 0.0000
16 -8 6 -0.6900 0.0000
16 -8 7 1.1592 0.0000
16 -8 8 -0.7390 0.0000
16 -8 9 -0.7521 0.0000
16 -8 10 -1.4115 0.0000
16 -7 0 1.2162 0.0000
16 -7 1 -1.9378 0.0000
16 -7 2 -0.8142 0.0000
16 -7 3 -0.4687 0.0000
16 -7 4 -0.4069 0.0000
16 -7 5 0.5825 0.0000
16 -7 6 0.8854 0.0000
16 -7 7 0.3804 0.0000
16 -7 8 0.7215 0.0000
16 -7 9 -0.5896 0.0000
16 -7 10 0.7751 0.0000
16 -6 0 -0.9799 0.0000
16 -6 1 0.0473 0.0000
16 -6 2 0.5531 0.0000
16 -6 3 0.5661 0.0000
16 -6 4 -1.2540 0.0000
16 -6 5 1.8824 0.0000
16 -6 6 -0.5248 0.0000
16 -6 7 0.6568 0.0000
16 -6 8 -0.2830 0.0000
16 -6 9 -0.3101 0.0000
16 -5 0 -2.0072 0.0000
16 -5 1 0.2844 0.0000
16 -5 2 -0.4854 0.0000
16 -5 3 -0.2194 0.0000
16 -5 4 0.7512 0.0000
16 -5 5 0.2950 0.0000
16 -5 6 0.8469 0.0000
16 -5 7 -1.7518 0.0000
16 -5 8 2.2749 0.0000
16 -5 9 1.3646 0.0000
16 -4 0 1.0989 0.0000
16 -4 1 0.2944 0.0000
16 -4 2 0.5216 0.0000
16 -4 3 0.2655 0.0000
16 -4 4 0.8319 0.0000
16 -4 5 0.0423 0.0000
16 -4 6 -0.5578 0.0000
16 -4 7 -1.1236 0.0000
16 -4 8 0.8829 0.0000
16 -3 0 1.1635 0.0000
16 -3 1 0.6739 0.0000
16 -3 2 0.4486 0.0000
16 -3 3 -0.0478 0.0000
16 -3 4 -0.5425 0.0000
16 -3 5 -2.2911 0.0000
16 -3 6 -0.9959 0.0000
16 -3 7 0.2718 0.0000
16 -3 8 -0.0850 0.0000
16 -2 0 0.2860 0.0000
16 -2 1 -0.0135 0.0000
16 -2 2 0.0580 0.0000
16 -2 3 0.4828 0.0000
16 -2 4 0.7082 0.0000
16 -2 5 -0.3748 0.0000
16 -2 6 1.9596 0.0000
16 -2 7 0.7777 0.0000
16 -1 0 0.7787 0.0000
16 -1 1 -0.9558 0.0000
16 -1 2 -0.6283 0.0000
16 -1 3 -1.1478 0.0000
16 -1 4 -0.0857 0.0000
16 -1 5 0.3875 0.0000
16 -1 6 0.3508 0.0000
16 0 0 0.5376 0.0000
16 0 1 -0.0706 0.0000
16 0 2 -0.6822 0.0000
16 0 3 -1.2263 0.0000
16 0 4 0.1487 0.0000
16 0 5 0.5578 0.0000
16 1 0 -0.8198 0.0000
16 1 1 -0.0400 0.0000
16 1 2 -0.3645 0.0000
16 1 3 0.6866 0.0000
16 1 4 1.0853 0.0000
16 2 0 -0.8182 0.0000
16 2 1 0.9051 0.0000
16 2 2 0.1528 0.0000
16 2 3 1.6455 0.0000
16 3 0 -0.0218 0.0000
16 3 1 0.5247 0.0000
17 -20 0 -1.3461 0.0000
17 -20 1 -0.2000 0.0000
17 -20 2 -1.8201 0.0000
17 -20 4 -0.6049 0.0000
17 -19 0 0.1013 0.0000
17 -19 1 2.7596 0.0000
17 -19 2 0.7573 0.0000
17 -19 3 0.8032 0.0000
17 -19 4 0.8256 0.0000
17 -19 5 -0.0909 0.0000
17 -19 6 -0.6105 0.0000
17 -18 0 -0.9788 0.0000
17 -18 1 1.7493 0.0000
17 -18 2 -1.0503 0.0000
17 -18 3 0.2443 0.0000
17 -18 4 -0.0381 0.0000
17 -18 5 -0.2594 0.0000
17 -18 6 1.1512 0.0000
17 -18 7 1.3649 0.0000
17 -17 0 -0.1775 0.0000
17 -17 1 -0.7522 0.0000
17 -17 2 -0.8039 0.0000
17 -17 3 0.8469 0.0000
17 -17 4 -0.1876 0.0000
17 -17 5 0.7348 0.0000
17 -17 6 0.2535 0.0000
17 -17 7 -0.2361 0.0000
17 -17 8 0.1171 0.0000
17 -16 0 0.8100 0.0000
17 -16 1 -0.8293 0.0000
17 -16 2 0.1284 0.0000
17 -16 3 0.4485 0.0000
17 -16 4 -0.0144 0.0000
17 -16 5 0.4612 0.0000
17 -16 6 -0.5864 0.0000
17 -16 7 -0.8627 0.0000
17 -16 8 -0.4523 0.0000
17 -16 9 -1.3142 0.0000
17 -15 0 -0.8736 0.0000
17 -15 1 -0.0726 0.0000
17 -15 2 -0.6666 0.0000
17 -15 3 -0.8726 0.0000
17 -15 4 -0.9070 0.0000
17 -15 5 -1.3902 0.0000
17 -15 6 -0.2579 0.0000
17 -15 7 -0.3193 0.0000
17 -15 8 -0.1177 0.0000
17 -15 9 0.1241 0.0000
17 -14 0 -0.8771 0.0000
17 -14 1 1.0768 0.0000
17 -14 2 0.1195 0.0000
17 -14 3 -0.2308 0.0000
17 -14 4 0.9244 0.0000
17 -14 5 0.5041 0.0000
17 -14 6 1.8670 0.0000
17 -14 7 1.0092 0.0000
17 -14 8 0.5545 0.0000
17 -14 9 1.3567 0.0000
17 -13 0 1.8407 0.0000
17 -13 1 2.1258 0.0000
17 -13 2 1.3377 0.0000
17 -13 3 -0.6224 0.0000
17 -13 4 -0.1897 0.0000
17 -13 5 -0.3148 0.0000
17 -13 6 -1.2332 0.0000
17 -13 7 -0.2049 0.0000
17 -13 8 -0.0588 0.0000
17 -13 9 0.0746 0.0000
17 -12 0 -1.2354 0.0000
17 -12 1 -1.9748 0.0000
17 -12 2 0.5237 0.0000
17 -12 3 0.3372 0.0000
17 -12 4 2.0993 0.0000
17 -12 5 -0.5474 0.0000
17 -12 6 -0.6561 0.0000
17 -12 7 -1.2010 0.0000
17 -12 8 -0.2897 0.0000
17 -12 9 -1.1691 0.0000
17 -11 0 -1.0837 0.0000
17 -11 1 -2.6892 0.0000
17 -11 2 -1.4174 0.0000
17 -11 3 -0.3262 0.0000
17 -11 4 -0.7729 0.0000
17 -11 5 -0.3477 0.0000
17 -11 6 0.7084 0.0000
17 -11 7 0.6478 0.0000
17 -11 8 0.0041 0.0000
17 -11 9 0.2786 0.0000
17 -10 0 1.7405 0.0000
17 -10 1 0.6871 0.0000
17 -10 2 1.0972 0.0000
17 -10 3 0.0576 0.0000
17 -10 4 -0.6300 0.0000
17 -10 5 -0.5001 0.0000
17 -10 6 0.6276 0.0000
17 -10 7 -1.1841 0.0000
17 -10 8 0.5132 0.0000
17 -10 9 -0.2433 0.0000
17 -9 0 0.6217 0.0000
17 -9 1 0.4349 0.0000
17 -9 2 0.1924 0.0000
17 -9 3 -0.0231 0.0000
17 -9 4 0.0509 0.0000
17 -9 5 1.3987 0.0000
17 -9 6 -1.3636 0.0000
17 -9 7 0.5468 0.0000
17 -9 8 -0.9996 0.0000
17 -9 9 -0.7704 0.0000
17 -8 0 -0.6097 0.0000
17 -8 1 0.2927 0.0000
17 -8 2 -0.8145 0.0000
17 -8 3 0.0769 0.0000
17 -8 4 0.3197 0.0000
17 -8 5 0.1832 0.0000
17 -8 6 0.5447 0.0000
17 -8 7 0.9843 0.0000
17 -8 8 1.8352 0.0000
17 -8 9 -0.0674 0.0000
17 -7 0 1.2713 0.0000
17 -7 1 -0.4260 0.0000
17 -7 2 0.9907 0.0000
17 -7 3 0.7453 0.0000
17 -7 4 -1.2696 0.0000
17 -7 5 0.3505 0.0000
17 -7 6 -0.0853 0.0000
17 -7 7 0.4606 0.0000
17 -7 8 0.3239 0.0000
17 -6 0 -1.0696 0.0000
17 -6 1 -0.7818 0.0000
17 -6 2 -0.6417 0.0000
17 -6 3 0.5075 0.0000
17 -6 4 -1.8190 0.0000
17 -6 5 1.3720 0.0000
17 -6 6 0.1485 0.0000
17 -6 7 0.0204 0.0000
17 -6 8 0.7719 0.0000
17 -5 0 -0.3410 0.0000
17 -5 1 0.5148 0.0000
17 -5 2 0.6680 0.0000
17 -5 3 -0.2007 0.0000
17 -5 4 0.4048 0.0000
17 -5 5 0.0029 0.0000
17 -5 6 0.6112 0.0000
17 -5 7 -2.1774 0.0000
17 -4 0 0.7552 0.0000
17 -4 1 0.2688 0.0000
17 -4 2 0.2157 0.0000
17 -4 3 -0.1846 0.0000
17 -4 4 -0.0410 0.0000
17 -4 5 -0.6667 0.0000
17 -4 6 -1.2785 0.0000
17 -4 7 -1.4751 0.0000
17 -3 0 -0.2788 0.0000
17 -3 1 -0.2484 0.0000
17 -3 2 0.4723 0.0000
17 -3 3 0.3740 0.0000
17 -3 4 1.4845 0.0000
17 -3 5 -0.1517 0.0000
17 -3 6 0.3004 0.0000
17 -2 0 -0.1233 0.0000
17 -2 1 -0.4302 0.0000
17 -2 2 -0.5975 0.0000
17 -2 3 -0.7188 0.0000
17 -2 4 -0.4382 0.0000
17 -2 5 -0.4043 0.0000
17 -1 0 0.6594 0.0000
17 -1 1 0.2212 0.0000
17 -1 2 -0.1611 0.0000
17 -1 3 -1.0643 0.0000
17 -1 4 -1.1140 0.0000
17 0 0 -0.3176 0.0000
17 0 1 0.3332 0.0000
17 0 2 0.3876 0.0000
17 0 3 0.5125 0.0000
17 1 0 0.6726 0.0000
17 1 1 0.0701 0.0000
17 1 2 0.6534 0.0000
17 2 0 -0.6714 0.0000
18 -19 0 -2.0549 0.0000
18 -19 1 -0.1682 0.0000
18 -19 2 -1.1715 0.0000
18 -19 3 -0.4319 0.0000
18 -18 0 -1.6416 0.0000
18 -18 1 0.4912 0.0000
18 -18 2 -0.3502 0.0000
18 -18 3 0.7621 0.0000
18 -18 4 0.2940 0.0000
18 -18 5 -0.4426 0.0000
18 -17 0 0.3985 0.0000
18 -17 1 0.8202 0.0000
18 -17 2 -0.6005 0.0000
18 -17 3 0.5098 0.0000
18 -17 4 -1.0468 0.0000
18 -17 5 0.1879 0.0000
18 -17 6 -0.0726 0.0000
18 -16 0 0.0387 0.0000
18 -16 1 -0.2522 0.0000
18 -16 2 -1.0475 0.0000
18 -16 3 -1.1670 0.0000
18 -16 4 -1.1561 0.0000
18 -16 5 -0.5809 0.0000
18 -16 6 -0.1843 0.0000
18 -16 7 -0.2532 0.0000
18 -15 0 -0.3235 0.0000
18 -15 1 0.6839 0.0000
18 -15 2 1.1550 0.0000
18 -15 3 1.1184 0.0000
18 -15 4 2.6653 0.0000
18 -15 5 0.5872 0.0000
18 -15 6 1.8560 0.0000
18 -15 7 0.3218 0.0000
18 -14 0 -0.2403 0.0000
18 -14 1 0.6772 0.0000
18 -14 2 1.0468 0.0000
18 -14 3 -0.8484 0.0000
18 -14 4 -1.3985 0.0000
18 -14 5 -1.6783 0.0000
18 -14 6 -0.8945 0.0000
18 -14 7 0.5791 0.0000
18 -14 8 -0.0908 0.0000
18 -13 0 -1.0527 0.0000
18 -13 1 -1.4646 0.0000
18 -13 2 0.6820 0.0000
18 -13 3 -0.1942 0.0000
18 -13 4 0.2241 0.0000
18 -13 5 0.5245 0.0000
18 -13 6 -0.8333 0.0000
18 -13 7 -1.1827 0.0000
18 -13 8 -0.5835 0.0000
18 -12 0 1.6270 0.0000
18 -12 1 -1.7782 0.0000
18 -12 2 -0.6691 0.0000
18 -12 3 -1.2225 0.0000
18 -12 4 1.1979 0.0000
18 -12 5 1.0593 0.0000
18 -12 6 0.2291 0.0000
18 -12 7 0.2858 0.0000
18 -12 8 -0.2592 0.0000
18 -11 0 1.6366 0.0000
18 -11 1 0.6701 0.0000
18 -11 2 -0.2217 0.0000
18 -11 3 0.3642 0.0000
18 -11 4 0.1041 0.0000
18 -11 5 -0.9131 0.0000
18 -11 6 0.0400 0.0000
18 -11 7 0.4694 0.0000
18 -11 8 0.6708 0.0000
18 -10 0 0.1954 0.0000
18 -10 1 0.2563 0.0000
18 -10 2 0.4702 0.0000
18 -10 3 -0.0657 0.0000
18 -10 4 -0.3414 0.0000
18 -10 5 0.1582 0.0000
18 -10 6 0.2313 0.0000
18 -10 7 0.0081 0.0000
18 -10 8 -0.4525 0.0000
18 -9 0 -1.5390 0.0000
18 -9 1 0.4726 0.0000
18 -9 2 -0.5375 0.0000
18 -9 3 0.2241 0.0000
18 -9 4 -0.3476 0.0000
18 -9 5 2.2793 0.0000
18 -9 6 -0.0687 0.0000
18 -9 7 0.9669 0.0000
18 -8 0 -0.4437 0.0000
18 -8 1 -0.0639 0.0000
18 -8 2 0.1697 0.0000
18 -8 3 0.2183 0.0000
18 -8 4 0.2930 0.0000
18 -8 5 -0.9365 0.0000
18 -8 6 -0.5212 0.0000
18 -8 7 -1.2926 0.0000
18 -7 0 0.9630 0.0000
18 -7 1 -0.6776 0.0000
18 -7 2 -0.6665 0.0000
18 -7 3 1.6012 0.0000
18 -7 4 -2.0938 0.0000
18 -7 5 0.1526 0.0000
18 -7 6 -0.6703 0.0000
18 -7 7 0.1912 0.0000
18 -6 0 0.4437 0.0000
18 -6 1 0.4670 0.0000
18 -6 2 0.4679 0.0000
18 -6 3 1.1223 0.0000
18 -6 4 -1.1433 0.0000
18 -6 5 0.0883 0.0000
18 -6 6 0.4169 0.0000
18 -5 0 -0.0740 0.0000
18 -5 1 -0.3186 0.0000
18 -5 2 -0.2161 0.0000
18 -5 3 -0.6070 0.0000
18 -5 4 -0.3956 0.0000
18 -5 5 -0.0863 0.0000
18 -4 0 -0.0862 0.0000
18 -4 1 -0.4496 0.0000
18 -4 2 -0.0089 0.0000
18 -4 3 0.0113 0.0000
18 -4 4 1.1845 0.0000
18 -4 5 0.7797 0.0000
18 -3 0 -0.2140 0.0000
18 -3 1 -0.6750 0.0000
18 -3 2 -0.4761 0.0000
18 -3 3 -0.0414 0.0000
18 -3 4 0.4392 0.0000
18 -2 0 0.6218 0.0000
18 -2 1 0.0847 0.0000
18 -2 2 0.2367 0.0000
18 -2 3 0.1198 0.0000
18 -1 0 -0.1708 0.0000
18 -1 1 1.0422 0.0000
18 -1 2 0.5984 0.0000
18 0 0 0.3296 0.0000
19 -18 0 -0.3347 0.0000
19 -18 1 0.4443 0.0000
19 -18 2 -0.5277 0.0000
19 -17 0 -0.5371 0.0000
19 -17 1 0.5411 0.0000
19 -17 2 -0.6772 0.0000
19 -17 3 0.0110 0.0000
19 -17 4 -1.1104 0.0000
19 -16 0 0.2947 0.0000
19 -16 1 0.8297 0.0000
19 -16 2 1.3140 0.0000
19 -16 3 1.1037 0.0000
19 -16 4 1.7240 0.0000
19 -16 5 1.0490 0.0000
19 -15 0 -0.2917 0.0000
19 -15 1 -0.8476 0.0000
19 -15 2 -0.1902 0.0000
19 -15 3 -1.8790 0.0000
19 -15 4 -0.6028 0.0000
19 -15 5 -1.8870 0.0000
19 -14 0 -1.1826 0.0000
19 -14 1 -1.6326 0.0000
19 -14 2 0.4043 0.0000
19 -14 3 1.5279 0.0000
19 -14 4 0.1633 0.0000
19 -14 5 0.3389 0.0000
19 -14 6 -1.3469 0.0000
19 -13 0 1.6100 0.0000
19 -13 1 -0.4161 0.0000
19 -13 2 0.1505 0.0000
19 -13 3 -0.1089 0.0000
19 -13 4 -0.4747 0.0000
19 -13 5 1.2185 0.0000
19 -13 6 0.5050 0.0000
19 -12 0 1.8226 0.0000
19 -12 1 0.7971 0.0000
19 -12 2 -0.2056 0.0000
19 -12 3 -0.9554 0.0000
19 -12 4 -0.3293 0.0000
19 -12 5 1.0846 0.0000
19 -12 6 0.2051 0.0000
19 -11 0 0.1283 0.0000
19 -11 1 0.8103 0.0000
19 -11 2 -0.0382 0.0000
19 -11 3 -0.1688 0.0000
19 -11 4 0.6942 0.0000
19 -11 5 -0.5023 0.0000
19 -11 6 -0.5616 0.0000
19 -10 0 -1.6250 0.0000
19 -10 1 -0.4777 0.0000
19 -10 2 0.0038 0.0000
19 -10 3 0.6877 0.0000
19 -10 4 -1.0059 0.0000
19 -10 5 1.0043 0.0000
19 -10 6 -0.3238 0.0000
19 -9 0 -1.0082 0.0000
19 -9 1 0.3882 0.0000
19 -9 2 0.0136 0.0000
19 -9 3 -0.1337 0.0000
19 -9 4 -1.0915 0.0000
19 -9 5 0.1032 0.0000
19 -8 0 1.0342 0.0000
19 -8 1 0.3942 0.0000
19 -8 2 -0.4859 0.0000
19 -8 3 0.3918 0.0000
19 -8 4 -0.0539 0.0000
19 -8 5 -0.0697 0.0000
19 -7 0 0.2886 0.0000
19 -7 1 0.2238 0.0000
19 -7 2 -0.8976 0.0000
19 -7 3 2.2096 0.0000
19 -7 4 -0.6005 0.0000
19 -7 5 0.2920 0.0000
19 -6 0 -0.3004 0.0000
19 -6 1 -0.7567 0.0000
19 -6 2 -0.5472 0.0000
19 -6 3 0.1532 0.0000
19 -6 4 -0.6431 0.0000
19 -5 0 0.4198 0.0000
19 -5 1 0.0739 0.0000
19 -5 2 0.3689 0.0000
19 -5 3 -0.0268 0.0000
19 -4 0 -0.1476 0.0000
19 -4 1 -0.1452 0.0000
19 -4 2 -0.2901 0.0000
19 -3 0 0.3584 0.0000
19 -3 1 0.3740 0.0000
19 -2 0 0.7268 0.0000
20 -17 0 -0.2985 0.0000
20 -17 1 0.4258 0.0000
20 -16 0 -0.2133 0.0000
20 -16 1 -0.8026 0.0000
20 -16 2 -0.3981 0.0000
20 -15 0 -0.1410 0.0000
20 -15 1 -1.2250 0.0000
20 -15 2 0.4277 0.0000
20 -15 3 0.6919 0.0000
20 -14 0 1.4328 0.0000
20 -14 1 0.2856 0.0000
20 -14 2 -1.3367 0.0000
20 -14 3 0.6738 0.0000
20 -13 0 0.3158 0.0000
20 -13 1 0.6059 0.0000
20 -13 2 -0.0886 0.0000
20 -13 3 0.7263 0.0000
20 -13 4 -0.6077 0.0000
20 -12 0 -0.6214 0.0000
20 -12 1 1.1708 0.0000
20 -12 2 0.4575 0.0000
20 -12 3 -0.5086 0.0000
20 -12 4 -0.8836 0.0000
20 -11 0 -1.4456 0.0000
20 -11 1 -0.1592 0.0000
20 -11 2 -0.1811 0.0000
20 -11 3 -0.3355 0.0000
20 -11 4 0.0358 0.0000
20 -10 0 0.2435 0.0000
20 -10 1 0.1233 0.0000
20 -10 2 -0.1371 0.0000
20 -10 3 1.2876 0.0000
20 -10 4 -1.1433 0.0000
20 -9 0 0.6276 0.0000
20 -9 1 0.2333 0.0000
20 -9 2 0.3921 0.0000
20 -9 3 0.0952 0.0000
20 -8 0 -0.8124 0.0000
20 -8 1 -0.1013 0.0000
20 -8 2 -1.2237 0.0000
20 -8 3 0.6878 0.0000
20 -7 0 -0.2391 0.0000
20 -7 1 -0.1752 0.0000
20 -7 2 -0.9988 0.0000
20 -6 0 0.7191 0.0000
20 -6 1 0.1814 0.0000
20 -5 0 0.1319 0.0000
21 -14 0 -0.6458 0.0000
21 -13 0 -0.9832 0.0000
21 -13 1 0.2845 0.0000
21 -12 0 -1.4697 0.0000
21 -12 1 -0.2668 0.0000
21 -11 0 0.1229 0.0000
21 -11 1 0.6157 0.0000
21 -10 0 0.7158 0.0000
21 -10 1 -0.1289 0.0000
21 -9 0 -0.4820 0.0000
21 -8 0 0.2672 0.0000
0 0 0 0.0 0.0
;
_shelx_fab_checksum              1189
_olex2_submission_special_instructions 'No special instructions were received'
_oxdiff_exptl_absorpt_empirical_details
;
Empirical correction (ABSPACK) includes:
- Absorption correction using spherical harmonics
- Frame scaling
;
_oxdiff_exptl_absorpt_empirical_full_max 2.932
_oxdiff_exptl_absorpt_empirical_full_min 0.409
loop_
_space_group_symop_operation_xyz
'x, y, z'
'-x, -y, -z'
loop_
_atom_site_label
_atom_site_type_symbol
_atom_site_fract_x
_atom_site_fract_y
_atom_site_fract_z
_atom_site_U_iso_or_equiv
_atom_site_adp_type
_atom_site_occupancy
_atom_site_site_symmetry_order
_atom_site_calc_flag
_atom_site_refinement_flags_posn
Ag1A Ag 0.67722(2) 0.33448(2) 0.71771(2) 0.04114(10) Uani 1 1 d .
Ag1 Ag 0.90077(2) 0.39488(2) 0.92376(2) 0.03892(9) Uani 1 1 d .
Ag1B Ag 0.59946(2) 0.07867(2) 0.59494(2) 0.04490(10) Uani 1 1 d .
Fe1B Fe 0.43364(5) -0.12948(5) 0.80693(4) 0.05154(18) Uani 1 1 d .
Fe1A Fe 0.50877(5) 0.57216(5) 0.68238(4) 0.05428(19) Uani 1 1 d .
Fe1 Fe 1.18051(5) 0.41249(5) 0.77461(4) 0.0584(2) Uani 1 1 d .
N1 N 0.8274(2) 0.3089(2) 0.95860(18) 0.0413(7) Uani 1 1 d .
N3A N 0.5705(2) 0.3316(2) 0.71993(18) 0.0422(8) Uani 1 1 d .
N4A N 0.6596(2) 0.2505(2) 0.76810(19) 0.0453(8) Uani 1 1 d .
N3 N 0.9580(2) 0.4803(2) 0.87934(17) 0.0406(7) Uani 1 1 d .
N3B N 0.4929(3) 0.0606(2) 0.61062(18) 0.0467(8) Uani 1 1 d .
N2 N 0.9821(2) 0.3530(2) 0.92978(17) 0.0428(8) Uani 1 1 d .
N1A N 0.7716(2) 0.3164(2) 0.71163(19) 0.0479(8) Uani 1 1 d .
N2B N 0.6136(2) 0.0020(2) 0.64652(18) 0.0439(8) Uani 1 1 d .
N2A N 0.7168(2) 0.4272(2) 0.67574(17) 0.0425(8) Uani 1 1 d .
N4 N 0.8187(2) 0.4307(2) 0.93207(18) 0.0450(8) Uani 1 1 d .
N4B N 0.5952(3) 0.1512(2) 0.53528(19) 0.0514(9) Uani 1 1 d .
N1B N 0.7096(3) 0.1140(3) 0.5802(2) 0.0575(10) Uani 1 1 d .
C4 C 0.8348(3) 0.2450(3) 0.9794(2) 0.0451(9) Uani 1 1 d .
C9 C 1.0459(3) 0.3793(3) 0.9010(2) 0.0420(9) Uani 1 1 d .
C9B C 0.5587(3) -0.0410(3) 0.6796(2) 0.0453(10) Uani 1 1 d .
C16 C 0.8025(3) 0.4850(3) 0.9019(2) 0.0430(9) Uani 1 1 d .
C16A C 0.5913(3) 0.2050(3) 0.7876(2) 0.0449(9) Uani 1 1 d .
C11B C 0.4451(3) -0.0035(3) 0.6360(2) 0.0432(9) Uani 1 1 d .
C5A C 0.8444(3) 0.4229(3) 0.6589(2) 0.0454(10) Uani 1 1 d .
C10 C 1.0732(3) 0.4499(3) 0.8734(2) 0.0431(9) Uani 1 1 d .
C3A C 0.8974(3) 0.3300(3) 0.7137(2) 0.0476(10) Uani 1 1 d .
H3A H 0.9499 0.3471 0.7062 0.057 Uiso 1 1 calc R
C15A C 0.5246(3) 0.2232(3) 0.7850(2) 0.0444(9) Uani 1 1 d .
C10A C 0.5916(3) 0.4481(3) 0.6670(2) 0.0433(9) Uani 1 1 d .
C12 C 1.0680(3) 0.5808(3) 0.8580(2) 0.0461(10) Uani 1 1 d .
H12 H 1.1201 0.6108 0.8506 0.055 Uiso 1 1 calc R
C9A C 0.6657(3) 0.4598(3) 0.6496(2) 0.0439(9) Uani 1 1 d .
C13 C 1.0100(3) 0.6058(3) 0.8587(2) 0.0472(10) Uani 1 1 d .
H13 H 1.0162 0.6560 0.8522 0.057 Uiso 1 1 calc R
C20A C 0.9189(3) 0.4604(3) 0.6335(2) 0.0474(10) Uani 1 1 d .
C15 C 0.8632(3) 0.5430(3) 0.8760(2) 0.0446(9) Uani 1 1 d .
C11A C 0.5514(3) 0.3919(3) 0.7049(2) 0.0438(9) Uani 1 1 d .
C1 C 0.7607(3) 0.3141(3) 0.9722(2) 0.0453(9) Uani 1 1 d .
C6A C 0.7812(3) 0.4476(3) 0.6467(2) 0.0448(9) Uani 1 1 d .
C14A C 0.5211(3) 0.2874(3) 0.7573(2) 0.0450(9) Uani 1 1 d .
C27A C 0.5492(3) 0.4940(3) 0.6382(2) 0.0501(10) Uani 1 1 d .
C14 C 0.9377(3) 0.5431(3) 0.8711(2) 0.0411(9) Uani 1 1 d .
C4A C 0.8408(3) 0.3611(3) 0.6926(2) 0.0460(10) Uani 1 1 d .
C16B C 0.5441(3) 0.1847(3) 0.5256(2) 0.0505(11) Uani 1 1 d .
C37 C 0.8460(3) 0.6071(3) 0.8538(2) 0.0425(9) Uani 1 1 d .
C20 C 0.8984(3) 0.1534(3) 0.9853(2) 0.0465(10) Uani 1 1 d .
C5 C 0.9004(3) 0.2306(3) 0.9699(2) 0.0461(10) Uani 1 1 d .
C27 C 1.1484(3) 0.4756(3) 0.8492(2) 0.0486(10) Uani 1 1 d .
C37A C 0.4590(3) 0.1739(3) 0.8145(2) 0.0471(10) Uani 1 1 d .
C11 C 1.0362(3) 0.5012(3) 0.8704(2) 0.0433(9) Uani 1 1 d .
C14B C 0.4411(3) 0.0888(3) 0.5760(2) 0.0469(10) Uani 1 1 d .
C17 C 0.7190(3) 0.4670(3) 0.9029(2) 0.0491(10) Uani 1 1 d .
H17 H 0.6902 0.4941 0.8863 0.059 Uiso 1 1 calc R
C6 C 0.9657(3) 0.2794(3) 0.9444(2) 0.0432(9) Uani 1 1 d .
C10B C 0.4770(3) -0.0479(3) 0.6735(2) 0.0445(10) Uani 1 1 d .
C19 C 0.7508(3) 0.3790(3) 0.9499(2) 0.0475(10) Uani 1 1 d .
C12B C 0.3602(3) -0.0142(3) 0.6175(2) 0.0476(10) Uani 1 1 d .
H12B H 0.3142 -0.0527 0.6283 0.057 Uiso 1 1 calc R
C42 C 0.8538(3) 0.6248(3) 0.7884(2) 0.0498(10) Uani 1 1 d .
H42 H 0.8680 0.5942 0.7578 0.060 Uiso 1 1 calc R
C19A C 0.7136(3) 0.2197(3) 0.7723(2) 0.0473(10) Uani 1 1 d .
C2A C 0.8617(3) 0.2706(3) 0.7467(2) 0.0480(10) Uani 1 1 d .
H2A H 0.8861 0.2411 0.7661 0.058 Uiso 1 1 calc R
C6B C 0.6915(3) 0.0029(3) 0.6700(2) 0.0492(10) Uani 1 1 d .
C27B C 0.4188(3) -0.1059(3) 0.7051(2) 0.0479(10) Uani 1 1 d .
C17B C 0.5884(4) 0.2546(3) 0.4996(2) 0.0582(12) Uani 1 1 d .
H17B H 0.5688 0.2902 0.4873 0.070 Uiso 1 1 calc R
C3 C 0.7671(3) 0.2068(3) 1.0065(2) 0.0518(11) Uani 1 1 d .
H3 H 0.7550 0.1611 1.0241 0.062 Uiso 1 1 calc R
C37B C 0.4077(3) 0.1837(3) 0.5177(2) 0.0526(11) Uani 1 1 d .
C2 C 0.7219(3) 0.2484(3) 1.0027(2) 0.0515(10) Uani 1 1 d .
H2 H 0.6745 0.2358 1.0173 0.062 Uiso 1 1 calc R
C1A C 0.7811(3) 0.2616(3) 0.7464(2) 0.0458(10) Uani 1 1 d .
C3B C 0.8334(4) 0.1330(3) 0.5699(3) 0.0613(12) Uani 1 1 d .
H3B H 0.8827 0.1293 0.5740 0.074 Uiso 1 1 calc R
C40 C 0.8190(3) 0.7313(3) 0.8138(3) 0.0540(11) Uani 1 1 d .
C5B C 0.7612(3) 0.0395(3) 0.6463(2) 0.0521(11) Uani 1 1 d .
C4B C 0.7699(3) 0.0918(3) 0.6012(2) 0.0520(11) Uani 1 1 d .
C15B C 0.4679(3) 0.1530(3) 0.5413(2) 0.0494(10) Uani 1 1 d .
C28B C 0.3932(4) -0.1917(3) 0.6952(2) 0.0597(12) Uani 1 1 d .
H28B H 0.4165 -0.2200 0.6740 0.072 Uiso 1 1 calc R
C18A C 0.6797(3) 0.1505(3) 0.8000(2) 0.0476(10) Uani 1 1 d .
H18A H 0.7040 0.1178 0.8099 0.057 Uiso 1 1 calc R
C17A C 0.6054(3) 0.1406(3) 0.8096(2) 0.0488(10) Uani 1 1 d .
H17A H 0.5700 0.1000 0.8270 0.059 Uiso 1 1 calc R
C8 C 1.0753(3) 0.3217(3) 0.9003(2) 0.0503(10) Uani 1 1 d .
H8 H 1.1199 0.3247 0.8846 0.060 Uiso 1 1 calc R
C8B C 0.6016(3) -0.0748(3) 0.7243(2) 0.0514(11) Uani 1 1 d .
H8B H 0.5788 -0.1086 0.7522 0.062 Uiso 1 1 calc R
C18 C 0.6883(3) 0.4026(3) 0.9328(2) 0.0511(10) Uani 1 1 d .
H18 H 0.6356 0.3790 0.9403 0.061 Uiso 1 1 calc R
C38 C 0.8223(3) 0.6523(3) 0.8980(2) 0.0507(10) Uani 1 1 d .
H38 H 0.8155 0.6408 0.9411 0.061 Uiso 1 1 calc R
C7A C 0.7721(3) 0.4978(3) 0.6011(2) 0.0506(10) Uani 1 1 d .
H7A H 0.8075 0.5212 0.5748 0.061 Uiso 1 1 calc R
C19B C 0.6698(3) 0.1950(3) 0.5198(2) 0.0544(11) Uani 1 1 d .
C8A C 0.7034(3) 0.5053(3) 0.6030(2) 0.0506(10) Uani 1 1 d .
H8A H 0.6836 0.5350 0.5782 0.061 Uiso 1 1 calc R
C38B C 0.3857(4) 0.1883(3) 0.4456(2) 0.0613(13) Uani 1 1 d .
H38B H 0.4098 0.1728 0.4139 0.074 Uiso 1 1 calc R
C28A C 0.5899(4) 0.5744(3) 0.6278(3) 0.0609(12) Uani 1 1 d .
H28A H 0.6499 0.6127 0.6455 0.073 Uiso 1 1 calc R
C7B C 0.6800(3) -0.0490(3) 0.7185(2) 0.0545(11) Uani 1 1 d .
H7B H 0.7205 -0.0622 0.7418 0.065 Uiso 1 1 calc R
C20B C 0.8374(3) 0.0293(3) 0.6758(3) 0.0556(11) Uani 1 1 d .
C25 C 0.9551(4) 0.1603(3) 1.0497(3) 0.0614(13) Uani 1 1 d .
H25 H 0.9951 0.2133 1.0848 0.074 Uiso 1 1 calc R
C23 C 0.8938(3) 0.0114(3) 1.0120(3) 0.0566(12) Uani 1 1 d .
C13A C 0.4646(3) 0.3195(3) 0.7630(3) 0.0549(11) Uani 1 1 d .
H13A H 0.4224 0.3006 0.7843 0.066 Uiso 1 1 calc R
C41 C 0.8410(3) 0.6861(3) 0.7681(2) 0.0522(11) Uani 1 1 d .
H41 H 0.8470 0.6972 0.7247 0.063 Uiso 1 1 calc R
C42A C 0.3698(3) 0.1253(3) 0.7716(2) 0.0515(11) Uani 1 1 d .
H42A H 0.3499 0.1298 0.7250 0.062 Uiso 1 1 calc R
C13B C 0.3580(3) 0.0410(3) 0.5816(2) 0.0512(11) Uani 1 1 d .
H13B H 0.3101 0.0468 0.5636 0.061 Uiso 1 1 calc R
C39 C 0.8089(3) 0.7140(3) 0.8780(3) 0.0579(12) Uani 1 1 d .
H39 H 0.7932 0.7438 0.9076 0.069 Uiso 1 1 calc R
C7 C 1.0273(3) 0.2614(3) 0.9266(2) 0.0501(10) Uani 1 1 d .
H7 H 1.0334 0.2159 0.9322 0.060 Uiso 1 1 calc R
C31A C 0.4578(3) 0.4589(3) 0.6033(3) 0.0582(12) Uani 1 1 d .
H31A H 0.4142 0.4067 0.6016 0.070 Uiso 1 1 calc R
C42B C 0.3706(3) 0.2075(3) 0.5637(3) 0.0584(12) Uani 1 1 d .
H42B H 0.3846 0.2054 0.6120 0.070 Uiso 1 1 calc R
C40A C 0.3399(3) 0.0641(3) 0.8664(3) 0.0596(12) Uani 1 1 d .
C21A C 0.9347(4) 0.4087(3) 0.5880(3) 0.0601(12) Uani 1 1 d .
H21A H 0.8942 0.3509 0.5693 0.072 Uiso 1 1 calc R
C39A C 0.4269(4) 0.1144(4) 0.9113(3) 0.0641(13) Uani 1 1 d .
H39A H 0.4459 0.1121 0.9590 0.077 Uiso 1 1 calc R
C41A C 0.3109(3) 0.0711(3) 0.7969(3) 0.0604(12) Uani 1 1 d .
H41A H 0.2517 0.0391 0.7674 0.072 Uiso 1 1 calc R
C41B C 0.3136(4) 0.2340(3) 0.5393(3) 0.0659(14) Uani 1 1 d .
H41B H 0.2896 0.2498 0.5708 0.079 Uiso 1 1 calc R
C24A C 1.0539(4) 0.5796(3) 0.6412(3) 0.0647(13) Uani 1 1 d .
H24A H 1.0938 0.6375 0.6586 0.078 Uiso 1 1 calc R
C25A C 0.9799(3) 0.5474(3) 0.6579(3) 0.0551(11) Uani 1 1 d .
H25A H 0.9698 0.5841 0.6862 0.066 Uiso 1 1 calc R
C2B C 0.8090(4) 0.1793(3) 0.5324(3) 0.0642(13) Uani 1 1 d .
H2B H 0.8392 0.2125 0.5071 0.077 Uiso 1 1 calc R
C23A C 1.0691(3) 0.5253(3) 0.5980(3) 0.0587(12) Uani 1 1 d .
C40B C 0.2922(4) 0.2371(4) 0.4674(4) 0.0753(17) Uani 1 1 d .
C28 C 1.2308(3) 0.4848(3) 0.8839(3) 0.0607(12) Uani 1 1 d .
H28 H 1.2449 0.4681 0.9249 0.073 Uiso 1 1 calc R
C31B C 0.3679(4) -0.0882(4) 0.7412(3) 0.0622(13) Uani 1 1 d .
H31B H 0.3723 -0.0363 0.7555 0.075 Uiso 1 1 calc R
N6 N 0.7953(4) 0.8482(4) 0.7789(3) 0.0988(19) Uani 1 1 d .
C24 C 0.9538(4) 0.0901(3) 1.0635(3) 0.0651(14) Uani 1 1 d .
H24 H 0.9931 0.0958 1.1072 0.078 Uiso 1 1 calc R
C18B C 0.6637(4) 0.2601(3) 0.4961(3) 0.0617(13) Uani 1 1 d .
H18B H 0.7037 0.2995 0.4809 0.074 Uiso 1 1 calc R
C25B C 0.8883(4) 0.0651(4) 0.7510(3) 0.0727(15) Uani 1 1 d .
H25B H 0.8747 0.0952 0.7827 0.087 Uiso 1 1 calc R
N5 N 0.8933(5) -0.1190(3) 1.0388(3) 0.0961(19) Uani 1 1 d .
C38A C 0.4853(3) 0.1680(3) 0.8855(2) 0.0583(12) Uani 1 1 d .
H38A H 0.5441 0.2013 0.9160 0.070 Uiso 1 1 calc R
C1B C 0.7302(3) 0.1674(3) 0.5389(2) 0.0573(12) Uani 1 1 d .
C12A C 0.4839(3) 0.3821(3) 0.7317(3) 0.0541(11) Uani 1 1 d .
H12A H 0.4571 0.4136 0.7284 0.065 Uiso 1 1 calc R
C30A C 0.4440(4) 0.5161(4) 0.5719(3) 0.0735(16) Uani 1 1 d .
H30A H 0.3899 0.5081 0.5459 0.088 Uiso 1 1 calc R
C22A C 1.0083(4) 0.4401(3) 0.5695(3) 0.0620(12) Uani 1 1 d .
H22A H 1.0166 0.4041 0.5383 0.074 Uiso 1 1 calc R
C29B C 0.3251(4) -0.2265(4) 0.7237(3) 0.0781(18) Uani 1 1 d .
H29B H 0.2959 -0.2820 0.7240 0.094 Uiso 1 1 calc R
C39B C 0.3294(4) 0.2150(4) 0.4206(3) 0.0733(16) Uani 1 1 d .
H39B H 0.3162 0.2184 0.3728 0.088 Uiso 1 1 calc R
C31 C 1.1563(4) 0.5078(3) 0.7885(3) 0.0603(12) Uani 1 1 d .
H31 H 1.1120 0.5089 0.7544 0.072 Uiso 1 1 calc R
C43 C 0.8064(4) 0.7969(3) 0.7938(3) 0.0696(15) Uani 1 1 d .
C35B C 0.4371(5) -0.1146(5) 0.9130(3) 0.0803(18) Uani 1 1 d .
H35B H 0.3915 -0.1197 0.9280 0.096 Uiso 1 1 calc R
C34B C 0.5047(5) -0.0402(4) 0.9101(3) 0.0757(17) Uani 1 1 d .
H34B H 0.5117 0.0130 0.9233 0.091 Uiso 1 1 calc R
C33B C 0.5590(4) -0.0591(4) 0.8843(3) 0.0755(16) Uani 1 1 d .
H33B H 0.6083 -0.0212 0.8769 0.091 Uiso 1 1 calc R
C26 C 0.8926(4) -0.0620(4) 1.0271(3) 0.0737(16) Uani 1 1 d .
C29A C 0.5253(4) 0.5868(4) 0.5866(3) 0.0762(16) Uani 1 1 d .
H29A H 0.5351 0.6340 0.5717 0.091 Uiso 1 1 calc R
C36B C 0.4516(5) -0.1799(4) 0.8889(3) 0.0844(19) Uani 1 1 d .
H36B H 0.4171 -0.2361 0.8852 0.101 Uiso 1 1 calc R
C24B C 0.9586(4) 0.0563(4) 0.7788(4) 0.0820(17) Uani 1 1 d .
H24B H 0.9930 0.0809 0.8291 0.098 Uiso 1 1 calc R
C21B C 0.8569(4) -0.0169(4) 0.6282(3) 0.0653(13) Uani 1 1 d .
H21B H 0.8225 -0.0416 0.5779 0.078 Uiso 1 1 calc R
C23B C 0.9781(4) 0.0106(4) 0.7318(4) 0.0801(17) Uani 1 1 d .
C29 C 1.2881(4) 0.5228(4) 0.8476(3) 0.0778(17) Uani 1 1 d .
H29 H 1.3456 0.5356 0.8601 0.093 Uiso 1 1 calc R
C32B C 0.5265(5) -0.1459(4) 0.8714(3) 0.0772(18) Uani 1 1 d .
H32B H 0.5507 -0.1754 0.8541 0.093 Uiso 1 1 calc R
N5A N 1.2140(4) 0.5802(4) 0.5743(3) 0.0981(18) Uani 1 1 d .
C43B C 0.2325(5) 0.2648(5) 0.4410(4) 0.095(2) Uani 1 1 d .
C21 C 0.8369(4) 0.0740(3) 0.9356(3) 0.0782(19) Uani 1 1 d .
H21 H 0.7961 0.0682 0.8929 0.094 Uiso 1 1 calc R
C26A C 1.1507(4) 0.5575(4) 0.5853(3) 0.0721(15) Uani 1 1 d .
C34 C 1.1824(5) 0.3597(5) 0.6758(4) 0.090(2) Uani 1 1 d .
H34 H 1.2065 0.3893 0.6457 0.108 Uiso 1 1 calc R
C43A C 0.2825(4) 0.0006(4) 0.8914(4) 0.0781(17) Uani 1 1 d .
C22B C 0.9274(4) -0.0259(5) 0.6560(4) 0.0837(18) Uani 1 1 d .
H22B H 0.9411 -0.0561 0.6246 0.100 Uiso 1 1 calc R
C30 C 1.2410(4) 0.5376(4) 0.7881(4) 0.0796(17) Uani 1 1 d .
H30 H 1.2625 0.5627 0.7547 0.096 Uiso 1 1 calc R
C30B C 0.3094(4) -0.1635(4) 0.7515(4) 0.0800(18) Uani 1 1 d .
H30B H 0.2680 -0.1699 0.7727 0.096 Uiso 1 1 calc R
C36 C 1.0851(5) 0.2867(4) 0.7275(3) 0.0778(16) Uani 1 1 d .
H36 H 1.0344 0.2596 0.7378 0.093 Uiso 1 1 calc R
C22 C 0.8350(5) 0.0029(4) 0.9482(3) 0.085(2) Uani 1 1 d .
H22 H 0.7941 -0.0502 0.9137 0.102 Uiso 1 1 calc R
C33 C 1.2258(5) 0.3407(5) 0.7329(4) 0.090(2) Uani 1 1 d .
H33 H 1.2839 0.3553 0.7470 0.108 Uiso 1 1 calc R
N6B N 0.1853(5) 0.2857(6) 0.4183(5) 0.144(3) Uani 1 1 d .
C35A C 0.4455(6) 0.5601(5) 0.7554(4) 0.095(2) Uani 1 1 d .
H35A H 0.4002 0.5100 0.7554 0.114 Uiso 1 1 calc R
N6A N 0.2410(5) -0.0495(5) 0.9134(5) 0.127(3) Uani 1 1 d .
C35 C 1.0941(5) 0.3251(5) 0.6726(3) 0.091(2) Uani 1 1 d .
H35 H 1.0504 0.3279 0.6395 0.109 Uiso 1 1 calc R
C32 C 1.1671(5) 0.2961(4) 0.7653(4) 0.0819(17) Uani 1 1 d .
H32 H 1.1795 0.2762 0.8044 0.098 Uiso 1 1 calc R
C32A C 0.5791(5) 0.6688(5) 0.7797(4) 0.100(2) Uani 1 1 d .
H32A H 0.6394 0.7055 0.7991 0.120 Uiso 1 1 calc R
C34A C 0.4353(5) 0.6129(5) 0.7178(5) 0.096(2) Uani 1 1 d .
H34A H 0.3825 0.6049 0.6883 0.115 Uiso 1 1 calc R
C33A C 0.5188(6) 0.6808(4) 0.7322(5) 0.098(2) Uani 1 1 d .
H33A H 0.5318 0.7258 0.7134 0.117 Uiso 1 1 calc R
C26B C 1.0501(5) -0.0013(6) 0.7592(5) 0.110(3) Uani 1 1 d .
C36A C 0.5347(7) 0.5934(6) 0.7935(4) 0.103(3) Uani 1 1 d .
H36A H 0.5593 0.5696 0.8224 0.124 Uiso 1 1 calc R
N5B N 1.1081(6) -0.0077(8) 0.7847(6) 0.168(4) Uani 1 1 d .
loop_
_atom_site_aniso_label
_atom_site_aniso_U_11
_atom_site_aniso_U_22
_atom_site_aniso_U_33
_atom_site_aniso_U_23
_atom_site_aniso_U_13
_atom_site_aniso_U_12
Ag1A 0.04367(17) 0.04016(17) 0.04176(16) 0.01589(12) 0.01576(12) 0.02250(14)
Ag1 0.04552(17) 0.03784(16) 0.03862(15) 0.01618(12) 0.01676(12) 0.02371(13)
Ag1B 0.05397(19) 0.04312(18) 0.03867(15) 0.01547(13) 0.01678(13) 0.02536(15)
Fe1B 0.0643(5) 0.0543(4) 0.0448(3) 0.0244(3) 0.0223(3) 0.0336(4)
Fe1A 0.0537(4) 0.0501(4) 0.0666(4) 0.0197(3) 0.0237(3) 0.0316(4)
Fe1 0.0618(5) 0.0671(5) 0.0583(4) 0.0224(4) 0.0295(4) 0.0380(4)
N1 0.051(2) 0.0357(17) 0.0457(17) 0.0240(14) 0.0229(15) 0.0226(16)
N3A 0.0458(19) 0.0434(19) 0.0433(17) 0.0188(15) 0.0175(15) 0.0255(16)
N4A 0.050(2) 0.0420(19) 0.0446(17) 0.0164(15) 0.0167(15) 0.0241(17)
N3 0.051(2) 0.0379(18) 0.0371(15) 0.0171(14) 0.0165(14) 0.0241(16)
N3B 0.059(2) 0.049(2) 0.0406(17) 0.0201(15) 0.0173(16) 0.0338(19)
N2 0.0461(19) 0.0429(19) 0.0389(16) 0.0136(14) 0.0113(14) 0.0246(16)
N1A 0.048(2) 0.052(2) 0.0481(18) 0.0194(16) 0.0186(16) 0.0286(18)
N2B 0.052(2) 0.0381(18) 0.0411(16) 0.0124(14) 0.0168(15) 0.0234(16)
N2A 0.0444(19) 0.0422(19) 0.0399(16) 0.0158(14) 0.0154(14) 0.0210(16)
N4 0.051(2) 0.048(2) 0.0440(17) 0.0170(15) 0.0199(15) 0.0295(17)
N4B 0.061(2) 0.051(2) 0.0421(18) 0.0219(16) 0.0208(17) 0.0268(19)
N1B 0.070(3) 0.060(2) 0.0487(19) 0.0218(18) 0.0248(19) 0.036(2)
C4 0.048(2) 0.042(2) 0.0400(19) 0.0134(17) 0.0124(17) 0.0205(19)
C9 0.045(2) 0.047(2) 0.0343(18) 0.0160(17) 0.0081(16) 0.0266(19)
C9B 0.061(3) 0.044(2) 0.041(2) 0.0139(17) 0.0195(19) 0.034(2)
C16 0.052(2) 0.043(2) 0.0393(19) 0.0142(17) 0.0171(18) 0.029(2)
C16A 0.050(2) 0.043(2) 0.042(2) 0.0190(18) 0.0163(18) 0.024(2)
C11B 0.050(2) 0.041(2) 0.0337(18) 0.0115(16) 0.0106(17) 0.0233(19)
C5A 0.047(2) 0.049(2) 0.0357(18) 0.0084(17) 0.0149(17) 0.024(2)
C10 0.044(2) 0.044(2) 0.0341(18) 0.0107(17) 0.0103(16) 0.0201(19)
C3A 0.043(2) 0.052(3) 0.049(2) 0.013(2) 0.0165(18) 0.027(2)
C15A 0.044(2) 0.043(2) 0.0385(19) 0.0122(17) 0.0133(17) 0.0186(19)
C10A 0.048(2) 0.042(2) 0.0412(19) 0.0138(17) 0.0157(17) 0.0243(19)
C12 0.049(2) 0.043(2) 0.041(2) 0.0163(17) 0.0153(18) 0.020(2)
C9A 0.050(2) 0.038(2) 0.0377(18) 0.0102(16) 0.0138(17) 0.0207(19)
C13 0.054(3) 0.041(2) 0.046(2) 0.0175(18) 0.0159(19) 0.024(2)
C20A 0.045(2) 0.049(2) 0.045(2) 0.0142(19) 0.0138(18) 0.024(2)
C15 0.055(2) 0.042(2) 0.0395(19) 0.0135(17) 0.0161(18) 0.028(2)
C11A 0.046(2) 0.041(2) 0.0372(18) 0.0069(17) 0.0112(17) 0.0210(19)
C1 0.045(2) 0.051(2) 0.042(2) 0.0190(18) 0.0166(17) 0.024(2)
C6A 0.050(2) 0.044(2) 0.0392(19) 0.0162(17) 0.0156(18) 0.023(2)
C14A 0.044(2) 0.045(2) 0.0409(19) 0.0120(17) 0.0154(17) 0.0201(19)
C27A 0.061(3) 0.051(3) 0.046(2) 0.0201(19) 0.022(2) 0.033(2)
C14 0.054(2) 0.039(2) 0.0345(18) 0.0143(16) 0.0147(17) 0.0264(19)
C4A 0.045(2) 0.046(2) 0.044(2) 0.0097(18) 0.0166(18) 0.023(2)
C16B 0.063(3) 0.044(2) 0.0364(19) 0.0143(18) 0.0087(19) 0.026(2)
C37 0.045(2) 0.035(2) 0.0401(19) 0.0073(16) 0.0072(17) 0.0213(18)
C20 0.051(2) 0.042(2) 0.050(2) 0.0209(18) 0.0182(19) 0.025(2)
C5 0.055(3) 0.042(2) 0.045(2) 0.0171(18) 0.0164(19) 0.028(2)
C27 0.047(2) 0.048(2) 0.051(2) 0.0164(19) 0.0182(19) 0.024(2)
C37A 0.050(2) 0.052(2) 0.047(2) 0.0218(19) 0.0206(19) 0.029(2)
C11 0.046(2) 0.037(2) 0.042(2) 0.0139(17) 0.0181(18) 0.0167(19)
C14B 0.062(3) 0.048(2) 0.0355(19) 0.0139(18) 0.0151(18) 0.033(2)
C17 0.055(3) 0.053(3) 0.050(2) 0.020(2) 0.019(2) 0.036(2)
C6 0.052(2) 0.044(2) 0.0372(18) 0.0140(17) 0.0118(17) 0.030(2)
C10B 0.058(3) 0.044(2) 0.0282(17) 0.0083(16) 0.0104(17) 0.028(2)
C19 0.052(3) 0.048(2) 0.045(2) 0.0161(19) 0.0204(19) 0.026(2)
C12B 0.048(2) 0.046(2) 0.042(2) 0.0156(18) 0.0120(18) 0.022(2)
C42 0.057(3) 0.046(2) 0.043(2) 0.0105(18) 0.0098(19) 0.031(2)
C19A 0.054(3) 0.043(2) 0.045(2) 0.0117(18) 0.0145(19) 0.028(2)
C2A 0.049(2) 0.053(3) 0.040(2) 0.0104(19) 0.0090(18) 0.030(2)
C6B 0.061(3) 0.043(2) 0.044(2) 0.0083(18) 0.015(2) 0.031(2)
C27B 0.053(2) 0.048(2) 0.043(2) 0.0200(18) 0.0154(18) 0.026(2)
C17B 0.074(3) 0.046(3) 0.049(2) 0.024(2) 0.016(2) 0.028(2)
C3 0.054(3) 0.047(2) 0.053(2) 0.024(2) 0.018(2) 0.023(2)
C37B 0.062(3) 0.041(2) 0.040(2) 0.0136(18) 0.0057(19) 0.022(2)
C2 0.052(3) 0.053(3) 0.053(2) 0.026(2) 0.025(2) 0.024(2)
C1A 0.053(2) 0.040(2) 0.042(2) 0.0066(17) 0.0130(18) 0.027(2)
C3B 0.058(3) 0.055(3) 0.058(3) 0.006(2) 0.017(2) 0.025(2)
C40 0.055(3) 0.045(2) 0.055(2) 0.015(2) 0.006(2) 0.028(2)
C5B 0.057(3) 0.049(3) 0.045(2) 0.0061(19) 0.015(2) 0.029(2)
C4B 0.057(3) 0.058(3) 0.042(2) 0.010(2) 0.018(2) 0.033(2)
C15B 0.062(3) 0.047(2) 0.039(2) 0.0145(18) 0.0116(19) 0.031(2)
C28B 0.074(3) 0.049(3) 0.045(2) 0.014(2) 0.016(2) 0.027(2)
C18A 0.061(3) 0.039(2) 0.045(2) 0.0152(18) 0.0145(19) 0.029(2)
C17A 0.057(3) 0.040(2) 0.048(2) 0.0185(18) 0.021(2) 0.023(2)
C8 0.055(3) 0.060(3) 0.046(2) 0.021(2) 0.0206(19) 0.036(2)
C8B 0.068(3) 0.046(2) 0.052(2) 0.021(2) 0.024(2) 0.036(2)
C18 0.049(2) 0.056(3) 0.056(2) 0.019(2) 0.025(2) 0.030(2)
C38 0.059(3) 0.047(2) 0.048(2) 0.0164(19) 0.015(2) 0.031(2)
C7A 0.059(3) 0.053(3) 0.042(2) 0.0200(19) 0.023(2) 0.028(2)
C19B 0.067(3) 0.052(3) 0.039(2) 0.0158(19) 0.020(2) 0.026(2)
C8A 0.062(3) 0.053(3) 0.047(2) 0.023(2) 0.021(2) 0.035(2)
C38B 0.073(3) 0.057(3) 0.044(2) 0.023(2) 0.010(2) 0.030(3)
C28A 0.071(3) 0.060(3) 0.079(3) 0.036(3) 0.041(3) 0.043(3)
C7B 0.068(3) 0.062(3) 0.049(2) 0.024(2) 0.021(2) 0.044(3)
C20B 0.051(3) 0.048(3) 0.065(3) 0.015(2) 0.021(2) 0.025(2)
C25 0.065(3) 0.042(2) 0.061(3) 0.016(2) 0.006(2) 0.024(2)
C23 0.069(3) 0.047(3) 0.065(3) 0.024(2) 0.025(2) 0.036(2)
C13A 0.057(3) 0.063(3) 0.059(2) 0.026(2) 0.031(2) 0.035(2)
C41 0.060(3) 0.049(3) 0.047(2) 0.021(2) 0.013(2) 0.030(2)
C42A 0.055(3) 0.062(3) 0.045(2) 0.026(2) 0.021(2) 0.032(2)
C13B 0.052(3) 0.058(3) 0.043(2) 0.018(2) 0.0093(19) 0.032(2)
C39 0.068(3) 0.054(3) 0.055(2) 0.008(2) 0.013(2) 0.042(3)
C7 0.063(3) 0.053(3) 0.048(2) 0.021(2) 0.020(2) 0.040(2)
C31A 0.058(3) 0.051(3) 0.054(2) 0.009(2) 0.007(2) 0.028(2)
C42B 0.065(3) 0.049(3) 0.052(2) 0.015(2) 0.009(2) 0.030(2)
C40A 0.064(3) 0.072(3) 0.075(3) 0.045(3) 0.042(3) 0.045(3)
C21A 0.065(3) 0.053(3) 0.060(3) 0.011(2) 0.029(2) 0.028(2)
C39A 0.073(3) 0.092(4) 0.054(2) 0.040(3) 0.032(2) 0.053(3)
C41A 0.053(3) 0.069(3) 0.066(3) 0.032(2) 0.023(2) 0.033(3)
C41B 0.063(3) 0.052(3) 0.075(3) 0.018(2) 0.015(3) 0.030(3)
C24A 0.065(3) 0.051(3) 0.067(3) 0.021(2) 0.028(3) 0.018(2)
C25A 0.065(3) 0.047(3) 0.055(2) 0.016(2) 0.027(2) 0.028(2)
C2B 0.070(3) 0.052(3) 0.059(3) 0.010(2) 0.034(2) 0.019(3)
C23A 0.058(3) 0.068(3) 0.053(2) 0.029(2) 0.027(2) 0.028(3)
C40B 0.063(3) 0.059(3) 0.092(4) 0.044(3) 0.008(3) 0.027(3)
C28 0.047(3) 0.071(3) 0.059(3) 0.012(2) 0.015(2) 0.031(2)
C31B 0.068(3) 0.079(4) 0.061(3) 0.040(3) 0.029(2) 0.046(3)
N6 0.123(5) 0.077(3) 0.111(4) 0.041(3) 0.021(4) 0.070(4)
C24 0.065(3) 0.050(3) 0.070(3) 0.024(2) 0.007(2) 0.029(2)
C18B 0.066(3) 0.051(3) 0.051(2) 0.021(2) 0.017(2) 0.018(2)
C25B 0.081(4) 0.073(4) 0.067(3) 0.013(3) 0.015(3) 0.050(3)
N5 0.136(5) 0.066(3) 0.095(4) 0.031(3) 0.026(3) 0.065(4)
C38A 0.054(3) 0.070(3) 0.046(2) 0.024(2) 0.017(2) 0.027(2)
C1B 0.064(3) 0.050(3) 0.046(2) 0.012(2) 0.022(2) 0.021(2)
C12A 0.063(3) 0.062(3) 0.061(3) 0.032(2) 0.031(2) 0.043(3)
C30A 0.080(4) 0.086(4) 0.062(3) 0.025(3) 0.010(3) 0.056(4)
C22A 0.069(3) 0.067(3) 0.059(3) 0.020(2) 0.033(2) 0.037(3)
C29B 0.075(4) 0.061(3) 0.063(3) 0.029(3) 0.014(3) 0.012(3)
C39B 0.075(4) 0.070(4) 0.064(3) 0.035(3) 0.007(3) 0.034(3)
C31 0.074(3) 0.062(3) 0.067(3) 0.033(2) 0.043(3) 0.039(3)
C43 0.079(4) 0.057(3) 0.074(3) 0.025(3) 0.012(3) 0.042(3)
C35B 0.109(5) 0.104(5) 0.058(3) 0.041(3) 0.048(3) 0.065(4)
C34B 0.102(5) 0.081(4) 0.043(2) 0.014(3) 0.018(3) 0.052(4)
C33B 0.073(4) 0.089(4) 0.049(3) 0.016(3) 0.014(3) 0.037(3)
C26 0.094(4) 0.053(3) 0.077(3) 0.022(3) 0.023(3) 0.044(3)
C29A 0.094(4) 0.085(4) 0.089(4) 0.055(3) 0.044(3) 0.063(4)
C36B 0.118(6) 0.079(4) 0.064(3) 0.043(3) 0.032(3) 0.052(4)
C24B 0.077(4) 0.088(4) 0.078(4) 0.026(3) 0.016(3) 0.048(4)
C21B 0.065(3) 0.066(3) 0.071(3) 0.016(3) 0.030(3) 0.038(3)
C23B 0.060(3) 0.094(5) 0.112(5) 0.054(4) 0.039(3) 0.049(3)
C29 0.052(3) 0.081(4) 0.091(4) 0.012(3) 0.030(3) 0.029(3)
C32B 0.110(5) 0.105(5) 0.047(3) 0.030(3) 0.022(3) 0.080(4)
N5A 0.085(4) 0.105(4) 0.094(4) 0.029(3) 0.053(3) 0.032(3)
C43B 0.077(4) 0.106(5) 0.120(5) 0.071(5) 0.029(4) 0.053(4)
C21 0.102(5) 0.047(3) 0.058(3) 0.013(2) -0.007(3) 0.038(3)
C26A 0.065(3) 0.085(4) 0.064(3) 0.027(3) 0.035(3) 0.030(3)
C34 0.120(6) 0.098(5) 0.078(4) 0.032(4) 0.065(4) 0.061(5)
C43A 0.081(4) 0.101(5) 0.097(4) 0.065(4) 0.056(3) 0.059(4)
C22B 0.082(4) 0.101(5) 0.097(4) 0.036(4) 0.045(4) 0.062(4)
C30 0.089(4) 0.080(4) 0.103(4) 0.050(3) 0.067(4) 0.046(4)
C30B 0.063(3) 0.103(5) 0.087(4) 0.057(4) 0.035(3) 0.041(3)
C36 0.088(4) 0.067(4) 0.082(4) 0.018(3) 0.041(3) 0.040(3)
C22 0.112(5) 0.046(3) 0.061(3) 0.005(2) -0.005(3) 0.037(3)
C33 0.087(5) 0.096(5) 0.102(5) 0.017(4) 0.046(4) 0.059(4)
N6B 0.123(6) 0.185(8) 0.196(8) 0.135(7) 0.060(6) 0.110(6)
C35A 0.105(6) 0.086(5) 0.113(5) 0.028(4) 0.076(5) 0.047(4)
N6A 0.103(5) 0.161(7) 0.185(7) 0.133(6) 0.090(5) 0.076(5)
C35 0.109(5) 0.105(5) 0.060(3) 0.009(3) 0.020(3) 0.069(5)
C32 0.104(5) 0.079(4) 0.081(4) 0.020(3) 0.036(4) 0.061(4)
C32A 0.077(4) 0.090(5) 0.099(5) -0.013(4) 0.023(4) 0.036(4)
C34A 0.086(5) 0.107(6) 0.123(6) 0.030(5) 0.054(4) 0.066(5)
C33A 0.118(6) 0.061(4) 0.134(6) 0.025(4) 0.063(5) 0.055(4)
C26B 0.085(5) 0.157(8) 0.152(7) 0.092(6) 0.070(5) 0.085(5)
C36A 0.153(8) 0.116(6) 0.077(4) 0.023(4) 0.048(5) 0.097(6)
N5B 0.127(6) 0.288(12) 0.208(9) 0.153(9) 0.095(6) 0.158(8)
loop_
_atom_type_symbol
_atom_type_description
_atom_type_scat_dispersion_real
_atom_type_scat_dispersion_imag
_atom_type_scat_source
C C 0.0181 0.0091 'International Tables Vol C Tables 4.2.6.8 and 6.1.1.4'
H H 0.0000 0.0000 'International Tables Vol C Tables 4.2.6.8 and 6.1.1.4'
Ag Ag 0.1306 4.2820 'International Tables Vol C Tables 4.2.6.8 and 6.1.1.4'
Fe Fe -1.1336 3.1974 'International Tables Vol C Tables 4.2.6.8 and 6.1.1.4'
N N 0.0311 0.0180 'International Tables Vol C Tables 4.2.6.8 and 6.1.1.4'
loop_
_geom_angle_atom_site_label_1
_geom_angle_atom_site_label_2
_geom_angle_atom_site_label_3
_geom_angle
N3A Ag1A N2A 96.17(14)
N4A Ag1A N3A 92.30(15)
N4A Ag1A N1A 80.23(16)
N4A Ag1A N2A 170.01(15)
N1A Ag1A N3A 170.18(15)
N1A Ag1A N2A 91.90(15)
N1 Ag1 N3 170.95(14)
N1 Ag1 N2 92.51(15)
N1 Ag1 N4 79.88(15)
N3 Ag1 N2 95.11(15)
N4 Ag1 N3 92.95(15)
N4 Ag1 N2 170.69(14)
N3B Ag1B N2B 95.58(15)
N4B Ag1B N3B 92.24(16)
N4B Ag1B N2B 171.30(16)
N1B Ag1B N3B 171.29(16)
N1B Ag1B N2B 91.79(16)
N1B Ag1B N4B 80.75(17)
C28B Fe1B C27B 39.86(18)
C31B Fe1B C27B 40.40(19)
C31B Fe1B C28B 68.1(2)
C31B Fe1B C35B 118.3(3)
C31B Fe1B C34B 108.3(2)
C31B Fe1B C33B 127.6(3)
C31B Fe1B C32B 165.5(3)
C29B Fe1B C27B 67.7(2)
C29B Fe1B C28B 40.8(2)
C29B Fe1B C31B 68.3(2)
C29B Fe1B C35B 118.8(3)
C29B Fe1B C34B 156.0(3)
C29B Fe1B C33B 160.0(3)
C29B Fe1B C36B 104.1(3)
C29B Fe1B C32B 121.9(3)
C35B Fe1B C27B 156.6(2)
C35B Fe1B C28B 157.5(3)
C35B Fe1B C34B 40.3(3)
C35B Fe1B C33B 67.3(3)
C35B Fe1B C32B 67.6(3)
C34B Fe1B C27B 126.1(2)
C34B Fe1B C28B 162.0(3)
C34B Fe1B C33B 39.3(3)
C33B Fe1B C27B 115.0(2)
C33B Fe1B C28B 128.0(2)
C36B Fe1B C27B 162.8(2)
C36B Fe1B C28B 124.3(2)
C36B Fe1B C31B 152.5(3)
C36B Fe1B C35B 40.5(3)
C36B Fe1B C34B 67.4(3)
C36B Fe1B C33B 67.4(3)
C36B Fe1B C32B 40.0(3)
C32B Fe1B C27B 130.4(2)
C32B Fe1B C28B 112.0(2)
C32B Fe1B C34B 66.8(2)
C32B Fe1B C33B 40.1(3)
C30B Fe1B C27B 68.2(2)
C30B Fe1B C28B 68.6(3)
C30B Fe1B C31B 40.9(2)
C30B Fe1B C29B 40.7(3)
C30B Fe1B C35B 101.4(3)
C30B Fe1B C34B 121.1(3)
C30B Fe1B C33B 159.2(3)
C30B Fe1B C36B 116.2(3)
C30B Fe1B C32B 153.5(3)
C28A Fe1A C27A 40.23(18)
C28A Fe1A C31A 67.4(2)
C28A Fe1A C35A 164.8(3)
C28A Fe1A C34A 154.1(3)
C28A Fe1A C36A 127.2(3)
C31A Fe1A C27A 40.11(19)
C30A Fe1A C27A 68.1(2)
C30A Fe1A C28A 67.9(2)
C30A Fe1A C31A 40.5(2)
C30A Fe1A C29A 40.4(3)
C30A Fe1A C35A 122.2(3)
C30A Fe1A C32A 156.8(3)
C30A Fe1A C34A 104.9(3)
C30A Fe1A C33A 119.7(3)
C30A Fe1A C36A 159.5(4)
C29A Fe1A C27A 68.1(2)
C29A Fe1A C28A 40.5(2)
C29A Fe1A C31A 67.8(2)
C29A Fe1A C35A 154.6(3)
C29A Fe1A C32A 122.2(3)
C29A Fe1A C34A 118.0(3)
C29A Fe1A C33A 103.4(3)
C29A Fe1A C36A 160.1(4)
C35A Fe1A C27A 129.3(3)
C35A Fe1A C31A 111.8(3)
C35A Fe1A C36A 40.1(3)
C32A Fe1A C27A 125.5(3)
C32A Fe1A C28A 109.1(3)
C32A Fe1A C31A 161.6(3)
C32A Fe1A C35A 66.5(3)
C32A Fe1A C34A 67.2(3)
C32A Fe1A C36A 39.8(3)
C34A Fe1A C27A 162.2(3)
C34A Fe1A C31A 124.2(3)
C34A Fe1A C35A 39.5(3)
C34A Fe1A C36A 67.5(3)
C33A Fe1A C27A 157.5(3)
C33A Fe1A C28A 120.0(3)
C33A Fe1A C31A 157.7(3)
C33A Fe1A C35A 66.9(3)
C33A Fe1A C32A 40.2(3)
C33A Fe1A C34A 40.3(3)
C33A Fe1A C36A 67.8(3)
C36A Fe1A C27A 113.0(2)
C36A Fe1A C31A 126.8(3)
C28 Fe1 C27 39.94(18)
C31 Fe1 C27 40.44(18)
C31 Fe1 C28 67.2(2)
C31 Fe1 C29 68.4(2)
C31 Fe1 C34 121.5(3)
C31 Fe1 C36 124.2(3)
C31 Fe1 C33 156.9(3)
C31 Fe1 C35 107.7(3)
C31 Fe1 C32 161.4(3)
C29 Fe1 C27 68.3(2)
C29 Fe1 C28 40.2(2)
C29 Fe1 C34 119.8(3)
C29 Fe1 C36 161.3(3)
C29 Fe1 C33 106.4(3)
C29 Fe1 C35 156.4(3)
C29 Fe1 C32 123.6(3)
C34 Fe1 C27 159.1(3)
C34 Fe1 C28 157.2(3)
C34 Fe1 C36 67.8(3)
C34 Fe1 C33 40.0(3)
C34 Fe1 C35 40.9(3)
C34 Fe1 C32 67.5(3)
C30 Fe1 C27 68.3(2)
C30 Fe1 C28 67.6(2)
C30 Fe1 C31 40.5(2)
C30 Fe1 C29 41.0(3)
C30 Fe1 C34 104.3(3)
C30 Fe1 C36 157.5(3)
C30 Fe1 C33 120.8(3)
C30 Fe1 C35 120.9(3)
C30 Fe1 C32 157.7(3)
C36 Fe1 C27 111.1(2)
C36 Fe1 C28 127.3(2)
C36 Fe1 C32 40.6(3)
C33 Fe1 C27 160.6(3)
C33 Fe1 C28 124.2(3)
C33 Fe1 C36 67.6(3)
C33 Fe1 C35 67.6(3)
C33 Fe1 C32 39.9(3)
C35 Fe1 C27 124.7(2)
C35 Fe1 C28 161.6(3)
C35 Fe1 C36 39.6(3)
C35 Fe1 C32 67.4(3)
C32 Fe1 C27 126.3(2)
C32 Fe1 C28 111.4(2)
C4 N1 Ag1 130.7(3)
C1 N1 Ag1 117.2(3)
C1 N1 C4 111.8(4)
C11A N3A Ag1A 123.2(3)
C14A N3A Ag1A 123.5(3)
C14A N3A C11A 110.5(4)
C16A N4A Ag1A 129.7(3)
C16A N4A C19A 112.3(4)
C19A N4A Ag1A 116.6(3)
C14 N3 Ag1 123.2(3)
C11 N3 Ag1 124.3(3)
C11 N3 C14 110.4(3)
C11B N3B Ag1B 123.1(3)
C14B N3B Ag1B 123.8(3)
C14B N3B C11B 109.8(4)
C9 N2 Ag1 124.0(3)
C9 N2 C6 110.9(4)
C6 N2 Ag1 122.8(3)
C4A N1A Ag1A 130.6(3)
C4A N1A C1A 112.4(4)
C1A N1A Ag1A 115.5(3)
C9B N2B Ag1B 123.6(3)
C9B N2B C6B 111.5(4)
C6B N2B Ag1B 122.8(3)
C9A N2A Ag1A 122.8(3)
C6A N2A Ag1A 123.6(3)
C6A N2A C9A 110.3(3)
C16 N4 Ag1 128.8(3)
C19 N4 Ag1 116.6(3)
C19 N4 C16 111.4(4)
C16B N4B Ag1B 128.8(3)
C16B N4B C19B 112.6(4)
C19B N4B Ag1B 115.3(3)
C4B N1B Ag1B 131.1(3)
C4B N1B C1B 112.1(5)
C1B N1B Ag1B 116.7(4)
N1 C4 C5 119.8(4)
N1 C4 C3 105.6(4)
C5 C4 C3 134.7(4)
N2 C9 C10 124.9(4)
N2 C9 C8 106.9(4)
C8 C9 C10 128.1(4)
N2B C9B C10B 126.4(4)
N2B C9B C8B 106.1(4)
C10B C9B C8B 127.4(4)
N4 C16 C15 121.3(4)
N4 C16 C17 105.3(4)
C17 C16 C15 133.3(4)
N4A C16A C15A 122.6(4)
N4A C16A C17A 105.3(4)
C15A C16A C17A 132.1(4)
N3B C11B C10B 125.3(4)
N3B C11B C12B 106.5(4)
C10B C11B C12B 128.2(4)
C6A C5A C20A 120.6(4)
C4A C5A C20A 115.0(4)
C4A C5A C6A 124.3(4)
C9 C10 C27 119.1(4)
C11 C10 C9 125.2(4)
C11 C10 C27 115.6(4)
C4A C3A H3A 125.7
C2A C3A H3A 125.7
C2A C3A C4A 108.6(4)
C16A C15A C14A 122.6(4)
C16A C15A C37A 116.8(4)
C14A C15A C37A 120.5(4)
C9A C10A C11A 125.2(4)
C9A C10A C27A 116.9(4)
C11A C10A C27A 117.8(4)
C13 C12 H12 125.6
C13 C12 C11 108.9(4)
C11 C12 H12 125.6
N2A C9A C10A 124.9(4)
N2A C9A C8A 105.8(4)
C10A C9A C8A 129.3(4)
C12 C13 H13 125.2
C12 C13 C14 109.5(4)
C14 C13 H13 125.2
C21A C20A C5A 120.4(4)
C21A C20A C25A 116.8(5)
C25A C20A C5A 122.7(4)
C16 C15 C37 117.3(4)
C14 C15 C16 124.1(4)
C14 C15 C37 118.5(4)
N3A C11A C10A 124.3(4)
N3A C11A C12A 106.1(4)
C12A C11A C10A 129.6(4)
N1 C1 C19 112.7(4)
N1 C1 C2 105.9(4)
C2 C1 C19 141.4(4)
N2A C6A C5A 126.5(4)
N2A C6A C7A 106.8(4)
C5A C6A C7A 126.7(4)
N3A C14A C15A 127.4(4)
N3A C14A C13A 106.1(4)
C15A C14A C13A 126.5(4)
C10A C27A Fe1A 136.2(3)
C28A C27A Fe1A 67.8(3)
C28A C27A C10A 127.9(4)
C31A C27A Fe1A 68.3(3)
C31A C27A C10A 125.6(4)
C31A C27A C28A 105.7(4)
N3 C14 C13 104.8(4)
C15 C14 N3 126.5(4)
C15 C14 C13 128.8(4)
N1A C4A C5A 120.6(4)
N1A C4A C3A 105.4(4)
C5A C4A C3A 134.0(4)
N4B C16B C17B 104.6(5)
N4B C16B C15B 122.2(4)
C15B C16B C17B 133.2(5)
C42 C37 C15 121.0(4)
C38 C37 C15 120.9(4)
C38 C37 C42 118.2(4)
C25 C20 C5 121.1(4)
C25 C20 C21 118.6(4)
C21 C20 C5 120.2(4)
C4 C5 C20 117.0(4)
C4 C5 C6 125.9(4)
C6 C5 C20 117.0(4)
C10 C27 Fe1 134.4(3)
C28 C27 Fe1 68.3(3)
C28 C27 C10 129.6(4)
C28 C27 C31 104.9(4)
C31 C27 Fe1 67.0(3)
C31 C27 C10 125.0(4)
C42A C37A C15A 122.3(4)
C42A C37A C38A 117.2(4)
C38A C37A C15A 120.2(4)
N3 C11 C10 124.1(4)
N3 C11 C12 106.4(4)
C10 C11 C12 129.5(4)
N3B C14B C15B 125.4(4)
N3B C14B C13B 106.4(4)
C13B C14B C15B 128.2(4)
C16 C17 H17 125.8
C18 C17 C16 108.4(4)
C18 C17 H17 125.8
N2 C6 C5 127.2(4)
N2 C6 C7 105.6(4)
C5 C6 C7 127.2(4)
C9B C10B C27B 120.3(4)
C11B C10B C9B 123.6(4)
C11B C10B C27B 116.2(4)
N4 C19 C1 112.6(4)
N4 C19 C18 107.0(4)
C18 C19 C1 140.0(5)
C11B C12B H12B 125.8
C13B C12B C11B 108.4(4)
C13B C12B H12B 125.8
C37 C42 H42 119.1
C41 C42 C37 121.8(4)
C41 C42 H42 119.1
N4A C19A C1A 113.5(4)
N4A C19A C18A 106.4(4)
C1A C19A C18A 140.0(4)
C3A C2A H2A 125.8
C3A C2A C1A 108.4(4)
C1A C2A H2A 125.8
N2B C6B C5B 126.8(4)
N2B C6B C7B 104.7(4)
C5B C6B C7B 128.3(4)
C10B C27B Fe1B 135.8(3)
C28B C27B Fe1B 69.3(2)
C28B C27B C10B 126.6(4)
C28B C27B C31B 107.8(4)
C31B C27B Fe1B 67.6(2)
C31B C27B C10B 124.9(4)
C16B C17B H17B 125.4
C18B C17B C16B 109.1(5)
C18B C17B H17B 125.4
C4 C3 H3 125.6
C2 C3 C4 108.8(4)
C2 C3 H3 125.6
C38B C37B C15B 119.0(5)
C42B C37B C15B 123.2(4)
C42B C37B C38B 117.8(5)
C1 C2 H2 126.0
C3 C2 C1 108.0(4)
C3 C2 H2 126.0
N1A C1A C19A 113.5(4)
N1A C1A C2A 105.2(4)
C19A C1A C2A 141.2(4)
C4B C3B H3B 125.9
C2B C3B H3B 125.9
C2B C3B C4B 108.2(5)
C41 C40 C43 119.6(5)
C39 C40 C41 120.7(4)
C39 C40 C43 119.8(5)
C6B C5B C4B 125.6(4)
C6B C5B C20B 118.1(4)
C4B C5B C20B 116.1(5)
N1B C4B C3B 105.6(4)
N1B C4B C5B 120.1(5)
C5B C4B C3B 134.3(5)
C16B C15B C14B 124.0(4)
C16B C15B C37B 118.9(4)
C14B C15B C37B 117.0(4)
Fe1B C28B H28B 126.6
C27B C28B Fe1B 70.8(2)
C27B C28B H28B 126.5
C27B C28B C29B 107.1(5)
C29B C28B Fe1B 67.6(3)
C29B C28B H28B 126.5
C19A C18A H18A 125.9
C17A C18A C19A 108.1(4)
C17A C18A H18A 125.9
C16A C17A H17A 126.1
C18A C17A C16A 107.8(4)
C18A C17A H17A 126.1
C9 C8 H8 125.9
C7 C8 C9 108.1(4)
C7 C8 H8 125.9
C9B C8B H8B 125.8
C7B C8B C9B 108.5(4)
C7B C8B H8B 125.8
C17 C18 C19 107.8(4)
C17 C18 H18 126.1
C19 C18 H18 126.1
C37 C38 H38 119.7
C39 C38 C37 120.5(4)
C39 C38 H38 119.7
C6A C7A H7A 125.9
C8A C7A C6A 108.3(4)
C8A C7A H7A 125.9
N4B C19B C18B 105.7(5)
N4B C19B C1B 113.4(4)
C18B C19B C1B 140.4(5)
C9A C8A H8A 125.6
C7A C8A C9A 108.8(4)
C7A C8A H8A 125.6
C37B C38B H38B 119.3
C39B C38B C37B 121.4(6)
C39B C38B H38B 119.3
Fe1A C28A H28A 125.1
C27A C28A Fe1A 72.0(3)
C27A C28A H28A 125.4
C29A C28A Fe1A 69.0(3)
C29A C28A C27A 109.2(5)
C29A C28A H28A 125.4
C6B C7B H7B 125.5
C8B C7B C6B 109.0(4)
C8B C7B H7B 125.5
C25B C20B C5B 119.8(5)
C25B C20B C21B 119.9(5)
C21B C20B C5B 120.3(4)
C20 C25 H25 119.5
C20 C25 C24 121.1(5)
C24 C25 H25 119.5
C24 C23 C26 119.1(5)
C22 C23 C24 120.2(4)
C22 C23 C26 120.7(5)
C14A C13A H13A 126.1
C12A C13A C14A 107.8(4)
C12A C13A H13A 126.1
C42 C41 C40 118.8(4)
C42 C41 H41 120.6
C40 C41 H41 120.6
C37A C42A H42A 119.3
C41A C42A C37A 121.3(4)
C41A C42A H42A 119.3
C14B C13B H13B 125.6
C12B C13B C14B 108.8(4)
C12B C13B H13B 125.6
C40 C39 C38 119.9(4)
C40 C39 H39 120.0
C38 C39 H39 120.0
C6 C7 H7 125.8
C8 C7 C6 108.4(4)
C8 C7 H7 125.8
Fe1A C31A H31A 125.9
C27A C31A Fe1A 71.6(3)
C27A C31A H31A 125.5
C30A C31A Fe1A 68.5(3)
C30A C31A C27A 108.9(5)
C30A C31A H31A 125.5
C37B C42B H42B 119.3
C41B C42B C37B 121.4(5)
C41B C42B H42B 119.3
C39A C40A C41A 120.0(5)
C39A C40A C43A 118.1(5)
C41A C40A C43A 121.7(5)
C20A C21A H21A 118.8
C22A C21A C20A 122.4(5)
C22A C21A H21A 118.8
C40A C39A H39A 120.2
C38A C39A C40A 119.7(4)
C38A C39A H39A 120.2
C42A C41A C40A 119.8(5)
C42A C41A H41A 120.1
C40A C41A H41A 120.1
C42B C41B H41B 120.2
C42B C41B C40B 119.6(6)
C40B C41B H41B 120.2
C25A C24A H24A 120.1
C25A C24A C23A 119.7(5)
C23A C24A H24A 120.1
C20A C25A H25A 119.1
C24A C25A C20A 121.7(5)
C24A C25A H25A 119.1
C3B C2B H2B 125.9
C3B C2B C1B 108.1(5)
C1B C2B H2B 125.9
C24A C23A C26A 120.4(5)
C22A C23A C24A 120.2(5)
C22A C23A C26A 119.3(5)
C41B C40B C39B 120.1(5)
C41B C40B C43B 120.2(7)
C39B C40B C43B 119.7(6)
Fe1 C28 H28 125.9
C27 C28 Fe1 71.8(3)
C27 C28 H28 124.7
C29 C28 Fe1 69.3(3)
C29 C28 C27 110.6(5)
C29 C28 H28 124.7
Fe1B C31B H31B 125.0
C27B C31B Fe1B 72.0(3)
C27B C31B H31B 125.9
C30B C31B Fe1B 68.8(3)
C30B C31B C27B 108.3(5)
C30B C31B H31B 125.9
C25 C24 H24 120.2
C23 C24 C25 119.6(5)
C23 C24 H24 120.2
C17B C18B C19B 107.9(5)
C17B C18B H18B 126.1
C19B C18B H18B 126.1
C20B C25B H25B 119.8
C24B C25B C20B 120.3(6)
C24B C25B H25B 119.8
C37A C38A H38A 119.1
C39A C38A C37A 121.8(5)
C39A C38A H38A 119.1
N1B C1B C19B 112.8(5)
N1B C1B C2B 106.0(5)
C2B C1B C19B 141.1(5)
C11A C12A H12A 125.3
C13A C12A C11A 109.4(4)
C13A C12A H12A 125.3
Fe1A C30A H30A 124.8
C31A C30A Fe1A 71.0(3)
C31A C30A H30A 125.9
C29A C30A Fe1A 69.9(3)
C29A C30A C31A 108.1(5)
C29A C30A H30A 125.9
C21A C22A H22A 120.5
C23A C22A C21A 119.0(5)
C23A C22A H22A 120.5
Fe1B C29B H29B 125.1
C28B C29B Fe1B 71.6(3)
C28B C29B H29B 125.5
C30B C29B Fe1B 69.4(3)
C30B C29B C28B 109.1(5)
C30B C29B H29B 125.5
C38B C39B C40B 119.6(5)
C38B C39B H39B 120.2
C40B C39B H39B 120.2
Fe1 C31 H31 124.4
C27 C31 Fe1 72.5(3)
C27 C31 H31 125.1
C30 C31 Fe1 69.5(3)
C30 C31 C27 109.8(5)
C30 C31 H31 125.1
N6 C43 C40 178.5(8)
Fe1B C35B H35B 125.3
C34B C35B Fe1B 70.5(3)
C34B C35B H35B 126.5
C36B C35B Fe1B 69.3(3)
C36B C35B H35B 126.5
C36B C35B C34B 106.9(6)
Fe1B C34B H34B 126.3
C35B C34B Fe1B 69.2(3)
C35B C34B H34B 125.6
C33B C34B Fe1B 70.5(3)
C33B C34B C35B 108.8(6)
C33B C34B H34B 125.6
Fe1B C33B H33B 125.9
C34B C33B Fe1B 70.2(4)
C34B C33B H33B 126.1
C34B C33B C32B 107.9(6)
C32B C33B Fe1B 69.4(3)
C32B C33B H33B 126.1
N5 C26 C23 178.5(8)
Fe1A C29A H29A 125.4
C28A C29A Fe1A 70.5(3)
C28A C29A H29A 126.0
C30A C29A Fe1A 69.7(3)
C30A C29A C28A 108.0(5)
C30A C29A H29A 126.0
Fe1B C36B H36B 125.0
C35B C36B Fe1B 70.2(3)
C35B C36B H36B 125.9
C32B C36B Fe1B 70.6(3)
C32B C36B C35B 108.3(6)
C32B C36B H36B 125.9
C25B C24B H24B 120.1
C25B C24B C23B 119.8(6)
C23B C24B H24B 120.1
C20B C21B H21B 120.1
C22B C21B C20B 119.8(5)
C22B C21B H21B 120.1
C24B C23B C22B 120.5(5)
C24B C23B C26B 121.3(7)
C22B C23B C26B 118.2(7)
Fe1 C29 H29 125.5
C28 C29 Fe1 70.5(3)
C28 C29 H29 126.7
C28 C29 C30 106.7(5)
C30 C29 Fe1 68.9(4)
C30 C29 H29 126.7
Fe1B C32B H32B 125.7
C33B C32B Fe1B 70.5(3)
C33B C32B H32B 126.0
C36B C32B Fe1B 69.4(3)
C36B C32B C33B 108.0(6)
C36B C32B H32B 126.0
N6B C43B C40B 178.1(10)
C20 C21 H21 119.5
C20 C21 C22 121.0(5)
C22 C21 H21 119.5
N5A C26A C23A 177.9(7)
Fe1 C34 H34 125.3
C33 C34 Fe1 70.1(3)
C33 C34 H34 126.4
C33 C34 C35 107.2(6)
C35 C34 Fe1 69.7(3)
C35 C34 H34 126.4
N6A C43A C40A 176.3(7)
C21B C22B C23B 119.7(6)
C21B C22B H22B 120.2
C23B C22B H22B 120.2
Fe1 C30 H30 125.5
C31 C30 Fe1 70.0(3)
C31 C30 C29 108.0(5)
C31 C30 H30 126.0
C29 C30 Fe1 70.1(4)
C29 C30 H30 126.0
Fe1B C30B H30B 125.3
C31B C30B Fe1B 70.3(3)
C31B C30B H30B 126.1
C29B C30B Fe1B 69.9(4)
C29B C30B C31B 107.7(6)
C29B C30B H30B 126.1
Fe1 C36 H36 125.8
C35 C36 Fe1 70.0(4)
C35 C36 H36 126.0
C35 C36 C32 107.9(6)
C32 C36 Fe1 69.7(4)
C32 C36 H36 126.0
C23 C22 C21 119.4(5)
C23 C22 H22 120.3
C21 C22 H22 120.3
Fe1 C33 H33 125.9
C34 C33 Fe1 69.8(4)
C34 C33 H33 125.6
C32 C33 Fe1 70.3(4)
C32 C33 C34 108.8(6)
C32 C33 H33 125.6
Fe1A C35A H35A 126.1
C34A C35A Fe1A 70.2(4)
C34A C35A H35A 125.2
C34A C35A C36A 109.5(7)
C36A C35A Fe1A 70.0(4)
C36A C35A H35A 125.2
Fe1 C35 H35 126.0
C34 C35 Fe1 69.3(4)
C34 C35 H35 125.9
C36 C35 Fe1 70.3(4)
C36 C35 C34 108.2(6)
C36 C35 H35 125.9
Fe1 C32 H32 125.9
C36 C32 Fe1 69.7(3)
C36 C32 H32 126.1
C33 C32 Fe1 69.9(4)
C33 C32 C36 107.8(6)
C33 C32 H32 126.1
Fe1A C32A H32A 126.2
C33A C32A Fe1A 69.4(4)
C33A C32A H32A 125.5
C36A C32A Fe1A 70.5(4)
C36A C32A H32A 125.5
C36A C32A C33A 109.1(7)
Fe1A C34A H34A 126.0
C35A C34A Fe1A 70.3(4)
C35A C34A H34A 126.3
C35A C34A C33A 107.4(7)
C33A C34A Fe1A 69.0(4)
C33A C34A H34A 126.3
Fe1A C33A H33A 124.4
C32A C33A Fe1A 70.4(4)
C32A C33A C34A 107.6(7)
C32A C33A H33A 126.2
C34A C33A Fe1A 70.7(4)
C34A C33A H33A 126.2
N5B C26B C23B 176.0(12)
Fe1A C36A H36A 125.3
C35A C36A Fe1A 69.9(4)
C35A C36A H36A 126.8
C32A C36A Fe1A 69.7(4)
C32A C36A C35A 106.4(7)
C32A C36A H36A 126.8
loop_
_geom_bond_atom_site_label_1
_geom_bond_atom_site_label_2
_geom_bond_distance
Ag1A N3A 1.959(4)
Ag1A N4A 1.939(3)
Ag1A N1A 1.949(4)
Ag1A N2A 1.959(3)
Ag1 N1 1.929(3)
Ag1 N3 1.951(3)
Ag1 N2 1.978(4)
Ag1 N4 1.949(4)
Ag1B N3B 1.952(4)
Ag1B N2B 1.961(3)
Ag1B N4B 1.948(4)
Ag1B N1B 1.945(5)
Fe1B C27B 2.093(4)
Fe1B C28B 2.073(5)
Fe1B C31B 2.035(5)
Fe1B C29B 2.020(6)
Fe1B C35B 2.036(5)
Fe1B C34B 2.052(5)
Fe1B C33B 2.055(6)
Fe1B C36B 2.025(5)
Fe1B C32B 2.041(5)
Fe1B C30B 2.015(6)
Fe1A C27A 2.093(5)
Fe1A C28A 2.037(5)
Fe1A C31A 2.049(5)
Fe1A C30A 2.016(5)
Fe1A C29A 2.018(6)
Fe1A C35A 2.041(7)
Fe1A C32A 2.032(7)
Fe1A C34A 2.040(6)
Fe1A C33A 2.019(6)
Fe1A C36A 2.043(7)
Fe1 C27 2.102(5)
Fe1 C28 2.056(5)
Fe1 C31 2.029(5)
Fe1 C29 2.040(6)
Fe1 C34 2.046(6)
Fe1 C30 2.023(6)
Fe1 C36 2.055(6)
Fe1 C33 2.050(6)
Fe1 C35 2.052(6)
Fe1 C32 2.056(6)
N1 C4 1.380(5)
N1 C1 1.365(6)
N3A C11A 1.384(5)
N3A C14A 1.376(6)
N4A C16A 1.352(6)
N4A C19A 1.357(6)
N3 C14 1.411(5)
N3 C11 1.379(6)
N3B C11B 1.384(6)
N3B C14B 1.383(6)
N2 C9 1.357(6)
N2 C6 1.368(5)
N1A C4A 1.355(6)
N1A C1A 1.375(6)
N2B C9B 1.361(6)
N2B C6B 1.389(6)
N2A C9A 1.384(5)
N2A C6A 1.370(6)
N4 C16 1.366(5)
N4 C19 1.362(6)
N4B C16B 1.349(6)
N4B C19B 1.386(7)
N1B C4B 1.355(6)
N1B C1B 1.369(6)
C4 C5 1.406(7)
C4 C3 1.413(7)
C9 C10 1.435(6)
C9 C8 1.414(6)
C9B C10B 1.426(7)
C9B C8B 1.446(6)
C16 C15 1.429(6)
C16 C17 1.427(7)
C16A C15A 1.414(6)
C16A C17A 1.453(6)
C11B C10B 1.420(6)
C11B C12B 1.428(6)
C5A C20A 1.485(6)
C5A C6A 1.423(6)
C5A C4A 1.411(6)
C10 C27 1.475(6)
C10 C11 1.414(6)
C3A H3A 0.9300
C3A C4A 1.423(6)
C3A C2A 1.367(7)
C15A C14A 1.420(6)
C15A C37A 1.468(6)
C10A C9A 1.421(6)
C10A C11A 1.425(6)
C10A C27A 1.493(6)
C12 H12 0.9300
C12 C13 1.354(7)
C12 C11 1.423(6)
C9A C8A 1.440(6)
C13 H13 0.9300
C13 C14 1.430(6)
C20A C21A 1.391(7)
C20A C25A 1.401(7)
C15 C14 1.402(6)
C15 C37 1.479(6)
C11A C12A 1.418(7)
C1 C19 1.429(6)
C1 C2 1.426(6)
C6A C7A 1.434(6)
C14A C13A 1.441(7)
C27A C28A 1.421(7)
C27A C31A 1.421(7)
C16B C17B 1.446(7)
C16B C15B 1.392(7)
C37 C42 1.401(6)
C37 C38 1.397(6)
C20 C5 1.515(6)
C20 C25 1.369(6)
C20 C21 1.377(7)
C5 C6 1.406(6)
C27 C28 1.421(7)
C27 C31 1.429(6)
C37A C42A 1.395(6)
C37A C38A 1.397(6)
C14B C15B 1.429(6)
C14B C13B 1.426(7)
C17 H17 0.9300
C17 C18 1.375(7)
C6 C7 1.431(6)
C10B C27B 1.485(6)
C19 C18 1.402(6)
C12B H12B 0.9300
C12B C13B 1.353(6)
C42 H42 0.9300
C42 C41 1.374(6)
C19A C1A 1.407(7)
C19A C18A 1.423(6)
C2A H2A 0.9300
C2A C1A 1.417(7)
C6B C5B 1.391(7)
C6B C7B 1.451(6)
C27B C28B 1.421(7)
C27B C31B 1.427(7)
C17B H17B 0.9300
C17B C18B 1.367(8)
C3 H3 0.9300
C3 C2 1.376(7)
C37B C15B 1.483(7)
C37B C38B 1.400(6)
C37B C42B 1.395(7)
C2 H2 0.9300
C3B H3B 0.9300
C3B C4B 1.425(7)
C3B C2B 1.376(8)
C40 C41 1.394(7)
C40 C39 1.384(7)
C40 C43 1.449(7)
C5B C4B 1.406(7)
C5B C20B 1.494(7)
C28B H28B 0.9300
C28B C29B 1.428(8)
C18A H18A 0.9300
C18A C17A 1.365(7)
C17A H17A 0.9300
C8 H8 0.9300
C8 C7 1.353(7)
C8B H8B 0.9300
C8B C7B 1.343(7)
C18 H18 0.9300
C38 H38 0.9300
C38 C39 1.385(6)
C7A H7A 0.9300
C7A C8A 1.348(7)
C19B C18B 1.416(7)
C19B C1B 1.428(8)
C8A H8A 0.9300
C38B H38B 0.9300
C38B C39B 1.369(8)
C28A H28A 0.9300
C28A C29A 1.403(8)
C7B H7B 0.9300
C20B C25B 1.388(7)
C20B C21B 1.396(7)
C25 H25 0.9300
C25 C24 1.379(7)
C23 C24 1.378(7)
C23 C26 1.447(7)
C23 C22 1.369(7)
C13A H13A 0.9300
C13A C12A 1.357(7)
C41 H41 0.9300
C42A H42A 0.9300
C42A C41A 1.371(7)
C13B H13B 0.9300
C39 H39 0.9300
C7 H7 0.9300
C31A H31A 0.9300
C31A C30A 1.408(7)
C42B H42B 0.9300
C42B C41B 1.374(7)
C40A C39A 1.376(8)
C40A C41A 1.388(7)
C40A C43A 1.440(8)
C21A H21A 0.9300
C21A C22A 1.382(7)
C39A H39A 0.9300
C39A C38A 1.370(7)
C41A H41A 0.9300
C41B H41B 0.9300
C41B C40B 1.386(8)
C24A H24A 0.9300
C24A C25A 1.368(7)
C24A C23A 1.393(8)
C25A H25A 0.9300
C2B H2B 0.9300
C2B C1B 1.410(8)
C23A C22A 1.375(8)
C23A C26A 1.451(8)
C40B C39B 1.392(9)
C40B C43B 1.443(9)
C28 H28 0.9300
C28 C29 1.409(8)
C31B H31B 0.9300
C31B C30B 1.416(8)
N6 C43 1.137(7)
C24 H24 0.9300
C18B H18B 0.9300
C25B H25B 0.9300
C25B C24B 1.375(8)
N5 C26 1.135(7)
C38A H38A 0.9300
C12A H12A 0.9300
C30A H30A 0.9300
C30A C29A 1.394(9)
C22A H22A 0.9300
C29B H29B 0.9300
C29B C30B 1.402(9)
C39B H39B 0.9300
C31 H31 0.9300
C31 C30 1.403(8)
C35B H35B 0.9300
C35B C34B 1.407(9)
C35B C36B 1.406(9)
C34B H34B 0.9300
C34B C33B 1.382(9)
C33B H33B 0.9300
C33B C32B 1.405(9)
C29A H29A 0.9300
C36B H36B 0.9300
C36B C32B 1.391(10)
C24B H24B 0.9300
C24B C23B 1.381(9)
C21B H21B 0.9300
C21B C22B 1.378(8)
C23B C22B 1.397(9)
C23B C26B 1.436(9)
C29 H29 0.9300
C29 C30 1.422(9)
C32B H32B 0.9300
N5A C26A 1.137(8)
C43B N6B 1.135(8)
C21 H21 0.9300
C21 C22 1.383(7)
C34 H34 0.9300
C34 C33 1.403(10)
C34 C35 1.433(10)
C43A N6A 1.137(8)
C22B H22B 0.9300
C30 H30 0.9300
C30B H30B 0.9300
C36 H36 0.9300
C36 C35 1.392(9)
C36 C32 1.426(9)
C22 H22 0.9300
C33 H33 0.9300
C33 C32 1.400(10)
C35A H35A 0.9300
C35A C34A 1.379(11)
C35A C36A 1.400(11)
C35 H35 0.9300
C32 H32 0.9300
C32A H32A 0.9300
C32A C33A 1.394(11)
C32A C36A 1.387(12)
C34A H34A 0.9300
C34A C33A 1.399(11)
C33A H33A 0.9300
C26B N5B 1.134(9)
C36A H36A 0.9300
loop_
_smtbx_masks_void_nr
_smtbx_masks_void_average_x
_smtbx_masks_void_average_y
_smtbx_masks_void_average_z
_smtbx_masks_void_volume
_smtbx_masks_void_count_electrons
1 -0.388 -0.388 -0.888 1082.4 288.5
