#------------------------------------------------------------------------------
#$Date: 2019-01-11 01:25:39 +0200 (Fri, 11 Jan 2019) $
#$Revision: 212906 $
#$URL: file:///home/coder/svn-repositories/cod/cif/7/12/27/7122798.cif $
#------------------------------------------------------------------------------
#
# This file is available in the Crystallography Open Database (COD),
# http://www.crystallography.net/
#
# All data on this site have been placed in the public domain by the
# contributors.
#
data_7122798
loop_
_publ_author_name
'Kumar, Amit'
'Sil, Debangsu'
'Usman, Mohammad'
'Rath, Sankar Prasad'
_publ_section_title
;
 Dimanganese(III) porphyrin dication diradical and its transformation to a
 \m-hydroxo porphyrin-oxophlorin heterodimer
;
_journal_name_full               'Chemical Communications'
_journal_paper_doi               10.1039/C8CC09366K
_journal_year                    2019
_chemical_formula_sum            'C74 H92 Cl4 Mn2 N8 O18'
_chemical_formula_weight         1633.23
_chemical_name_systematic
;
 ?
;
_space_group_crystal_system      monoclinic
_space_group_IT_number           13
_space_group_name_Hall           '-P 2yac'
_space_group_name_H-M_alt        'P 1 2/n 1'
_symmetry_space_group_name_Hall  '-P 2yac'
_symmetry_space_group_name_H-M   'P 1 2/n 1'
_atom_sites_solution_hydrogens   mixed
_audit_creation_method           SHELXL-2014
_audit_update_record
;
2018-10-24 deposited with the CCDC.
2019-01-07 downloaded from the CCDC.
;
_cell_angle_alpha                90.000(5)
_cell_angle_beta                 95.489(5)
_cell_angle_gamma                90.000(5)
_cell_formula_units_Z            2
_cell_length_a                   19.481(5)
_cell_length_b                   9.679(5)
_cell_length_c                   22.850(5)
_cell_measurement_reflns_used    999
_cell_measurement_temperature    100(2)
_cell_measurement_theta_max      27.5
_cell_measurement_theta_min      2.5
_cell_volume                     4289(3)
_computing_cell_refinement       'Bruker SAINT'
_computing_data_collection       'Bruker APEX'
_computing_data_reduction        'Bruker SAINT'
_computing_molecular_graphics    'SHELXL 5.1, XP (Sheldrick, 1994)'
_computing_publication_material  SHELXL-97
_computing_structure_refinement  'SHELXL-2014 (Sheldrick, 2014)'
_computing_structure_solution    'SHELXS-97 (Sheldrick, 2008)'
_diffrn_ambient_temperature      100(2)
_diffrn_measured_fraction_theta_full 0.999
_diffrn_measured_fraction_theta_max 0.999
_diffrn_measurement_device_type  'Bruker SMART APEX'
_diffrn_measurement_method       \w
_diffrn_radiation_type           MoK\a
_diffrn_radiation_wavelength     0.71069
_diffrn_reflns_av_R_equivalents  0.0607
_diffrn_reflns_av_unetI/netI     0.0631
_diffrn_reflns_Laue_measured_fraction_full 0.999
_diffrn_reflns_Laue_measured_fraction_max 0.999
_diffrn_reflns_limit_h_max       22
_diffrn_reflns_limit_h_min       -23
_diffrn_reflns_limit_k_max       11
_diffrn_reflns_limit_k_min       -11
_diffrn_reflns_limit_l_max       27
_diffrn_reflns_limit_l_min       -27
_diffrn_reflns_number            30224
_diffrn_reflns_point_group_measured_fraction_full 0.999
_diffrn_reflns_point_group_measured_fraction_max 0.999
_diffrn_reflns_theta_full        25.500
_diffrn_reflns_theta_max         25.500
_diffrn_reflns_theta_min         2.100
_diffrn_source                   'fine-focus sealed tube'
_exptl_absorpt_coefficient_mu    0.485
_exptl_absorpt_correction_T_max  0.945
_exptl_absorpt_correction_T_min  0.910
_exptl_absorpt_correction_type   multi-scan
_exptl_absorpt_process_details   'SADABS 2.05 (Sheldrick, 2002)'
_exptl_crystal_colour            'dark brown'
_exptl_crystal_density_diffrn    1.265
_exptl_crystal_description       block
_exptl_crystal_F_000             1708
_exptl_crystal_size_max          0.220
_exptl_crystal_size_mid          0.160
_exptl_crystal_size_min          0.120
_refine_diff_density_max         0.510
_refine_diff_density_min         -0.351
_refine_diff_density_rms         0.068
_refine_ls_extinction_method     none
_refine_ls_goodness_of_fit_ref   1.025
_refine_ls_hydrogen_treatment    mixed
_refine_ls_matrix_type           full
_refine_ls_number_parameters     498
_refine_ls_number_reflns         7999
_refine_ls_number_restraints     1
_refine_ls_restrained_S_all      1.025
_refine_ls_R_factor_all          0.0878
_refine_ls_R_factor_gt           0.0528
_refine_ls_shift/su_max          0.001
_refine_ls_shift/su_mean         0.000
_refine_ls_structure_factor_coef Fsqd
_refine_ls_weighting_details
'w=1/[\s^2^(Fo^2^)+(0.0482P)^2^+4.3733P] where P=(Fo^2^+2Fc^2^)/3'
_refine_ls_weighting_scheme      calc
_refine_ls_wR_factor_gt          0.1091
_refine_ls_wR_factor_ref         0.1216
_reflns_Friedel_coverage         0.000
_reflns_number_gt                5560
_reflns_number_total             7999
_reflns_threshold_expression     'I > 2\s(I)'
_cod_data_source_file            c8cc09366k2.cif
_cod_data_source_block           shelx_CCDC2
_cod_database_code               7122798
_shelx_space_group_comment
;
The symmetry employed for this shelxl refinement is uniquely defined
by the following loop, which should always be used as a source of
symmetry information in preference to the above space-group names.
They are only intended as comments.
;
_shelx_estimated_absorpt_t_min   0.901
_shelx_estimated_absorpt_t_max   0.944
_shelxl_version_number           2014-3
_shelx_res_file
;
TITL 15nova_0m in P 2/n
CELL  0.71069  19.4810   9.6790  22.8500   90.000   95.489   90.000
ZERR     2.00   0.0050   0.0050   0.0050    0.005    0.005    0.005
LATT   1
SYMM  1/2 - X,   Y, 1/2 - Z
SFAC  C    H    N    O    CL   MN
UNIT  148  184  16   36   8    4
MERG   2
OMIT    -3.00  51.00
omit 2 0 2
omit -2 0 6
omit -4 1 5
omit 4 0 2
FMAP   2
PLAN   5
L.S. 4
TEMP -173.0
dfix 0.85 O1 H2
bond $H
htab o1 o8
EQIV $1 -x+3/2, y, -z+1/2
conf
bond $H
htab o1 o8
EQIV $1 -x+3/2, y, -z+1/2
HTAB O1 O7_$1
HTAB O1 O7_$1
size 0.22 0.16 0.12 ! dark brown block
acta 51
ABIN
WGHT    0.048200    4.373300
FVAR       0.09500   0.62108
MN1   6    0.928377    0.331298    0.162689    11.00000    0.02038    0.01763 =
         0.02721    0.01086    0.00696    0.00487
O1    4    0.843941    0.454445    0.192021    11.00000    0.02483    0.02479 =
         0.02928    0.00440    0.00336    0.00550
H1    2    0.837752    0.437642    0.226880    11.00000   -1.50000
H2    2    0.808645    0.455021    0.168064    11.00000   -1.50000
CL1   5    1.051301    0.073060    0.149697    11.00000    0.03328    0.02972 =
         0.06062    0.02235    0.02065    0.01692
O2    4    1.010868    0.191259    0.126387    11.00000    0.03253    0.02021 =
         0.04689    0.01941    0.01917    0.01492
O3    4    1.099871    0.118474    0.196304    11.00000    0.03183    0.08472 =
         0.08315    0.01125   -0.00588    0.01863
O4    4    1.085778    0.015297    0.102940    11.00000    0.04867    0.04343 =
         0.07845    0.02379    0.03917    0.02711
O5    4    1.005175   -0.026034    0.171189    11.00000    0.05624    0.02613 =
         0.07766    0.02700    0.03572    0.01262
N1    3    0.858463    0.212993    0.115301    11.00000    0.02112    0.01969 =
         0.02343    0.00748    0.00800    0.00735
N2    3    0.934219    0.454260    0.093702    11.00000    0.02299    0.02025 =
         0.03031    0.01266    0.01024    0.00884
N3    3    1.002409    0.438560    0.208192    11.00000    0.01830    0.02071 =
         0.03834    0.01370    0.00749    0.00588
N4    3    0.924824    0.202096    0.230664    11.00000    0.01882    0.01814 =
         0.02465    0.00963    0.00215    0.00089
C1    1    0.817176    0.115776    0.134552    11.00000    0.01832    0.02199 =
         0.02344    0.00246    0.00514    0.00793
C2    1    0.774819    0.051822    0.086682    11.00000    0.02398    0.02471 =
         0.02383   -0.00015    0.00532    0.00990
C3    1    0.792566    0.113431    0.036833    11.00000    0.02886    0.02558 =
         0.02398    0.00296    0.00737    0.01454
C4    1    0.842010    0.219348    0.053992    11.00000    0.02701    0.02474 =
         0.02344    0.00530    0.00882    0.01505
C5    1    0.863235    0.322281    0.019808    11.00000    0.03377    0.02934 =
         0.02255    0.01061    0.01184    0.01651
AFIX  43
H5A   2    0.850284    0.314777   -0.021219    11.00000   -1.20000
AFIX   0
C6    1    0.902190    0.438519    0.038393    11.00000    0.02641    0.02563 =
         0.03083    0.01597    0.01267    0.01244
C7    1    0.912319    0.557798    0.003061    11.00000    0.02662    0.03084 =
         0.03539    0.01804    0.01697    0.01621
C8    1    0.951670    0.647111    0.037853    11.00000    0.02860    0.02611 =
         0.03813    0.01985    0.02085    0.01555
C9    1    0.965651    0.583331    0.094441    11.00000    0.02525    0.02122 =
         0.04040    0.01363    0.01786    0.01131
C10   1    1.008914    0.632634    0.140620    11.00000    0.02520    0.01510 =
         0.04512    0.01171    0.01560    0.00771
AFIX  43
H10A  2    1.026385    0.723466    0.136723    11.00000   -1.20000
AFIX   0
C11   1    1.029634    0.563735    0.192144    11.00000    0.01770    0.01534 =
         0.04196    0.01056    0.01356    0.00644
C12   1    1.082276    0.607003    0.236289    11.00000    0.02432    0.01913 =
         0.04776    0.01030    0.01396    0.00487
C13   1    1.087212    0.507446    0.279095    11.00000    0.02085    0.01984 =
         0.04677    0.01187    0.00563    0.00273
C14   1    1.037301    0.405026    0.260556    11.00000    0.01808    0.02382 =
         0.04505    0.01038    0.00033   -0.00096
C15   1    1.025342    0.282408    0.292037    11.00000    0.02479    0.03218 =
         0.04297    0.01775   -0.00760   -0.00210
AFIX  43
H15A  2    1.055409    0.265011    0.326476    11.00000   -1.20000
AFIX   0
C16   1    0.975280    0.187574    0.277874    11.00000    0.02347    0.02732 =
         0.03438    0.01231   -0.00086   -0.00703
C17   1    0.962754    0.061265    0.309164    11.00000    0.02727    0.02741 =
         0.03745    0.01700   -0.00422   -0.00422
C18   1    0.904542    0.004393    0.281863    11.00000    0.02105    0.02120 =
         0.02599    0.00560    0.00399    0.00072
C19   1    0.881200    0.096967    0.235111    11.00000    0.01721    0.01838 =
         0.02097    0.00374    0.00753    0.00296
C20   1    0.816823    0.088082    0.197104    11.00000    0.02186    0.01443 =
         0.02244    0.00222    0.00628    0.00456
C21   1    0.725761   -0.065810    0.090487    11.00000    0.03654    0.03474 =
         0.01910   -0.00678    0.00298   -0.00315
AFIX  23
H21A  2    0.701750   -0.082625    0.050963    11.00000   -1.20000
H21B  2    0.690507   -0.039103    0.116836    11.00000   -1.20000
AFIX   0
C22   1    0.759745   -0.199569    0.113017    11.00000    0.04666    0.02899 =
         0.03555   -0.00044    0.01331   -0.00306
AFIX 137
H22A  2    0.724537   -0.271418    0.114659    11.00000   -1.50000
H22B  2    0.782998   -0.184600    0.152461    11.00000   -1.50000
H22C  2    0.793594   -0.228856    0.086445    11.00000   -1.50000
AFIX   0
C23   1    0.764620    0.087152   -0.025546    11.00000    0.04747    0.03952 =
         0.02139    0.00364    0.00341    0.01541
AFIX  23
H23A  2    0.749879   -0.010524   -0.029713    11.00000   -1.20000
H23B  2    0.801582    0.102641   -0.051690    11.00000   -1.20000
AFIX   0
C24   1    0.704036    0.180182   -0.044498    11.00000    0.08515    0.09068 =
         0.03762   -0.00698   -0.02322    0.04877
AFIX 137
H24A  2    0.689157    0.164124   -0.086131    11.00000   -1.50000
H24B  2    0.717865    0.276959   -0.038766    11.00000   -1.50000
H24C  2    0.665882    0.159663   -0.020862    11.00000   -1.50000
AFIX   0
C25   1    0.882347    0.576116   -0.058939    11.00000    0.03759    0.04119 =
         0.03926    0.02228    0.01711    0.01318
AFIX  23
H25A  2    0.884672    0.487143   -0.080031    11.00000   -1.20000
H25B  2    0.910320    0.644282   -0.078563    11.00000   -1.20000
AFIX   0
C26   1    0.807486    0.625202   -0.063201    11.00000    0.04511    0.05717 =
         0.06174    0.02522    0.00641    0.02427
AFIX 137
H26A  2    0.790229    0.636484   -0.104635    11.00000   -1.50000
H26B  2    0.804943    0.713872   -0.042816    11.00000   -1.50000
H26C  2    0.779274    0.556732   -0.044886    11.00000   -1.50000
AFIX   0
C27   1    0.975487    0.789146    0.022620    11.00000    0.03888    0.02705 =
         0.04737    0.02216    0.02232    0.01491
AFIX  23
H27A  2    0.982359    0.792395   -0.019729    11.00000   -1.20000
H27B  2    1.020409    0.808439    0.045179    11.00000   -1.20000
AFIX   0
C28   1    0.923878    0.900181    0.036122    11.00000    0.04337    0.02990 =
         0.06682    0.02311    0.02702    0.01947
AFIX 137
H28A  2    0.941553    0.991135    0.026159    11.00000   -1.50000
H28B  2    0.917095    0.897592    0.078055    11.00000   -1.50000
H28C  2    0.879782    0.883250    0.012839    11.00000   -1.50000
AFIX   0
C29   1    1.124890    0.736543    0.233891    11.00000    0.03083    0.01638 =
         0.05694    0.01081    0.00698   -0.00205
AFIX  23
H29A  2    1.148518    0.755059    0.273415    11.00000   -1.20000
H29B  2    1.093948    0.815525    0.223102    11.00000   -1.20000
AFIX   0
C30   1    1.178784    0.725971    0.189600    11.00000    0.03724    0.03644 =
         0.07171    0.00672    0.01863   -0.01408
AFIX 137
H30A  2    1.206371    0.810774    0.190880    11.00000   -1.50000
H30B  2    1.155530    0.713635    0.149985    11.00000   -1.50000
H30C  2    1.208977    0.646730    0.199561    11.00000   -1.50000
AFIX   0
C31   1    1.130188    0.507882    0.336360    11.00000    0.03386    0.01944 =
         0.05745    0.01166   -0.00620   -0.01007
AFIX  23
H31A  2    1.171987    0.564378    0.332979    11.00000   -1.20000
H31B  2    1.145105    0.412350    0.346484    11.00000   -1.20000
AFIX   0
C32   1    1.090578    0.565927    0.385145    11.00000    0.05686    0.02808 =
         0.06238   -0.00536   -0.00427   -0.00832
AFIX 137
H32A  2    1.120476    0.566601    0.422159    11.00000   -1.50000
H32B  2    1.050089    0.508115    0.389527    11.00000   -1.50000
H32C  2    1.075674    0.660427    0.375148    11.00000   -1.50000
AFIX   0
C33   1    1.008160    0.008629    0.360395    11.00000    0.04743    0.04962 =
         0.06218    0.04004   -0.02363   -0.02646
part 1
AFIX   1
H33A  2    1.053780    0.045470    0.358540    21.00000   -1.20000
H33B  2    1.012030   -0.090750    0.356450    21.00000   -1.20000

AFIX   0
C34   1    0.988187    0.034345    0.413420    21.00000    0.07676    0.13022 =
         0.03829    0.00604   -0.00592    0.03841
AFIX 137
H34D  2    1.018068   -0.015712    0.443184    21.00000   -1.50000
H34E  2    0.940377    0.003936    0.414741    21.00000   -1.50000
H34F  2    0.991410    0.133743    0.421376    21.00000   -1.50000
AFIX   1
part 2
H33C  2    0.986190   -0.072280    0.374710   -21.00000   -1.20000
H33D  2    1.009240    0.076320    0.390780   -21.00000   -1.20000

AFIX   0
C34A  1    1.070502   -0.027784    0.355387   -21.00000    0.03278
AFIX 137
H34A  2    1.093956   -0.046576    0.394446   -21.00000   -1.50000
H34B  2    1.094536    0.046724    0.336675   -21.00000   -1.50000
H34C  2    1.070737   -0.111374    0.331205   -21.00000   -1.50000
AFIX   0
part 0

C35   1    0.877663   -0.138548    0.291259    11.00000    0.02206    0.02100 =
         0.02648    0.00694    0.00360   -0.00057
AFIX  23
H35A  2    0.827462   -0.141132    0.279359    11.00000   -1.20000
H35B  2    0.885042   -0.162235    0.333541    11.00000   -1.20000
AFIX   0
C36   1    0.913943   -0.244635    0.255698    11.00000    0.03899    0.02841 =
         0.04897    0.00372    0.01517    0.00082
AFIX 137
H36A  2    0.896603   -0.337211    0.263508    11.00000   -1.50000
H36B  2    0.963719   -0.241113    0.267020    11.00000   -1.50000
H36C  2    0.904829   -0.223777    0.213705    11.00000   -1.50000
AFIX   0
C37   1    0.754807    0.074624    0.219590    11.00000    0.02221    0.01207 =
         0.02416   -0.00213    0.00095    0.00072
AFIX  43
H37A  2    0.714996    0.064474    0.192499    11.00000   -1.20000
AFIX   0
CL2   5    0.833469    0.389310    0.362717    11.00000    0.02906    0.03326 =
         0.03111    0.00382   -0.00097   -0.00626
O6    4    0.887768    0.486372    0.367439    11.00000    0.05102    0.08243 =
         0.07189    0.00073   -0.00127   -0.04295
O7    4    0.776274    0.438103    0.392157    11.00000    0.04926    0.04411 =
         0.03743   -0.01021    0.01130   -0.00215
O8    4    0.809290    0.369102    0.302051    11.00000    0.04935    0.05999 =
         0.02947   -0.00173    0.00429   -0.01035
O9    4    0.855198    0.258340    0.386127    11.00000    0.05075    0.05276 =
         0.08322    0.02762   -0.00017    0.01363

HKLF    4

REM  15nova_0m in P 2/n
REM R1 =  0.0528 for    5560 Fo > 4sig(Fo)  and  0.0878 for all    7999 data
REM    498 parameters refined using      1 restraints

END

WGHT      0.0482      4.3684

REM Highest difference peak  0.510,  deepest hole -0.351,  1-sigma level  0.068
Q1    1   0.9590  0.3233  0.2009  11.00000  0.05    0.51
Q2    1   0.6362 -0.2465 -0.0388  11.00000  0.05    0.45
Q3    1   0.8780  0.3673  0.4121  11.00000  0.05    0.45
Q4    1   0.8074  0.4720  0.3058  11.00000  0.05    0.40
Q5    1   0.8836  0.3327  0.1295  11.00000  0.05    0.38
;
_shelx_res_checksum              97604
_shelx_fab_file
;
    2    0    0    -16.61      0.00
    4    0    0     38.18      0.00
    6    0    0      2.40      0.00
    8    0    0     59.52      0.00
   10    0    0     -2.20      0.00
   12    0    0    -10.88      0.00
   14    0    0     22.67      0.00
   16    0    0     12.19      0.00
   18    0    0    -15.92      0.00
   20    0    0      4.01      0.00
   22    0    0      4.13      0.00
    1    1    0   -132.87      0.00
    2    1    0    -44.70      0.00
    3    1    0     -8.01      0.00
    4    1    0      2.67      0.00
    5    1    0     -3.43      0.00
    6    1    0     -1.16      0.00
    7    1    0     32.69      0.00
    8    1    0    -18.76      0.00
    9    1    0    -35.56      0.00
   10    1    0      8.26      0.00
   11    1    0      2.44      0.00
   12    1    0    -16.75      0.00
   13    1    0     24.67      0.00
   14    1    0      4.87      0.00
   15    1    0      2.46      0.00
   16    1    0     -4.18      0.00
   17    1    0    -13.43      0.00
   18    1    0      1.58      0.00
   19    1    0     12.57      0.00
   20    1    0      1.03      0.00
   21    1    0      5.63      0.00
   22    1    0     -3.58      0.00
   23    1    0      1.00      0.00
    0    2    0   -123.21      0.00
    1    2    0     -1.18      0.00
    2    2    0    -28.52      0.00
    3    2    0     27.73      0.00
    4    2    0      5.51      0.00
    5    2    0      2.21      0.00
    6    2    0    -16.92      0.00
    7    2    0    -17.35      0.00
    8    2    0    -54.60      0.00
    9    2    0     14.32      0.00
   10    2    0     18.82      0.00
   11    2    0    -20.79      0.00
   12    2    0      3.33      0.00
   13    2    0     10.10      0.00
   14    2    0    -10.68      0.00
   15    2    0     -7.75      0.00
   16    2    0    -14.59      0.00
   17    2    0      2.07      0.00
   18    2    0     12.43      0.00
   19    2    0     -3.17      0.00
   20    2    0      1.01      0.00
   21    2    0     -3.59      0.00
   22    2    0     -7.10      0.00
   23    2    0      4.00      0.00
    0    3    0     63.23      0.00
    1    3    0     10.97      0.00
    2    3    0     28.36      0.00
    3    3    0     43.96      0.00
    4    3    0     24.56      0.00
    5    3    0    -30.06      0.00
    6    3    0      5.28      0.00
    7    3    0    -11.53      0.00
    8    3    0     29.17      0.00
    9    3    0     41.12      0.00
   10    3    0     -2.24      0.00
   11    3    0    -10.14      0.00
   12    3    0     17.33      0.00
   13    3    0    -11.60      0.00
   14    3    0      1.85      0.00
   15    3    0     -8.05      0.00
   16    3    0      5.44      0.00
   17    3    0     12.36      0.00
   18    3    0     -3.98      0.00
   19    3    0     -5.33      0.00
   20    3    0      2.03      0.00
   21    3    0    -11.75      0.00
   22    3    0      2.58      0.00
    0    4    0     13.60      0.00
    1    4    0    -37.45      0.00
    2    4    0     31.36      0.00
    3    4    0     12.64      0.00
    4    4    0    -38.45      0.00
    5    4    0    -13.75      0.00
    6    4    0     22.78      0.00
    7    4    0     11.64      0.00
    8    4    0     23.76      0.00
    9    4    0     -6.27      0.00
   10    4    0    -20.36      0.00
   11    4    0      6.55      0.00
   12    4    0    -11.86      0.00
   13    4    0      5.58      0.00
   14    4    0      4.98      0.00
   15    4    0      1.22      0.00
   16    4    0      8.41      0.00
   17    4    0     -1.17      0.00
   18    4    0     -8.07      0.00
   19    4    0      8.48      0.00
   20    4    0     -4.59      0.00
   21    4    0      0.26      0.00
   22    4    0      8.07      0.00
    0    5    0    -67.06      0.00
    1    5    0     -2.92      0.00
    2    5    0      6.87      0.00
    3    5    0    -30.46      0.00
    4    5    0    -34.48      0.00
    5    5    0     29.89      0.00
    6    5    0     -6.25      0.00
    7    5    0     -7.55      0.00
    8    5    0    -16.89      0.00
    9    5    0    -16.98      0.00
   10    5    0     -4.96      0.00
   11    5    0    -10.01      0.00
   12    5    0     -0.66      0.00
   13    5    0     19.07      0.00
   14    5    0     -7.81      0.00
   15    5    0     -2.74      0.00
   16    5    0     -1.07      0.00
   17    5    0     -7.59      0.00
   18    5    0      5.49      0.00
   19    5    0      0.91      0.00
   20    5    0     -4.91      0.00
   21    5    0      7.30      0.00
    0    6    0    -11.09      0.00
    1    6    0     24.65      0.00
    2    6    0      4.14      0.00
    3    6    0    -11.86      0.00
    4    6    0     32.06      0.00
    5    6    0      6.55      0.00
    6    6    0    -11.11      0.00
    7    6    0     -2.77      0.00
    8    6    0      3.84      0.00
    9    6    0      5.53      0.00
   10    6    0      1.83      0.00
   11    6    0     -2.30      0.00
   12    6    0     27.35      0.00
   13    6    0     -6.77      0.00
   14    6    0    -13.03      0.00
   15    6    0      0.77      0.00
   16    6    0      0.36      0.00
   17    6    0      1.27      0.00
   18    6    0      3.94      0.00
   19    6    0     -6.46      0.00
   20    6    0      3.57      0.00
    0    7    0     15.79      0.00
    1    7    0     13.33      0.00
    2    7    0      6.47      0.00
    3    7    0     12.80      0.00
    4    7    0      5.43      0.00
    5    7    0    -15.69      0.00
    6    7    0      6.81      0.00
    7    7    0      7.79      0.00
    8    7    0      8.49      0.00
    9    7    0      4.24      0.00
   10    7    0     -5.37      0.00
   11    7    0     17.69      0.00
   12    7    0      1.49      0.00
   13    7    0    -17.74      0.00
   14    7    0      2.92      0.00
   15    7    0      7.94      0.00
   16    7    0      0.66      0.00
   17    7    0      2.93      0.00
   18    7    0     -3.84      0.00
    0    8    0      4.32      0.00
    1    8    0      5.63      0.00
    2    8    0     -6.78      0.00
    3    8    0     -9.31      0.00
    4    8    0    -21.18      0.00
    5    8    0      5.22      0.00
    6    8    0      1.19      0.00
    7    8    0     -1.90      0.00
    8    8    0     -2.61      0.00
    9    8    0     -8.32      0.00
   10    8    0     -1.56      0.00
   11    8    0      5.08      0.00
   12    8    0    -17.07      0.00
   13    8    0      0.61      0.00
   14    8    0      5.21      0.00
   15    8    0     -0.02      0.00
   16    8    0     -1.39      0.00
   17    8    0     -2.81      0.00
    0    9    0      7.42      0.00
    1    9    0     -3.39      0.00
    2    9    0    -11.22      0.00
    3    9    0     -9.09      0.00
    4    9    0      8.65      0.00
    5    9    0      7.38      0.00
    6    9    0     -5.45      0.00
    7    9    0      0.76      0.00
    8    9    0     -0.85      0.00
    9    9    0     -7.98      0.00
   10    9    0      5.17      0.00
   11    9    0     -6.11      0.00
   12    9    0      1.12      0.00
   13    9    0      2.19      0.00
   14    9    0     -0.90      0.00
   15    9    0     -0.94      0.00
    0   10    0      1.80      0.00
    1   10    0     -6.54      0.00
    2   10    0     -0.35      0.00
    3   10    0      8.74      0.00
    4   10    0     11.69      0.00
    5   10    0     -5.66      0.00
    6   10    0      3.51      0.00
    7   10    0      6.39      0.00
    8   10    0     -3.54      0.00
    9   10    0      1.07      0.00
   10   10    0      5.73      0.00
   11   10    0      3.91      0.00
   12   10    0      3.11      0.00
    0   11    0     -2.47      0.00
    1   11    0     -0.35      0.00
    2   11    0      1.78      0.00
    3   11    0      3.84      0.00
    4   11    0     -5.32      0.00
    5   11    0     -3.37      0.00
    6   11    0      2.55      0.00
    7   11    0     -2.43      0.00
    8   11    0     -5.02      0.00
  -23    0    1     -9.40      0.00
  -21    0    1     -0.94      0.00
  -19    0    1      0.54      0.00
  -17    0    1     12.16      0.00
  -15    0    1    -24.84      0.00
  -13    0    1    -14.02      0.00
  -11    0    1     12.59      0.00
   -9    0    1    -19.32      0.00
   -7    0    1    -69.50      0.00
   -5    0    1     15.18      0.00
   -3    0    1    -60.90      0.00
    3    0    1     74.48      0.00
    5    0    1    -35.52      0.00
    7    0    1    -17.15      0.00
    9    0    1    -41.63      0.00
   11    0    1     17.82      0.00
   13    0    1      0.73      0.00
   15    0    1    -23.78      0.00
   17    0    1      0.25      0.00
   19    0    1     13.87      0.00
   21    0    1     -8.37      0.00
   23    0    1     -2.93      0.00
  -23    1    1     -0.89      0.00
  -22    1    1      6.35      0.00
  -21    1    1      4.45      0.00
  -20    1    1      7.91      0.00
  -19    1    1     -2.88      0.00
  -18    1    1      6.28      0.00
  -17    1    1     -0.84      0.00
  -16    1    1    -16.92      0.00
  -15    1    1      6.48      0.00
  -14    1    1     14.24      0.00
  -13    1    1     -4.20      0.00
  -12    1    1     18.56      0.00
  -11    1    1     20.02      0.00
  -10    1    1    -13.98      0.00
   -9    1    1    -10.17      0.00
   -8    1    1    -30.08      0.00
   -7    1    1     22.42      0.00
   -6    1    1     48.99      0.00
   -5    1    1     -2.48      0.00
   -4    1    1    -30.08      0.00
   -3    1    1      9.19      0.00
   -2    1    1    -28.80      0.00
   -1    1    1     55.47      0.00
    0    1    1    -70.27      0.00
    1    1    1     10.66      0.00
    2    1    1    153.03      0.00
    3    1    1     32.47      0.00
    4    1    1    -27.06      0.00
    5    1    1     -9.16      0.00
    6    1    1     -9.87      0.00
    7    1    1      5.66      0.00
    8    1    1    -13.53      0.00
    9    1    1     14.86      0.00
   10    1    1     30.86      0.00
   11    1    1     -7.30      0.00
   12    1    1    -19.26      0.00
   13    1    1     14.10      0.00
   14    1    1    -20.91      0.00
   15    1    1     -6.07      0.00
   16    1    1      6.19      0.00
   17    1    1      2.52      0.00
   18    1    1      6.38      0.00
   19    1    1     -1.14      0.00
   20    1    1    -14.61      0.00
   21    1    1      0.26      0.00
   22    1    1     -1.42      0.00
   23    1    1      2.10      0.00
  -23    2    1      5.89      0.00
  -22    2    1      3.45      0.00
  -21    2    1      6.18      0.00
  -20    2    1     -6.06      0.00
  -19    2    1     -6.70      0.00
  -18    2    1     -1.34      0.00
  -17    2    1     -7.56      0.00
  -16    2    1      3.65      0.00
  -15    2    1     23.05      0.00
  -14    2    1     -9.04      0.00
  -13    2    1      2.68      0.00
  -12    2    1     11.11      0.00
  -11    2    1     -6.11      0.00
  -10    2    1    -23.40      0.00
   -9    2    1     -0.81      0.00
   -8    2    1     18.72      0.00
   -7    2    1     68.88      0.00
   -6    2    1    -20.23      0.00
   -5    2    1     -1.60      0.00
   -4    2    1     16.37      0.00
   -3    2    1      7.30      0.00
   -2    2    1     27.39      0.00
   -1    2    1     68.32      0.00
    0    2    1    -17.41      0.00
    1    2    1    105.47      0.00
    2    2    1     -3.64      0.00
    3    2    1    -11.58      0.00
    4    2    1    -21.54      0.00
    5    2    1     -1.69      0.00
    6    2    1      8.89      0.00
    7    2    1     29.40      0.00
    8    2    1     12.73      0.00
    9    2    1     32.14      0.00
   10    2    1    -10.82      0.00
   11    2    1    -27.82      0.00
   12    2    1     18.73      0.00
   13    2    1      5.44      0.00
   14    2    1     -9.82      0.00
   15    2    1     12.90      0.00
   16    2    1      7.35      0.00
   17    2    1      5.29      0.00
   18    2    1      0.06      0.00
   19    2    1    -12.02      0.00
   20    2    1      2.48      0.00
   21    2    1      3.58      0.00
   22    2    1      1.22      0.00
   23    2    1      5.63      0.00
  -22    3    1     -1.21      0.00
  -21    3    1     -2.80      0.00
  -20    3    1    -14.75      0.00
  -19    3    1     -0.28      0.00
  -18    3    1      1.45      0.00
  -17    3    1      2.72      0.00
  -16    3    1     12.79      0.00
  -15    3    1    -10.18      0.00
  -14    3    1    -16.45      0.00
  -13    3    1     -3.53      0.00
  -12    3    1     -6.72      0.00
  -11    3    1    -20.31      0.00
  -10    3    1      5.16      0.00
   -9    3    1      0.45      0.00
   -8    3    1     39.25      0.00
   -7    3    1    -35.37      0.00
   -6    3    1    -31.81      0.00
   -5    3    1     -2.67      0.00
   -4    3    1    -14.73      0.00
   -3    3    1    -36.19      0.00
   -2    3    1     52.45      0.00
   -1    3    1    -40.95      0.00
    0    3    1    -14.12      0.00
    1    3    1    -54.94      0.00
    2    3    1    -25.90      0.00
    3    3    1    -14.74      0.00
    4    3    1    -23.22      0.00
    5    3    1    -17.13      0.00
    6    3    1     34.01      0.00
    7    3    1     -7.73      0.00
    8    3    1     -8.54      0.00
    9    3    1    -22.30      0.00
   10    3    1    -30.69      0.00
   11    3    1      3.82      0.00
   12    3    1     22.98      0.00
   13    3    1    -14.96      0.00
   14    3    1      9.06      0.00
   15    3    1      0.81      0.00
   16    3    1      1.05      0.00
   17    3    1     -1.46      0.00
   18    3    1     -8.17      0.00
   19    3    1      2.07      0.00
   20    3    1      9.09      0.00
   21    3    1     -2.19      0.00
   22    3    1      7.86      0.00
  -22    4    1      2.77      0.00
  -21    4    1     -8.44      0.00
  -20    4    1      1.36      0.00
  -19    4    1      9.99      0.00
  -18    4    1      7.79      0.00
  -17    4    1      3.81      0.00
  -16    4    1     -4.52      0.00
  -15    4    1    -12.76      0.00
  -14    4    1      3.69      0.00
  -13    4    1      3.03      0.00
  -12    4    1      5.45      0.00
  -11    4    1     16.84      0.00
  -10    4    1      3.23      0.00
   -9    4    1      5.94      0.00
   -8    4    1     -7.70      0.00
   -7    4    1    -34.35      0.00
   -6    4    1     13.03      0.00
   -5    4    1     -7.23      0.00
   -4    4    1    -18.28      0.00
   -3    4    1     34.31      0.00
   -2    4    1      9.40      0.00
   -1    4    1    -48.36      0.00
    0    4    1    -26.61      0.00
    1    4    1     -8.16      0.00
    2    4    1     41.41      0.00
    3    4    1    -12.30      0.00
    4    4    1    -18.80      0.00
    5    4    1     31.93      0.00
    6    4    1     10.77      0.00
    7    4    1    -32.14      0.00
    8    4    1    -10.39      0.00
    9    4    1     -6.65      0.00
   10    4    1      3.48      0.00
   11    4    1     26.03      0.00
   12    4    1     -9.24      0.00
   13    4    1      2.05      0.00
   14    4    1     -3.98      0.00
   15    4    1     -8.26      0.00
   16    4    1     -0.25      0.00
   17    4    1     -2.58      0.00
   18    4    1     -3.05      0.00
   19    4    1      8.68      0.00
   20    4    1     -6.25      0.00
   21    4    1     -0.19      0.00
  -21    5    1      0.34      0.00
  -20    5    1      9.25      0.00
  -19    5    1      4.74      0.00
  -18    5    1     -4.52      0.00
  -17    5    1     -6.31      0.00
  -16    5    1     -7.12      0.00
  -15    5    1      7.27      0.00
  -14    5    1      4.40      0.00
  -13    5    1      8.32      0.00
  -12    5    1     15.85      0.00
  -11    5    1      0.70      0.00
  -10    5    1    -23.28      0.00
   -9    5    1     11.50      0.00
   -8    5    1    -11.02      0.00
   -7    5    1     21.20      0.00
   -6    5    1      4.14      0.00
   -5    5    1      8.57      0.00
   -4    5    1     23.94      0.00
   -3    5    1     35.80      0.00
   -2    5    1    -37.63      0.00
   -1    5    1      1.81      0.00
    0    5    1     12.04      0.00
    1    5    1     62.73      0.00
    2    5    1     11.04      0.00
    3    5    1    -15.61      0.00
    4    5    1     17.91      0.00
    5    5    1     33.77      0.00
    6    5    1    -28.94      0.00
    7    5    1      2.55      0.00
    8    5    1     19.14      0.00
    9    5    1     11.81      0.00
   10    5    1     13.98      0.00
   11    5    1      0.54      0.00
   12    5    1     -2.76      0.00
   13    5    1      1.80      0.00
   14    5    1    -15.62      0.00
   15    5    1      5.16      0.00
   16    5    1      8.44      0.00
   17    5    1     -3.72      0.00
   18    5    1      5.20      0.00
   19    5    1     -2.21      0.00
   20    5    1     -4.71      0.00
   21    5    1      3.97      0.00
  -20    6    1     -1.10      0.00
  -19    6    1     -6.57      0.00
  -18    6    1     -5.74      0.00
  -17    6    1     -2.33      0.00
  -16    6    1      4.61      0.00
  -15    6    1      1.51      0.00
  -14    6    1     -2.58      0.00
  -13    6    1      5.37      0.00
  -12    6    1     -6.38      0.00
  -11    6    1    -33.58      0.00
  -10    6    1      2.81      0.00
   -9    6    1      9.95      0.00
   -8    6    1      4.92      0.00
   -7    6    1     -3.99      0.00
   -6    6    1     -4.33      0.00
   -5    6    1      3.92      0.00
   -4    6    1      6.09      0.00
   -3    6    1    -34.18      0.00
   -2    6    1     -8.95      0.00
   -1    6    1      9.33      0.00
    0    6    1     18.72      0.00
    1    6    1      6.70      0.00
    2    6    1    -26.78      0.00
    3    6    1    -15.80      0.00
    4    6    1     15.62      0.00
    5    6    1    -24.00      0.00
    6    6    1     -7.97      0.00
    7    6    1     15.86      0.00
    8    6    1      2.17      0.00
    9    6    1     -8.51      0.00
   10    6    1     -3.42      0.00
   11    6    1     -8.58      0.00
   12    6    1      6.55      0.00
   13    6    1    -16.56      0.00
   14    6    1      4.72      0.00
   15    6    1     16.49      0.00
   16    6    1     -2.07      0.00
   17    6    1     -3.56      0.00
   18    6    1      2.65      0.00
   19    6    1     -4.42      0.00
   20    6    1      5.11      0.00
  -18    7    1      2.52      0.00
  -17    7    1      3.51      0.00
  -16    7    1      2.98      0.00
  -15    7    1     -4.10      0.00
  -14    7    1      3.66      0.00
  -13    7    1     -1.80      0.00
  -12    7    1    -15.83      0.00
  -11    7    1     -0.06      0.00
  -10    7    1     26.35      0.00
   -9    7    1      0.58      0.00
   -8    7    1     -2.78      0.00
   -7    7    1    -12.35      0.00
   -6    7    1      3.85      0.00
   -5    7    1     -6.05      0.00
   -4    7    1    -14.08      0.00
   -3    7    1     -6.39      0.00
   -2    7    1     19.43      0.00
   -1    7    1    -10.27      0.00
    0    7    1      2.21      0.00
    1    7    1    -13.74      0.00
    2    7    1    -18.92      0.00
    3    7    1     -1.98      0.00
    4    7    1     -3.55      0.00
    5    7    1     -5.81      0.00
    6    7    1     13.81      0.00
    7    7    1     -5.67      0.00
    8    7    1    -12.97      0.00
    9    7    1     -3.26      0.00
   10    7    1     -5.99      0.00
   11    7    1      7.00      0.00
   12    7    1     -8.38      0.00
   13    7    1     -3.88      0.00
   14    7    1     15.32      0.00
   15    7    1     -1.77      0.00
   16    7    1    -11.51      0.00
   17    7    1      2.13      0.00
   18    7    1     -2.13      0.00
  -17    8    1      1.31      0.00
  -16    8    1     -3.48      0.00
  -15    8    1      1.79      0.00
  -14    8    1      2.03      0.00
  -13    8    1     -0.71      0.00
  -12    8    1      0.74      0.00
  -11    8    1     19.76      0.00
  -10    8    1      1.56      0.00
   -9    8    1     -3.98      0.00
   -8    8    1     -8.75      0.00
   -7    8    1      4.06      0.00
   -6    8    1      2.08      0.00
   -5    8    1      2.97      0.00
   -4    8    1      3.52      0.00
   -3    8    1     22.20      0.00
   -2    8    1     -9.14      0.00
   -1    8    1     -1.48      0.00
    0    8    1      8.86      0.00
    1    8    1     -2.02      0.00
    2    8    1     -3.68      0.00
    3    8    1     13.88      0.00
    4    8    1      7.51      0.00
    5    8    1     16.66      0.00
    6    8    1     -5.06      0.00
    7    8    1     -5.45      0.00
    8    8    1      5.28      0.00
    9    8    1      3.98      0.00
   10    8    1      4.83      0.00
   11    8    1      5.35      0.00
   12    8    1     -7.19      0.00
   13    8    1     11.48      0.00
   14    8    1      1.00      0.00
   15    8    1     -7.88      0.00
   16    8    1      1.33      0.00
   17    8    1      1.68      0.00
  -15    9    1      1.45      0.00
  -14    9    1     -0.02      0.00
  -13    9    1      0.29      0.00
  -12    9    1     -0.14      0.00
  -11    9    1     -2.48      0.00
  -10    9    1     -8.09      0.00
   -9    9    1     -2.72      0.00
   -8    9    1     -5.48      0.00
   -7    9    1      3.62      0.00
   -6    9    1      3.73      0.00
   -5    9    1      3.45      0.00
   -4    9    1      4.76      0.00
   -3    9    1     -7.29      0.00
   -2    9    1    -11.22      0.00
   -1    9    1     12.81      0.00
    0    9    1      1.85      0.00
    1    9    1     -8.07      0.00
    2    9    1      6.44      0.00
    3    9    1      9.14      0.00
    4    9    1      5.10      0.00
    5    9    1     -8.63      0.00
    6    9    1     -8.93      0.00
    7    9    1      6.38      0.00
    8    9    1      3.87      0.00
    9    9    1     -3.07      0.00
   10    9    1      8.30      0.00
   11    9    1     -5.30      0.00
   12    9    1      2.75      0.00
   13    9    1      0.79      0.00
   14    9    1     -2.66      0.00
  -12   10    1     -2.96      0.00
  -11   10    1     -2.70      0.00
  -10   10    1      6.69      0.00
   -9   10    1     -5.50      0.00
   -8   10    1      0.06      0.00
   -7   10    1      3.55      0.00
   -6   10    1      5.45      0.00
   -5   10    1     -6.79      0.00
   -4   10    1     -5.91      0.00
   -3   10    1    -10.19      0.00
   -2   10    1      8.76      0.00
   -1   10    1      3.32      0.00
    0   10    1     -8.47      0.00
    1   10    1     -2.68      0.00
    2   10    1      5.12      0.00
    3   10    1     -3.18      0.00
    4   10    1     -7.99      0.00
    5   10    1    -11.22      0.00
    6   10    1      5.17      0.00
    7   10    1      0.47      0.00
    8   10    1     -7.51      0.00
    9   10    1      2.56      0.00
   10   10    1     -0.46      0.00
   11   10    1     -5.98      0.00
   12   10    1     -1.37      0.00
   -8   11    1      2.09      0.00
   -7   11    1      6.00      0.00
   -6   11    1     -3.20      0.00
   -5   11    1     -3.25      0.00
   -4   11    1     -1.96      0.00
   -3   11    1      6.12      0.00
   -2   11    1      4.52      0.00
   -1   11    1     -2.77      0.00
    0   11    1     -1.96      0.00
    1   11    1      2.37      0.00
    2   11    1     -0.64      0.00
    3   11    1     -0.59      0.00
    4   11    1     -2.05      0.00
    5   11    1      4.69      0.00
    6   11    1      3.81      0.00
    7   11    1     -2.36      0.00
    8   11    1      1.53      0.00
  -22    0    2     15.51      0.00
  -20    0    2     -6.54      0.00
  -18    0    2     -1.48      0.00
  -16    0    2     -3.62      0.00
  -14    0    2     33.98      0.00
  -12    0    2      1.83      0.00
  -10    0    2     -4.10      0.00
   -8    0    2     42.31      0.00
   -6    0    2     67.78      0.00
   -4    0    2    -26.81      0.00
   -2    0    2    105.12      0.00
    6    0    2     50.52      0.00
    8    0    2     20.03      0.00
   10    0    2     19.95      0.00
   12    0    2    -20.86      0.00
   14    0    2      9.07      0.00
   16    0    2     18.71      0.00
   18    0    2     -8.93      0.00
   20    0    2     -8.14      0.00
   22    0    2      9.90      0.00
  -23    1    2      5.98      0.00
  -22    1    2      1.04      0.00
  -21    1    2    -13.94      0.00
  -20    1    2     -4.86      0.00
  -19    1    2     -4.63      0.00
  -18    1    2      4.08      0.00
  -17    1    2      0.90      0.00
  -16    1    2     -1.10      0.00
  -15    1    2     15.80      0.00
  -14    1    2     -8.54      0.00
  -13    1    2    -25.10      0.00
  -12    1    2      2.59      0.00
  -11    1    2     -3.76      0.00
  -10    1    2    -21.31      0.00
   -9    1    2     24.50      0.00
   -8    1    2     11.81      0.00
   -7    1    2     14.79      0.00
   -6    1    2    -26.58      0.00
   -5    1    2    -54.88      0.00
   -4    1    2      5.77      0.00
   -3    1    2     62.29      0.00
   -2    1    2    -28.65      0.00
   -1    1    2     14.35      0.00
    0    1    2    -49.81      0.00
    1    1    2      7.17      0.00
    2    1    2     -1.05      0.00
    3    1    2   -131.74      0.00
    4    1    2    -20.56      0.00
    5    1    2     61.57      0.00
    6    1    2      9.03      0.00
    7    1    2      5.79      0.00
    8    1    2     -9.38      0.00
    9    1    2     -0.79      0.00
   10    1    2     -8.93      0.00
   11    1    2    -16.62      0.00
   12    1    2      4.81      0.00
   13    1    2     28.31      0.00
   14    1    2    -10.42      0.00
   15    1    2     11.94      0.00
   16    1    2      6.90      0.00
   17    1    2     -9.70      0.00
   18    1    2     -1.81      0.00
   19    1    2      0.77      0.00
   20    1    2     -0.04      0.00
   21    1    2     12.61      0.00
   22    1    2     -0.33      0.00
   23    1    2     -2.25      0.00
  -23    2    2     -0.10      0.00
  -22    2    2     -9.22      0.00
  -21    2    2     -2.44      0.00
  -20    2    2     -1.21      0.00
  -19    2    2      7.28      0.00
  -18    2    2      9.15      0.00
  -17    2    2     -1.22      0.00
  -16    2    2     -1.02      0.00
  -15    2    2     -4.45      0.00
  -14    2    2    -28.28      0.00
  -13    2    2     10.42      0.00
  -12    2    2      8.87      0.00
  -11    2    2    -11.22      0.00
  -10    2    2     -1.12      0.00
   -9    2    2     24.03      0.00
   -8    2    2    -20.97      0.00
   -7    2    2    -23.18      0.00
   -6    2    2    -70.20      0.00
   -5    2    2     21.54      0.00
   -4    2    2     18.54      0.00
   -3    2    2    -32.36      0.00
   -2    2    2    -35.90      0.00
   -1    2    2    -10.08      0.00
    0    2    2    -85.56      0.00
    1    2    2     25.69      0.00
    2    2    2    -64.03      0.00
    3    2    2      2.32      0.00
    4    2    2     36.10      0.00
    5    2    2     10.48      0.00
    6    2    2    -13.18      0.00
    7    2    2    -14.16      0.00
    8    2    2    -30.72      0.00
    9    2    2     -6.39      0.00
   10    2    2     -9.01      0.00
   11    2    2      5.18      0.00
   12    2    2     26.24      0.00
   13    2    2    -14.65      0.00
   14    2    2    -14.48      0.00
   15    2    2      8.80      0.00
   16    2    2     -9.55      0.00
   17    2    2     -7.89      0.00
   18    2    2      1.67      0.00
   19    2    2     -0.83      0.00
   20    2    2      8.49      0.00
   21    2    2     -0.76      0.00
   22    2    2     -6.11      0.00
  -22    3    2      2.24      0.00
  -21    3    2      5.16      0.00
  -20    3    2      2.08      0.00
  -19    3    2     13.69      0.00
  -18    3    2     -0.25      0.00
  -17    3    2     -9.71      0.00
  -16    3    2      0.29      0.00
  -15    3    2     -8.42      0.00
  -14    3    2     15.36      0.00
  -13    3    2     23.00      0.00
  -12    3    2      3.96      0.00
  -11    3    2     -5.93      0.00
  -10    3    2     23.39      0.00
   -9    3    2    -15.44      0.00
   -8    3    2      2.17      0.00
   -7    3    2    -25.72      0.00
   -6    3    2     39.37      0.00
   -5    3    2     45.65      0.00
   -4    3    2      1.74      0.00
   -3    3    2     -7.14      0.00
   -2    3    2     51.62      0.00
   -1    3    2    -44.53      0.00
    0    3    2     40.40      0.00
    1    3    2     39.78      0.00
    2    3    2     39.62      0.00
    3    3    2     23.02      0.00
    4    3    2      2.95      0.00
    5    3    2      1.89      0.00
    6    3    2     15.02      0.00
    7    3    2    -27.35      0.00
    8    3    2      8.79      0.00
    9    3    2     20.89      0.00
   10    3    2     14.08      0.00
   11    3    2     13.85      0.00
   12    3    2     -3.18      0.00
   13    3    2    -29.34      0.00
   14    3    2     11.71      0.00
   15    3    2     -2.07      0.00
   16    3    2     -3.80      0.00
   17    3    2      2.60      0.00
   18    3    2      0.37      0.00
   19    3    2      2.55      0.00
   20    3    2     -0.37      0.00
   21    3    2     -9.52      0.00
   22    3    2      2.07      0.00
  -22    4    2      4.51      0.00
  -21    4    2     -4.91      0.00
  -20    4    2      5.89      0.00
  -19    4    2     -0.77      0.00
  -18    4    2    -14.68      0.00
  -17    4    2     -5.97      0.00
  -16    4    2      4.64      0.00
  -15    4    2      6.77      0.00
  -14    4    2     11.88      0.00
  -13    4    2     -7.39      0.00
  -12    4    2    -12.42      0.00
  -11    4    2     -2.56      0.00
  -10    4    2    -13.13      0.00
   -9    4    2     -0.31      0.00
   -8    4    2     11.31      0.00
   -7    4    2      6.91      0.00
   -6    4    2     35.58      0.00
   -5    4    2    -12.32      0.00
   -4    4    2    -10.12      0.00
   -3    4    2     22.11      0.00
   -2    4    2    -20.24      0.00
   -1    4    2    -11.54      0.00
    0    4    2     57.36      0.00
    1    4    2     15.30      0.00
    2    4    2     -7.55      0.00
    3    4    2    -37.87      0.00
    4    4    2      0.24      0.00
    5    4    2     25.37      0.00
    6    4    2    -19.38      0.00
    7    4    2     -9.84      0.00
    8    4    2     32.07      0.00
    9    4    2      9.99      0.00
   10    4    2     -9.42      0.00
   11    4    2      0.21      0.00
   12    4    2    -23.05      0.00
   13    4    2      9.80      0.00
   14    4    2      7.53      0.00
   15    4    2      2.12      0.00
   16    4    2      7.15      0.00
   17    4    2      1.25      0.00
   18    4    2     -3.16      0.00
   19    4    2      4.93      0.00
   20    4    2     -5.78      0.00
   21    4    2      3.87      0.00
  -21    5    2     -2.59      0.00
  -20    5    2      1.31      0.00
  -19    5    2     -9.20      0.00
  -18    5    2     -5.34      0.00
  -17    5    2     11.16      0.00
  -16    5    2      4.73      0.00
  -15    5    2      1.73      0.00
  -14    5    2    -12.83      0.00
  -13    5    2     -8.40      0.00
  -12    5    2     -7.08      0.00
  -11    5    2     -6.84      0.00
  -10    5    2     -3.13      0.00
   -9    5    2     31.04      0.00
   -8    5    2    -18.85      0.00
   -7    5    2     -1.29      0.00
   -6    5    2    -22.78      0.00
   -5    5    2    -12.94      0.00
   -4    5    2    -10.28      0.00
   -3    5    2    -12.15      0.00
   -2    5    2    -37.16      0.00
   -1    5    2     35.81      0.00
    0    5    2     -7.07      0.00
    1    5    2    -28.13      0.00
    2    5    2    -51.30      0.00
    3    5    2     -9.57      0.00
    4    5    2     21.32      0.00
    5    5    2     -5.00      0.00
    6    5    2    -33.28      0.00
    7    5    2     21.03      0.00
    8    5    2      2.77      0.00
    9    5    2    -25.61      0.00
   10    5    2     -7.65      0.00
   11    5    2     -5.17      0.00
   12    5    2      1.61      0.00
   13    5    2     10.53      0.00
   14    5    2     -2.02      0.00
   15    5    2      8.18      0.00
   16    5    2     -1.81      0.00
   17    5    2    -11.42      0.00
   18    5    2      5.52      0.00
   19    5    2     -0.42      0.00
   20    5    2     -0.81      0.00
   21    5    2      4.84      0.00
  -20    6    2     -0.30      0.00
  -19    6    2      0.03      0.00
  -18    6    2      9.38      0.00
  -17    6    2      3.83      0.00
  -16    6    2     -1.31      0.00
  -15    6    2     -5.48      0.00
  -14    6    2     -0.16      0.00
  -13    6    2      5.23      0.00
  -12    6    2      3.26      0.00
  -11    6    2      3.81      0.00
  -10    6    2     32.38      0.00
   -9    6    2     -6.82      0.00
   -8    6    2    -21.61      0.00
   -7    6    2     -1.80      0.00
   -6    6    2      8.97      0.00
   -5    6    2      5.64      0.00
   -4    6    2      3.62      0.00
   -3    6    2     -6.57      0.00
   -2    6    2     29.07      0.00
   -1    6    2      8.15      0.00
    0    6    2    -18.91      0.00
    1    6    2    -11.77      0.00
    2    6    2      3.99      0.00
    3    6    2     24.38      0.00
    4    6    2     21.90      0.00
    5    6    2    -19.02      0.00
    6    6    2     11.96      0.00
    7    6    2     10.54      0.00
    8    6    2    -15.66      0.00
    9    6    2     -3.91      0.00
   10    6    2     14.47      0.00
   11    6    2      0.16      0.00
   12    6    2      8.78      0.00
   13    6    2     -8.01      0.00
   14    6    2      4.93      0.00
   15    6    2     -2.51      0.00
   16    6    2    -14.98      0.00
   17    6    2      1.56      0.00
   18    6    2      6.66      0.00
   19    6    2     -5.23      0.00
  -18    7    2     -1.57      0.00
  -17    7    2     -4.66      0.00
  -16    7    2     -1.05      0.00
  -15    7    2     -0.95      0.00
  -14    7    2      5.67      0.00
  -13    7    2     -0.32      0.00
  -12    7    2      0.40      0.00
  -11    7    2     10.10      0.00
  -10    7    2      1.13      0.00
   -9    7    2    -30.72      0.00
   -8    7    2      5.13      0.00
   -7    7    2     12.47      0.00
   -6    7    2     13.79      0.00
   -5    7    2     -2.31      0.00
   -4    7    2      4.51      0.00
   -3    7    2      9.83      0.00
   -2    7    2      8.78      0.00
   -1    7    2    -20.43      0.00
    0    7    2     11.24      0.00
    1    7    2     10.19      0.00
    2    7    2      8.95      0.00
    3    7    2     17.69      0.00
    4    7    2     -1.29      0.00
    5    7    2     -5.52      0.00
    6    7    2      7.29      0.00
    7    7    2     -8.02      0.00
    8    7    2      2.00      0.00
    9    7    2     16.74      0.00
   10    7    2     -0.86      0.00
   11    7    2      3.26      0.00
   12    7    2     -5.58      0.00
   13    7    2      1.19      0.00
   14    7    2      5.12      0.00
   15    7    2     -9.14      0.00
   16    7    2     -0.58      0.00
   17    7    2     12.60      0.00
   18    7    2     -3.27      0.00
  -17    8    2      2.42      0.00
  -16    8    2     -0.55      0.00
  -15    8    2      2.35      0.00
  -14    8    2     -2.87      0.00
  -13    8    2     -3.64      0.00
  -12    8    2     -3.84      0.00
  -11    8    2      1.00      0.00
  -10    8    2    -19.14      0.00
   -9    8    2      0.88      0.00
   -8    8    2      8.88      0.00
   -7    8    2      6.49      0.00
   -6    8    2     -7.59      0.00
   -5    8    2     -5.13      0.00
   -4    8    2     -6.89      0.00
   -3    8    2     -1.11      0.00
   -2    8    2    -19.40      0.00
   -1    8    2      6.51      0.00
    0    8    2      7.49      0.00
    1    8    2    -11.27      0.00
    2    8    2     -3.79      0.00
    3    8    2      3.78      0.00
    4    8    2    -17.88      0.00
    5    8    2     -5.30      0.00
    6    8    2     -9.29      0.00
    7    8    2      3.15      0.00
    8    8    2      7.68      0.00
    9    8    2     -6.04      0.00
   10    8    2     -7.00      0.00
   11    8    2     -0.47      0.00
   12    8    2     -6.20      0.00
   13    8    2      7.28      0.00
   14    8    2     -4.66      0.00
   15    8    2     -3.38      0.00
   16    8    2      8.16      0.00
  -15    9    2     -0.34      0.00
  -14    9    2     -1.41      0.00
  -13    9    2     -0.34      0.00
  -12    9    2      0.76      0.00
  -11    9    2      2.65      0.00
  -10    9    2      2.02      0.00
   -9    9    2      8.64      0.00
   -8    9    2     -0.07      0.00
   -7    9    2      2.19      0.00
   -6    9    2     -4.70      0.00
   -5    9    2     -5.87      0.00
   -4    9    2     -1.00      0.00
   -3    9    2     -1.01      0.00
   -2    9    2      4.96      0.00
   -1    9    2     10.47      0.00
    0    9    2    -12.52      0.00
    1    9    2     -7.45      0.00
    2    9    2      9.50      0.00
    3    9    2     -6.43      0.00
    4    9    2     -7.39      0.00
    5    9    2     -0.23      0.00
    6    9    2      7.58      0.00
    7    9    2      7.98      0.00
    8    9    2     -5.19      0.00
    9    9    2     -8.54      0.00
   10    9    2      5.63      0.00
   11    9    2     -5.99      0.00
   12    9    2      4.02      0.00
   13    9    2     -0.01      0.00
   14    9    2     -2.70      0.00
  -12   10    2      5.59      0.00
  -11   10    2      2.41      0.00
  -10   10    2      2.40      0.00
   -9   10    2     -7.95      0.00
   -8   10    2      5.41      0.00
   -7   10    2      1.25      0.00
   -6   10    2     -3.29      0.00
   -5   10    2     -3.80      0.00
   -4   10    2      9.74      0.00
   -3   10    2      5.67      0.00
   -2   10    2      6.65      0.00
   -1   10    2     -7.75      0.00
    0   10    2     -5.19      0.00
    1   10    2      9.64      0.00
    2   10    2      5.47      0.00
    3   10    2     -4.15      0.00
    4   10    2      5.49      0.00
    5   10    2      6.45      0.00
    6   10    2      8.48      0.00
    7   10    2     -3.58      0.00
    8   10    2     -4.13      0.00
    9   10    2      7.06      0.00
   10   10    2      0.22      0.00
   11   10    2     -0.57      0.00
   -8   11    2      4.45      0.00
   -7   11    2     -1.65      0.00
   -6   11    2     -6.66      0.00
   -5   11    2      4.25      0.00
   -4   11    2      3.53      0.00
   -3   11    2     -0.10      0.00
   -2   11    2     -6.45      0.00
   -1   11    2     -4.12      0.00
    0   11    2      3.78      0.00
    1   11    2      3.82      0.00
    2   11    2     -2.56      0.00
    3   11    2      0.20      0.00
    4   11    2     -0.68      0.00
    5   11    2      0.35      0.00
    6   11    2     -3.41      0.00
    7   11    2     -3.99      0.00
  -23    0    3     -0.35      0.00
  -21    0    3    -18.59      0.00
  -19    0    3     14.90      0.00
  -17    0    3     -2.75      0.00
  -15    0    3     -7.65      0.00
  -13    0    3    -37.37      0.00
  -11    0    3     10.24      0.00
   -9    0    3    -16.05      0.00
   -7    0    3    -58.59      0.00
   -5    0    3    -53.70      0.00
   -3    0    3     16.93      0.00
   -1    0    3   -137.48      0.00
    1    0    3    -74.91      0.00
    3    0    3    -73.19      0.00
    5    0    3     94.71      0.00
    7    0    3    -66.40      0.00
    9    0    3     -9.67      0.00
   11    0    3     -4.06      0.00
   13    0    3     15.85      0.00
   15    0    3    -15.24      0.00
   17    0    3     -9.86      0.00
   19    0    3     12.32      0.00
   21    0    3      1.34      0.00
   23    0    3     -7.62      0.00
  -23    1    3      0.51      0.00
  -22    1    3     -4.71      0.00
  -21    1    3     -0.82      0.00
  -20    1    3     19.84      0.00
  -19    1    3      4.65      0.00
  -18    1    3     -3.07      0.00
  -17    1    3     -4.22      0.00
  -16    1    3     -6.56      0.00
  -15    1    3      4.26      0.00
  -14    1    3     -9.44      0.00
  -13    1    3      9.50      0.00
  -12    1    3     30.97      0.00
  -11    1    3     -0.63      0.00
  -10    1    3    -16.90      0.00
   -9    1    3     21.50      0.00
   -8    1    3    -22.88      0.00
   -7    1    3    -13.72      0.00
   -6    1    3      4.51      0.00
   -5    1    3     31.02      0.00
   -4    1    3     44.07      0.00
   -3    1    3     -3.69      0.00
   -2    1    3    -77.42      0.00
   -1    1    3     41.19      0.00
    0    1    3     18.94      0.00
    1    1    3     34.73      0.00
    2    1    3     33.51      0.00
    3    1    3     -9.14      0.00
    4    1    3     79.83      0.00
    5    1    3     15.34      0.00
    6    1    3    -77.42      0.00
    7    1    3     -6.76      0.00
    8    1    3      8.33      0.00
    9    1    3     10.68      0.00
   10    1    3      4.35      0.00
   11    1    3      3.59      0.00
   12    1    3      0.98      0.00
   13    1    3     -2.45      0.00
   14    1    3    -28.92      0.00
   15    1    3      6.51      0.00
   16    1    3     -1.96      0.00
   17    1    3     -7.00      0.00
   18    1    3      8.81      0.00
   19    1    3      2.12      0.00
   20    1    3     -6.33      0.00
   21    1    3      0.69      0.00
   22    1    3     -7.26      0.00
   23    1    3      0.02      0.00
  -23    2    3      3.85      0.00
  -22    2    3      0.02      0.00
  -21    2    3     10.07      0.00
  -20    2    3      1.33      0.00
  -19    2    3     -5.05      0.00
  -18    2    3     -7.24      0.00
  -17    2    3     -7.07      0.00
  -16    2    3      4.60      0.00
  -15    2    3     12.21      0.00
  -14    2    3      2.92      0.00
  -13    2    3     26.89      0.00
  -12    2    3    -10.93      0.00
  -11    2    3    -18.16      0.00
  -10    2    3     11.45      0.00
   -9    2    3     18.59      0.00
   -8    2    3    -24.30      0.00
   -7    2    3     38.26      0.00
   -6    2    3     29.01      0.00
   -5    2    3     58.54      0.00
   -4    2    3    -19.97      0.00
   -3    2    3    -25.39      0.00
   -2    2    3     37.83      0.00
   -1    2    3     66.00      0.00
    0    2    3     -9.43      0.00
    1    2    3     74.49      0.00
    2    2    3    -26.66      0.00
    3    2    3     17.33      0.00
    4    2    3      7.00      0.00
    5    2    3    -37.48      0.00
    6    2    3     -2.73      0.00
    7    2    3     27.83      0.00
    8    2    3     14.57      0.00
    9    2    3     21.74      0.00
   10    2    3      1.88      0.00
   11    2    3     -7.78      0.00
   12    2    3     -0.22      0.00
   13    2    3    -17.32      0.00
   14    2    3     10.03      0.00
   15    2    3     19.61      0.00
   16    2    3     -6.71      0.00
   17    2    3      3.58      0.00
   18    2    3      7.94      0.00
   19    2    3     -5.93      0.00
   20    2    3      0.39      0.00
   21    2    3     -2.78      0.00
   22    2    3     -0.88      0.00
  -22    3    3     -2.85      0.00
  -21    3    3     -2.89      0.00
  -20    3    3     -8.28      0.00
  -19    3    3     -2.05      0.00
  -18    3    3     -8.44      0.00
  -17    3    3      0.21      0.00
  -16    3    3     16.09      0.00
  -15    3    3     -5.96      0.00
  -14    3    3     -0.70      0.00
  -13    3    3    -18.68      0.00
  -12    3    3    -22.98      0.00
  -11    3    3     -3.51      0.00
  -10    3    3     21.49      0.00
   -9    3    3    -27.92      0.00
   -8    3    3     15.99      0.00
   -7    3    3     -3.00      0.00
   -6    3    3      4.90      0.00
   -5    3    3    -42.38      0.00
   -4    3    3    -47.93      0.00
   -3    3    3     -5.03      0.00
   -2    3    3     28.82      0.00
   -1    3    3    -60.05      0.00
    0    3    3     20.77      0.00
    1    3    3    -30.53      0.00
    2    3    3    -52.84      0.00
    3    3    3    -20.80      0.00
    4    3    3     -6.90      0.00
    5    3    3      1.16      0.00
    6    3    3     11.46      0.00
    7    3    3    -14.76      0.00
    8    3    3     15.66      0.00
    9    3    3     -6.93      0.00
   10    3    3    -23.87      0.00
   11    3    3     -7.43      0.00
   12    3    3      3.75      0.00
   13    3    3      1.94      0.00
   14    3    3     27.67      0.00
   15    3    3     -7.68      0.00
   16    3    3     -5.53      0.00
   17    3    3      5.06      0.00
   18    3    3     -2.57      0.00
   19    3    3     -0.19      0.00
   20    3    3      2.42      0.00
   21    3    3     -1.30      0.00
   22    3    3      6.95      0.00
  -22    4    3     -2.26      0.00
  -21    4    3     -4.56      0.00
  -20    4    3      6.29      0.00
  -19    4    3     -0.93      0.00
  -18    4    3     -0.51      0.00
  -17    4    3     14.84      0.00
  -16    4    3      3.19      0.00
  -15    4    3    -13.41      0.00
  -14    4    3     -6.61      0.00
  -13    4    3     -5.88      0.00
  -12    4    3     10.73      0.00
  -11    4    3     18.32      0.00
  -10    4    3     -3.19      0.00
   -9    4    3      1.68      0.00
   -8    4    3      0.42      0.00
   -7    4    3    -26.39      0.00
   -6    4    3     -5.80      0.00
   -5    4    3    -25.06      0.00
   -4    4    3      9.58      0.00
   -3    4    3     22.59      0.00
   -2    4    3    -22.32      0.00
   -1    4    3     -0.73      0.00
    0    4    3     16.25      0.00
    1    4    3    -52.01      0.00
    2    4    3     -7.09      0.00
    3    4    3     24.52      0.00
    4    4    3     27.26      0.00
    5    4    3      2.27      0.00
    6    4    3    -28.47      0.00
    7    4    3      7.07      0.00
    8    4    3      9.75      0.00
    9    4    3    -25.38      0.00
   10    4    3    -11.05      0.00
   11    4    3     20.96      0.00
   12    4    3     -2.91      0.00
   13    4    3     13.39      0.00
   14    4    3     -8.96      0.00
   15    4    3    -13.44      0.00
   16    4    3     -1.00      0.00
   17    4    3     -2.04      0.00
   18    4    3     -2.25      0.00
   19    4    3      5.36      0.00
   20    4    3     -5.38      0.00
   21    4    3      2.56      0.00
  -21    5    3      7.17      0.00
  -20    5    3      4.58      0.00
  -19    5    3     -3.12      0.00
  -18    5    3      5.21      0.00
  -17    5    3      7.39      0.00
  -16    5    3    -14.46      0.00
  -15    5    3     -1.71      0.00
  -14    5    3      5.37      0.00
  -13    5    3     17.02      0.00
  -12    5    3      7.59      0.00
  -11    5    3      4.83      0.00
  -10    5    3     -3.78      0.00
   -9    5    3      8.92      0.00
   -8    5    3    -31.09      0.00
   -7    5    3     24.58      0.00
   -6    5    3     18.15      0.00
   -5    5    3     21.17      0.00
   -4    5    3     13.63      0.00
   -3    5    3     12.39      0.00
   -2    5    3     -0.19      0.00
   -1    5    3     36.93      0.00
    0    5    3    -24.97      0.00
    1    5    3      7.26      0.00
    2    5    3     38.21      0.00
    3    5    3     36.43      0.00
    4    5    3      0.87      0.00
    5    5    3    -21.83      0.00
    6    5    3     -3.45      0.00
    7    5    3     30.91      0.00
    8    5    3    -10.27      0.00
    9    5    3     -8.04      0.00
   10    5    3     26.31      0.00
   11    5    3      5.10      0.00
   12    5    3     -5.98      0.00
   13    5    3     -2.88      0.00
   14    5    3    -11.47      0.00
   15    5    3      1.84      0.00
   16    5    3      0.51      0.00
   17    5    3     -1.43      0.00
   18    5    3      9.37      0.00
   19    5    3     -4.49      0.00
   20    5    3     -2.55      0.00
  -20    6    3     -5.51      0.00
  -19    6    3     -3.77      0.00
  -18    6    3      2.60      0.00
  -17    6    3     -9.32      0.00
  -16    6    3     -2.74      0.00
  -15    6    3      4.44      0.00
  -14    6    3      5.04      0.00
  -13    6    3     -4.26      0.00
  -12    6    3     -7.01      0.00
  -11    6    3     -9.21      0.00
  -10    6    3      0.35      0.00
   -9    6    3    -25.37      0.00
   -8    6    3      7.84      0.00
   -7    6    3     30.11      0.00
   -6    6    3     -3.00      0.00
   -5    6    3    -19.05      0.00
   -4    6    3     -5.08      0.00
   -3    6    3     -7.20      0.00
   -2    6    3      6.47      0.00
   -1    6    3    -19.82      0.00
    0    6    3     -8.68      0.00
    1    6    3     21.44      0.00
    2    6    3      6.22      0.00
    3    6    3    -16.19      0.00
    4    6    3    -17.93      0.00
    5    6    3    -20.59      0.00
    6    6    3     19.65      0.00
    7    6    3     -0.11      0.00
    8    6    3    -12.02      0.00
    9    6    3     11.12      0.00
   10    6    3      7.11      0.00
   11    6    3    -18.77      0.00
   12    6    3      2.40      0.00
   13    6    3     -3.08      0.00
   14    6    3      7.62      0.00
   15    6    3      3.41      0.00
   16    6    3      0.52      0.00
   17    6    3      9.39      0.00
   18    6    3      0.69      0.00
   19    6    3     -7.26      0.00
  -18    7    3     -0.52      0.00
  -17    7    3      1.57      0.00
  -16    7    3      6.24      0.00
  -15    7    3     -1.87      0.00
  -14    7    3     -2.71      0.00
  -13    7    3     -5.97      0.00
  -12    7    3      0.00      0.00
  -11    7    3      0.32      0.00
  -10    7    3     -3.13      0.00
   -9    7    3     -4.49      0.00
   -8    7    3     29.60      0.00
   -7    7    3     -9.62      0.00
   -6    7    3    -23.03      0.00
   -5    7    3    -12.73      0.00
   -4    7    3      4.72      0.00
   -3    7    3     -3.36      0.00
   -2    7    3     -5.71      0.00
   -1    7    3    -10.46      0.00
    0    7    3     16.08      0.00
    1    7    3     -9.27      0.00
    2    7    3    -19.55      0.00
    3    7    3     -3.29      0.00
    4    7    3    -10.76      0.00
    5    7    3      1.77      0.00
    6    7    3     11.33      0.00
    7    7    3     -7.51      0.00
    8    7    3     -0.32      0.00
    9    7    3      2.47      0.00
   10    7    3    -17.29      0.00
   11    7    3      2.69      0.00
   12    7    3      2.24      0.00
   13    7    3      2.52      0.00
   14    7    3      1.23      0.00
   15    7    3     -4.20      0.00
   16    7    3      2.27      0.00
   17    7    3      2.72      0.00
   18    7    3    -10.81      0.00
  -17    8    3      4.58      0.00
  -16    8    3     -4.33      0.00
  -15    8    3     -0.99      0.00
  -14    8    3      0.17      0.00
  -13    8    3      5.69      0.00
  -12    8    3      3.44      0.00
  -11    8    3      7.30      0.00
  -10    8    3     -2.98      0.00
   -9    8    3     15.67      0.00
   -8    8    3     -1.16      0.00
   -7    8    3    -12.29      0.00
   -6    8    3     -3.10      0.00
   -5    8    3     13.42      0.00
   -4    8    3      6.64      0.00
   -3    8    3      8.44      0.00
   -2    8    3     -0.87      0.00
   -1    8    3     13.85      0.00
    0    8    3     -2.79      0.00
    1    8    3     -9.67      0.00
    2    8    3     11.83      0.00
    3    8    3     11.07      0.00
    4    8    3     -5.62      0.00
    5    8    3     17.17      0.00
    6    8    3      4.49      0.00
    7    8    3      0.87      0.00
    8    8    3     -1.36      0.00
    9    8    3     -6.73      0.00
   10    8    3      4.63      0.00
   11    8    3      9.91      0.00
   12    8    3     -3.59      0.00
   13    8    3      3.61      0.00
   14    8    3     -4.50      0.00
   15    8    3     -0.92      0.00
   16    8    3      4.08      0.00
  -15    9    3      2.23      0.00
  -14    9    3      1.42      0.00
  -13    9    3     -0.01      0.00
  -12    9    3     -0.13      0.00
  -11    9    3     -0.58      0.00
  -10    9    3     -4.94      0.00
   -9    9    3     -0.58      0.00
   -8    9    3     -8.02      0.00
   -7    9    3      2.17      0.00
   -6    9    3      2.39      0.00
   -5    9    3      4.02      0.00
   -4    9    3      5.89      0.00
   -3    9    3     -0.83      0.00
   -2    9    3     -2.71      0.00
   -1    9    3     -2.55      0.00
    0    9    3     -6.98      0.00
    1    9    3     10.89      0.00
    2    9    3     11.79      0.00
    3    9    3    -11.33      0.00
    4    9    3      3.08      0.00
    5    9    3      7.00      0.00
    6    9    3     -3.68      0.00
    7    9    3     -7.02      0.00
    8    9    3     -4.02      0.00
    9    9    3      3.36      0.00
   10    9    3     10.93      0.00
   11    9    3     -6.88      0.00
   12    9    3      2.54      0.00
   13    9    3     -1.11      0.00
   14    9    3     -1.72      0.00
  -12   10    3      2.82      0.00
  -11   10    3     -6.91      0.00
  -10   10    3     -1.84      0.00
   -9   10    3     -2.16      0.00
   -8   10    3      7.89      0.00
   -7   10    3     -4.56      0.00
   -6   10    3     -3.06      0.00
   -5   10    3      2.24      0.00
   -4   10    3      2.58      0.00
   -3   10    3    -11.77      0.00
   -2   10    3     -5.22      0.00
   -1   10    3     -1.93      0.00
    0   10    3      6.39      0.00
    1   10    3      4.72      0.00
    2   10    3    -10.59      0.00
    3   10    3     -8.76      0.00
    4   10    3      4.47      0.00
    5   10    3     -5.72      0.00
    6   10    3     -5.58      0.00
    7   10    3     -3.69      0.00
    8   10    3      2.17      0.00
    9   10    3      5.03      0.00
   10   10    3     -5.73      0.00
   11   10    3     -2.28      0.00
   -7   11    3     -4.84      0.00
   -6   11    3      1.18      0.00
   -5   11    3      7.22      0.00
   -4   11    3     -5.39      0.00
   -3   11    3     -3.47      0.00
   -2   11    3      3.10      0.00
   -1   11    3      6.10      0.00
    0   11    3      1.97      0.00
    1   11    3     -4.42      0.00
    2   11    3     -4.43      0.00
    3   11    3      3.18      0.00
    4   11    3      0.64      0.00
    5   11    3      1.28      0.00
    6   11    3      1.67      0.00
    7   11    3      1.97      0.00
  -22    0    4      4.66      0.00
  -20    0    4     16.46      0.00
  -18    0    4    -20.58      0.00
  -16    0    4     13.92      0.00
  -14    0    4     16.08      0.00
  -12    0    4     35.51      0.00
  -10    0    4    -16.38      0.00
   -8    0    4     41.65      0.00
   -6    0    4     62.99      0.00
   -4    0    4     36.20      0.00
   -2    0    4      5.38      0.00
    0    0    4    145.73      0.00
    2    0    4     30.02      0.00
    4    0    4     15.27      0.00
    6    0    4    -65.39      0.00
    8    0    4     73.80      0.00
   10    0    4     -7.16      0.00
   12    0    4     -4.22      0.00
   14    0    4     -6.12      0.00
   16    0    4     15.36      0.00
   18    0    4      0.94      0.00
   20    0    4    -10.45      0.00
   22    0    4      3.09      0.00
  -23    1    4      2.56      0.00
  -22    1    4     -0.23      0.00
  -21    1    4      0.11      0.00
  -20    1    4      0.19      0.00
  -19    1    4    -21.01      0.00
  -18    1    4     -3.96      0.00
  -17    1    4     13.94      0.00
  -16    1    4      2.72      0.00
  -15    1    4      6.07      0.00
  -14    1    4     -7.84      0.00
  -13    1    4      1.40      0.00
  -12    1    4     -8.82      0.00
  -11    1    4    -29.01      0.00
  -10    1    4     -2.02      0.00
   -9    1    4     35.58      0.00
   -8    1    4    -19.58      0.00
   -7    1    4      9.51      0.00
   -6    1    4     14.40      0.00
   -5    1    4    -19.75      0.00
   -4    1    4    -36.95      0.00
   -3    1    4    -23.87      0.00
   -2    1    4      1.23      0.00
   -1    1    4     72.40      0.00
    0    1    4    -44.67      0.00
    1    1    4    -56.21      0.00
    2    1    4    -12.97      0.00
    3    1    4    -34.74      0.00
    4    1    4     10.71      0.00
    5    1    4    -28.21      0.00
    6    1    4    -12.53      0.00
    7    1    4     74.61      0.00
    8    1    4      4.28      0.00
    9    1    4    -23.28      0.00
   10    1    4    -10.45      0.00
   11    1    4      0.92      0.00
   12    1    4      1.38      0.00
   13    1    4     11.44      0.00
   14    1    4     -0.15      0.00
   15    1    4     22.10      0.00
   16    1    4     -2.44      0.00
   17    1    4     -5.51      0.00
   18    1    4      5.95      0.00
   19    1    4     -4.67      0.00
   20    1    4     -2.90      0.00
   21    1    4      7.93      0.00
   22    1    4     -0.45      0.00
  -23    2    4      0.77      0.00
  -22    2    4     -7.06      0.00
  -21    2    4     -0.01      0.00
  -20    2    4     -7.92      0.00
  -19    2    4     -0.12      0.00
  -18    2    4     10.31      0.00
  -17    2    4      4.99      0.00
  -16    2    4     -1.17      0.00
  -15    2    4     -6.39      0.00
  -14    2    4    -21.38      0.00
  -13    2    4      0.07      0.00
  -12    2    4    -19.46      0.00
  -11    2    4      9.54      0.00
  -10    2    4     19.63      0.00
   -9    2    4    -10.23      0.00
   -8    2    4    -41.33      0.00
   -7    2    4     21.57      0.00
   -6    2    4    -44.29      0.00
   -5    2    4    -34.75      0.00
   -4    2    4    -39.01      0.00
   -3    2    4     20.27      0.00
   -2    2    4     20.24      0.00
   -1    2    4    -35.50      0.00
    0    2    4    -84.98      0.00
    1    2    4     26.95      0.00
    2    2    4    -40.79      0.00
    3    2    4     14.39      0.00
    4    2    4     14.63      0.00
    5    2    4    -13.52      0.00
    6    2    4     23.17      0.00
    7    2    4     -1.74      0.00
    8    2    4    -35.51      0.00
    9    2    4    -12.75      0.00
   10    2    4     -7.10      0.00
   11    2    4      1.50      0.00
   12    2    4     15.41      0.00
   13    2    4     -4.27      0.00
   14    2    4      5.39      0.00
   15    2    4     -5.36      0.00
   16    2    4    -19.27      0.00
   17    2    4      4.38      0.00
   18    2    4      2.91      0.00
   19    2    4     -7.74      0.00
   20    2    4      6.06      0.00
   21    2    4      1.46      0.00
   22    2    4     -1.21      0.00
  -22    3    4     -0.19      0.00
  -21    3    4      6.21      0.00
  -20    3    4      3.97      0.00
  -19    3    4      8.86      0.00
  -18    3    4      1.51      0.00
  -17    3    4      0.42      0.00
  -16    3    4      3.25      0.00
  -15    3    4    -17.91      0.00
  -14    3    4     10.67      0.00
  -13    3    4     11.90      0.00
  -12    3    4     20.31      0.00
  -11    3    4     14.60      0.00
  -10    3    4      3.99      0.00
   -9    3    4    -33.98      0.00
   -8    3    4     30.75      0.00
   -7    3    4     -4.12      0.00
   -6    3    4      4.10      0.00
   -5    3    4     14.36      0.00
   -4    3    4     44.52      0.00
   -3    3    4     37.24      0.00
   -2    3    4      8.61      0.00
   -1    3    4    -40.85      0.00
    0    3    4     60.19      0.00
    1    3    4      7.82      0.00
    2    3    4     12.17      0.00
    3    3    4     49.58      0.00
    4    3    4      8.86      0.00
    5    3    4    -13.57      0.00
    6    3    4     -0.69      0.00
    7    3    4    -14.55      0.00
    8    3    4     13.70      0.00
    9    3    4     -3.63      0.00
   10    3    4      3.93      0.00
   11    3    4     18.26      0.00
   12    3    4      2.20      0.00
   13    3    4    -17.15      0.00
   14    3    4     -0.46      0.00
   15    3    4    -19.04      0.00
   16    3    4      4.20      0.00
   17    3    4     10.00      0.00
   18    3    4     -5.78      0.00
   19    3    4      0.17      0.00
   20    3    4      1.64      0.00
   21    3    4     -4.74      0.00
   22    3    4      0.96      0.00
  -22    4    4      7.81      0.00
  -21    4    4      2.15      0.00
  -20    4    4      1.93      0.00
  -19    4    4     -7.49      0.00
  -18    4    4     -3.39      0.00
  -17    4    4      4.13      0.00
  -16    4    4    -11.11      0.00
  -15    4    4     -3.09      0.00
  -14    4    4     20.75      0.00
  -13    4    4      6.23      0.00
  -12    4    4     -4.38      0.00
  -11    4    4    -12.77      0.00
  -10    4    4    -17.26      0.00
   -9    4    4      9.18      0.00
   -8    4    4     15.36      0.00
   -7    4    4     -2.34      0.00
   -6    4    4     31.05      0.00
   -5    4    4      4.69      0.00
   -4    4    4      7.49      0.00
   -3    4    4     -5.68      0.00
   -2    4    4    -24.59      0.00
   -1    4    4     18.68      0.00
    0    4    4     19.33      0.00
    1    4    4    -21.16      0.00
    2    4    4     35.69      0.00
    3    4    4      5.68      0.00
    4    4    4    -36.49      0.00
    5    4    4    -14.70      0.00
    6    4    4      2.99      0.00
    7    4    4     27.45      0.00
    8    4    4      1.97      0.00
    9    4    4     -8.99      0.00
   10    4    4     14.31      0.00
   11    4    4     12.34      0.00
   12    4    4    -25.43      0.00
   13    4    4      4.76      0.00
   14    4    4     -0.52      0.00
   15    4    4      6.84      0.00
   16    4    4     12.51      0.00
   17    4    4      0.52      0.00
   18    4    4     -2.40      0.00
   19    4    4      3.14      0.00
   20    4    4     -5.29      0.00
   21    4    4      3.87      0.00
  -21    5    4     -4.86      0.00
  -20    5    4     -8.36      0.00
  -19    5    4     -4.02      0.00
  -18    5    4      4.66      0.00
  -17    5    4     -0.35      0.00
  -16    5    4    -11.69      0.00
  -15    5    4     14.73      0.00
  -14    5    4     -0.69      0.00
  -13    5    4    -12.99      0.00
  -12    5    4    -20.05      0.00
  -11    5    4     -1.44      0.00
  -10    5    4     -2.79      0.00
   -9    5    4     12.28      0.00
   -8    5    4    -17.00      0.00
   -7    5    4     21.00      0.00
   -6    5    4    -26.41      0.00
   -5    5    4    -32.13      0.00
   -4    5    4    -17.35      0.00
   -3    5    4     -6.15      0.00
   -2    5    4    -15.02      0.00
   -1    5    4      7.83      0.00
    0    5    4    -33.45      0.00
    1    5    4      9.75      0.00
    2    5    4     -3.01      0.00
    3    5    4    -39.24      0.00
    4    5    4    -22.79      0.00
    5    5    4     10.41      0.00
    6    5    4     18.52      0.00
    7    5    4      6.05      0.00
    8    5    4    -26.62      0.00
    9    5    4     -0.61      0.00
   10    5    4     12.23      0.00
   11    5    4    -20.89      0.00
   12    5    4     -3.36      0.00
   13    5    4     14.90      0.00
   14    5    4      2.38      0.00
   15    5    4      6.11      0.00
   16    5    4      0.06      0.00
   17    5    4     -5.51      0.00
   18    5    4      2.29      0.00
   19    5    4     -5.77      0.00
   20    5    4      2.83      0.00
  -20    6    4      0.09      0.00
  -19    6    4      5.84      0.00
  -18    6    4      7.15      0.00
  -17    6    4     -5.34      0.00
  -16    6    4      7.46      0.00
  -15    6    4      2.76      0.00
  -14    6    4     -6.63      0.00
  -13    6    4     -3.84      0.00
  -12    6    4     10.81      0.00
  -11    6    4      7.63      0.00
  -10    6    4     10.38      0.00
   -9    6    4     -5.00      0.00
   -8    6    4     14.72      0.00
   -7    6    4     -4.71      0.00
   -6    6    4    -31.57      0.00
   -5    6    4      6.86      0.00
   -4    6    4     30.69      0.00
   -3    6    4      2.87      0.00
   -2    6    4      5.19      0.00
   -1    6    4     -5.33      0.00
    0    6    4     10.18      0.00
    1    6    4      9.46      0.00
    2    6    4    -16.80      0.00
    3    6    4     -3.89      0.00
    4    6    4     25.00      0.00
    5    6    4     10.50      0.00
    6    6    4     13.03      0.00
    7    6    4    -18.17      0.00
    8    6    4     -8.32      0.00
    9    6    4     11.95      0.00
   10    6    4     -3.49      0.00
   11    6    4    -10.48      0.00
   12    6    4     17.93      0.00
   13    6    4     -4.33      0.00
   14    6    4     -3.92      0.00
   15    6    4     -4.72      0.00
   16    6    4     -6.91      0.00
   17    6    4     -1.16      0.00
   18    6    4     -2.97      0.00
   19    6    4     -1.25      0.00
  -18    7    4     -1.33      0.00
  -17    7    4     -1.84      0.00
  -16    7    4     -0.62      0.00
  -15    7    4     -6.66      0.00
  -14    7    4      4.98      0.00
  -13    7    4      6.72      0.00
  -12    7    4      5.18      0.00
  -11    7    4     -2.83      0.00
  -10    7    4      0.24      0.00
   -9    7    4     -2.40      0.00
   -8    7    4      9.16      0.00
   -7    7    4    -22.90      0.00
   -6    7    4     11.10      0.00
   -5    7    4     31.23      0.00
   -4    7    4     10.13      0.00
   -3    7    4    -10.57      0.00
   -2    7    4      2.66      0.00
   -1    7    4      3.80      0.00
    0    7    4     10.69      0.00
    1    7    4     -8.21      0.00
    2    7    4      4.97      0.00
    3    7    4     23.01      0.00
    4    7    4     -0.50      0.00
    5    7    4      1.02      0.00
    6    7    4     -0.89      0.00
    7    7    4    -11.77      0.00
    8    7    4      6.06      0.00
    9    7    4      8.83      0.00
   10    7    4     -6.09      0.00
   11    7    4     13.05      0.00
   12    7    4     -2.19      0.00
   13    7    4     -5.82      0.00
   14    7    4      0.48      0.00
   15    7    4     -0.75      0.00
   16    7    4      1.18      0.00
   17    7    4      3.53      0.00
   18    7    4     -2.46      0.00
  -17    8    4     -1.54      0.00
  -16    8    4     -4.85      0.00
  -15    8    4      5.60      0.00
  -14    8    4      2.34      0.00
  -13    8    4     -3.41      0.00
  -12    8    4     -9.75      0.00
  -11    8    4     -1.60      0.00
  -10    8    4     -8.50      0.00
   -9    8    4      3.97      0.00
   -8    8    4    -10.30      0.00
   -7    8    4     -0.60      0.00
   -6    8    4     12.56      0.00
   -5    8    4     -0.10      0.00
   -4    8    4    -19.82      0.00
   -3    8    4     -6.50      0.00
   -2    8    4     -6.85      0.00
   -1    8    4      2.03      0.00
    0    8    4     -7.38      0.00
    1    8    4     -1.06      0.00
    2    8    4      7.37      0.00
    3    8    4     -9.66      0.00
    4    8    4    -17.10      0.00
    5    8    4      7.12      0.00
    6    8    4    -11.39      0.00
    7    8    4     -4.75      0.00
    8    8    4      5.93      0.00
    9    8    4      0.73      0.00
   10    8    4      2.49      0.00
   11    8    4     -1.69      0.00
   12    8    4    -10.09      0.00
   13    8    4      5.21      0.00
   14    8    4      0.25      0.00
   15    8    4      1.19      0.00
   16    8    4      4.05      0.00
  -14    9    4     -4.57      0.00
  -13    9    4     -3.33      0.00
  -12    9    4      2.03      0.00
  -11    9    4      2.06      0.00
  -10    9    4     -0.70      0.00
   -9    9    4      6.42      0.00
   -8    9    4     -1.06      0.00
   -7    9    4      5.41      0.00
   -6    9    4     -2.90      0.00
   -5    9    4     -6.58      0.00
   -4    9    4     -2.31      0.00
   -3    9    4     -4.01      0.00
   -2    9    4      1.90      0.00
   -1    9    4      5.55      0.00
    0    9    4      0.10      0.00
    1    9    4      1.41      0.00
    2    9    4     -7.47      0.00
    3    9    4    -13.35      0.00
    4    9    4     11.95      0.00
    5    9    4      2.63      0.00
    6    9    4     -7.10      0.00
    7    9    4      4.47      0.00
    8    9    4      6.94      0.00
    9    9    4     -1.37      0.00
   10    9    4     -1.40      0.00
   11    9    4    -10.25      0.00
   12    9    4      5.99      0.00
   13    9    4      0.98      0.00
   14    9    4     -1.12      0.00
  -12   10    4      5.58      0.00
  -11   10    4     -3.84      0.00
  -10   10    4      7.13      0.00
   -9   10    4      1.41      0.00
   -8   10    4      1.59      0.00
   -7   10    4     -6.46      0.00
   -6   10    4      3.65      0.00
   -5   10    4      4.44      0.00
   -4   10    4     -0.45      0.00
   -3   10    4     -1.41      0.00
   -2   10    4     12.28      0.00
   -1   10    4      3.88      0.00
    0   10    4     -2.66      0.00
    1   10    4     -3.94      0.00
    2   10    4     -2.38      0.00
    3   10    4     10.37      0.00
    4   10    4     11.65      0.00
    5   10    4     -5.37      0.00
    6   10    4      2.75      0.00
    7   10    4      5.47      0.00
    8   10    4     -0.44      0.00
    9   10    4     -1.26      0.00
   10   10    4     -3.92      0.00
   11   10    4      3.80      0.00
   -7   11    4      0.89      0.00
   -6   11    4      4.30      0.00
   -5   11    4     -0.09      0.00
   -4   11    4     -6.98      0.00
   -3   11    4      5.15      0.00
   -2   11    4      2.66      0.00
   -1   11    4     -5.33      0.00
    0   11    4     -4.48      0.00
    1   11    4      0.41      0.00
    2   11    4      4.28      0.00
    3   11    4      4.49      0.00
    4   11    4     -4.29      0.00
    5   11    4     -2.58      0.00
    6   11    4     -0.57      0.00
    7   11    4     -2.23      0.00
  -23    0    5     -1.79      0.00
  -21    0    5     -8.14      0.00
  -19    0    5    -10.79      0.00
  -17    0    5     20.39      0.00
  -15    0    5    -29.31      0.00
  -13    0    5    -18.29      0.00
  -11    0    5    -31.48      0.00
   -9    0    5     15.87      0.00
   -7    0    5    -67.97      0.00
   -5    0    5    -52.29      0.00
   -3    0    5    -20.87      0.00
   -1    0    5    -33.25      0.00
    1    0    5   -117.27      0.00
    3    0    5     13.18      0.00
    5    0    5     10.46      0.00
    7    0    5     29.66      0.00
    9    0    5    -68.38      0.00
   11    0    5     24.78      0.00
   13    0    5      2.60      0.00
   15    0    5     -1.71      0.00
   17    0    5    -11.17      0.00
   19    0    5      5.06      0.00
   21    0    5      5.78      0.00
  -23    1    5      3.23      0.00
  -22    1    5     -1.72      0.00
  -21    1    5     -0.77      0.00
  -20    1    5      5.07      0.00
  -19    1    5      1.03      0.00
  -18    1    5     16.34      0.00
  -17    1    5      3.72      0.00
  -16    1    5    -23.76      0.00
  -15    1    5     -0.77      0.00
  -14    1    5      1.21      0.00
  -13    1    5     11.70      0.00
  -12    1    5      4.20      0.00
  -11    1    5      6.82      0.00
  -10    1    5     20.98      0.00
   -9    1    5      3.49      0.00
   -8    1    5    -47.90      0.00
   -7    1    5     17.62      0.00
   -6    1    5     13.74      0.00
   -5    1    5    -12.85      0.00
   -3    1    5     41.16      0.00
   -2    1    5      0.66      0.00
   -1    1    5      1.03      0.00
    0    1    5    -46.19      0.00
    1    1    5     34.90      0.00
    2    1    5     71.55      0.00
    3    1    5     -1.60      0.00
    4    1    5     14.20      0.00
    5    1    5     -8.27      0.00
    6    1    5    -10.25      0.00
    7    1    5     11.54      0.00
    8    1    5    -57.12      0.00
    9    1    5     -2.83      0.00
   10    1    5     32.49      0.00
   11    1    5      8.26      0.00
   12    1    5    -12.12      0.00
   13    1    5     -3.96      0.00
   14    1    5    -16.18      0.00
   15    1    5      1.34      0.00
   16    1    5    -12.03      0.00
   17    1    5     -0.50      0.00
   18    1    5      8.64      0.00
   19    1    5     -4.11      0.00
   20    1    5      0.14      0.00
   21    1    5      3.41      0.00
   22    1    5     -6.21      0.00
  -23    2    5      4.16      0.00
  -22    2    5     -2.71      0.00
  -21    2    5      8.82      0.00
  -20    2    5      0.89      0.00
  -19    2    5      3.35      0.00
  -18    2    5     -0.60      0.00
  -17    2    5    -11.15      0.00
  -16    2    5     -2.54      0.00
  -15    2    5     13.23      0.00
  -14    2    5      7.28      0.00
  -13    2    5     25.09      0.00
  -12    2    5     -4.11      0.00
  -11    2    5      9.69      0.00
  -10    2    5     -7.39      0.00
   -9    2    5    -11.52      0.00
   -8    2    5     10.54      0.00
   -7    2    5     62.55      0.00
   -6    2    5    -17.63      0.00
   -5    2    5     35.15      0.00
   -4    2    5     37.75      0.00
   -3    2    5     19.49      0.00
   -2    2    5    -21.54      0.00
   -1    2    5     -5.33      0.00
    0    2    5     24.85      0.00
    1    2    5     83.51      0.00
    2    2    5    -30.03      0.00
    3    2    5      2.47      0.00
    4    2    5     -0.66      0.00
    5    2    5    -26.58      0.00
    6    2    5     17.21      0.00
    7    2    5     -2.60      0.00
    8    2    5      2.55      0.00
    9    2    5     33.19      0.00
   10    2    5      9.81      0.00
   11    2    5     -7.39      0.00
   12    2    5     -2.23      0.00
   13    2    5    -14.31      0.00
   14    2    5      6.39      0.00
   15    2    5      5.16      0.00
   16    2    5      1.67      0.00
   17    2    5     14.00      0.00
   18    2    5     -1.93      0.00
   19    2    5     -7.25      0.00
   20    2    5      6.34      0.00
   21    2    5     -3.70      0.00
   22    2    5     -2.92      0.00
  -22    3    5      0.57      0.00
  -21    3    5      0.38      0.00
  -20    3    5     -9.35      0.00
  -19    3    5     -5.41      0.00
  -18    3    5     -5.63      0.00
  -17    3    5     -2.04      0.00
  -16    3    5      7.35      0.00
  -15    3    5     -8.05      0.00
  -14    3    5     13.76      0.00
  -13    3    5    -14.15      0.00
  -12    3    5    -20.64      0.00
  -11    3    5    -20.47      0.00
  -10    3    5      0.52      0.00
   -9    3    5     -4.14      0.00
   -8    3    5     36.30      0.00
   -7    3    5    -33.35      0.00
   -6    3    5    -15.89      0.00
   -5    3    5     -4.40      0.00
   -4    3    5    -23.60      0.00
   -3    3    5    -45.29      0.00
   -2    3    5    -18.81      0.00
   -1    3    5    -10.97      0.00
    0    3    5     40.44      0.00
    1    3    5    -48.94      0.00
    2    3    5    -31.99      0.00
    3    3    5      3.65      0.00
    4    3    5    -31.54      0.00
    5    3    5     -3.32      0.00
    6    3    5     29.23      0.00
    7    3    5     -2.31      0.00
    8    3    5      8.81      0.00
    9    3    5    -10.88      0.00
   10    3    5     -3.91      0.00
   11    3    5     -0.07      0.00
   12    3    5     -8.17      0.00
   13    3    5      0.44      0.00
   14    3    5     23.33      0.00
   15    3    5     -0.80      0.00
   16    3    5      7.79      0.00
   17    3    5     -0.73      0.00
   18    3    5    -10.89      0.00
   19    3    5      4.71      0.00
   20    3    5      3.19      0.00
   21    3    5     -2.24      0.00
  -22    4    5      0.44      0.00
  -21    4    5     -8.85      0.00
  -20    4    5     -1.52      0.00
  -19    4    5      2.38      0.00
  -18    4    5      7.21      0.00
  -17    4    5      5.48      0.00
  -16    4    5     -7.85      0.00
  -15    4    5      3.49      0.00
  -14    4    5      5.24      0.00
  -13    4    5    -23.13      0.00
  -12    4    5     -6.27      0.00
  -11    4    5     15.35      0.00
  -10    4    5     13.42      0.00
   -9    4    5      6.60      0.00
   -8    4    5    -14.52      0.00
   -7    4    5    -29.46      0.00
   -6    4    5      6.36      0.00
   -5    4    5    -23.82      0.00
   -4    4    5     -5.45      0.00
   -3    4    5      9.87      0.00
   -2    4    5      2.75      0.00
   -1    4    5     16.55      0.00
    0    4    5    -12.14      0.00
    1    4    5    -30.37      0.00
    2    4    5     22.00      0.00
    3    4    5    -12.79      0.00
    4    4    5     -9.15      0.00
    5    4    5     38.66      0.00
    6    4    5      3.67      0.00
    7    4    5    -12.46      0.00
    8    4    5    -23.19      0.00
    9    4    5     -4.69      0.00
   10    4    5      7.50      0.00
   11    4    5     -3.32      0.00
   12    4    5    -14.07      0.00
   13    4    5     22.61      0.00
   14    4    5     -4.70      0.00
   15    4    5     -9.49      0.00
   16    4    5     -4.15      0.00
   17    4    5     -8.19      0.00
   18    4    5     -0.91      0.00
   19    4    5      6.04      0.00
   20    4    5     -2.75      0.00
   21    4    5      2.73      0.00
  -21    5    5      2.01      0.00
  -20    5    5      7.43      0.00
  -19    5    5      8.39      0.00
  -18    5    5      1.72      0.00
  -17    5    5     -4.57      0.00
  -16    5    5     -4.94      0.00
  -15    5    5     17.23      0.00
  -14    5    5    -10.30      0.00
  -13    5    5      1.44      0.00
  -12    5    5     17.74      0.00
  -11    5    5     22.36      0.00
  -10    5    5     -8.47      0.00
   -9    5    5      1.90      0.00
   -8    5    5    -13.23      0.00
   -7    5    5     25.00      0.00
   -6    5    5     -5.45      0.00
   -5    5    5     23.17      0.00
   -4    5    5     38.73      0.00
   -3    5    5     13.59      0.00
   -2    5    5     -7.00      0.00
   -1    5    5     16.74      0.00
    0    5    5     -7.67      0.00
    1    5    5     26.57      0.00
    2    5    5      4.54      0.00
    3    5    5     -3.22      0.00
    4    5    5     31.60      0.00
    5    5    5     12.90      0.00
    6    5    5    -20.16      0.00
    7    5    5    -13.10      0.00
    8    5    5     -2.14      0.00
    9    5    5     20.65      0.00
   10    5    5      7.57      0.00
   11    5    5    -15.50      0.00
   12    5    5     11.86      0.00
   13    5    5      3.90      0.00
   14    5    5    -18.05      0.00
   15    5    5     -2.58      0.00
   16    5    5      0.52      0.00
   17    5    5     -1.30      0.00
   18    5    5      7.48      0.00
   19    5    5     -2.20      0.00
   20    5    5      1.08      0.00
  -20    6    5      1.89      0.00
  -19    6    5     -3.79      0.00
  -18    6    5     -5.07      0.00
  -17    6    5     -9.57      0.00
  -16    6    5      7.72      0.00
  -15    6    5     -2.88      0.00
  -14    6    5     -4.70      0.00
  -13    6    5      5.63      0.00
  -12    6    5      3.12      0.00
  -11    6    5    -16.76      0.00
  -10    6    5     -7.31      0.00
   -9    6    5     -6.06      0.00
   -8    6    5      8.26      0.00
   -7    6    5     -5.00      0.00
   -6    6    5     -1.25      0.00
   -5    6    5     25.83      0.00
   -4    6    5     -8.03      0.00
   -3    6    5    -40.50      0.00
   -2    6    5      0.09      0.00
   -1    6    5      2.90      0.00
    0    6    5      3.48      0.00
    1    6    5     -4.63      0.00
    2    6    5     -9.53      0.00
    3    6    5      8.40      0.00
    4    6    5      4.53      0.00
    5    6    5    -27.88      0.00
    6    6    5     -3.77      0.00
    7    6    5     -1.85      0.00
    8    6    5     14.92      0.00
    9    6    5     10.91      0.00
   10    6    5    -10.23      0.00
   11    6    5     -3.60      0.00
   12    6    5     13.94      0.00
   13    6    5    -12.80      0.00
   14    6    5      3.40      0.00
   15    6    5      9.06      0.00
   16    6    5      3.01      0.00
   17    6    5      6.08      0.00
   18    6    5      1.21      0.00
   19    6    5     -2.00      0.00
  -18    7    5     -3.90      0.00
  -17    7    5      1.94      0.00
  -16    7    5      5.14      0.00
  -15    7    5     -2.03      0.00
  -14    7    5      4.42      0.00
  -13    7    5     -6.94      0.00
  -12    7    5     -8.76      0.00
  -11    7    5     -4.07      0.00
  -10    7    5      7.29      0.00
   -9    7    5     -2.07      0.00
   -8    7    5      4.12      0.00
   -7    7    5    -13.42      0.00
   -6    7    5     12.70      0.00
   -5    7    5     -9.15      0.00
   -4    7    5    -34.72      0.00
   -3    7    5     -7.02      0.00
   -2    7    5     18.69      0.00
   -1    7    5     -2.24      0.00
    0    7    5     -6.50      0.00
    1    7    5     -9.49      0.00
    2    7    5      1.05      0.00
    3    7    5      0.04      0.00
    4    7    5    -20.64      0.00
    5    7    5      1.86      0.00
    6    7    5      7.77      0.00
    7    7    5     -0.27      0.00
    8    7    5      7.06      0.00
    9    7    5     -3.16      0.00
   10    7    5    -14.29      0.00
   11    7    5      7.58      0.00
   12    7    5     -6.49      0.00
   13    7    5      0.07      0.00
   14    7    5      6.84      0.00
   15    7    5     -1.32      0.00
   16    7    5     -2.10      0.00
   17    7    5      0.87      0.00
  -17    8    5      5.05      0.00
  -16    8    5      0.15      0.00
  -15    8    5      3.43      0.00
  -14    8    5     -5.43      0.00
  -13    8    5     -1.90      0.00
  -12    8    5      6.48      0.00
  -11    8    5     13.32      0.00
  -10    8    5     -1.20      0.00
   -9    8    5      7.01      0.00
   -8    8    5     -3.42      0.00
   -7    8    5      5.08      0.00
   -6    8    5      3.83      0.00
   -5    8    5     -9.69      0.00
   -4    8    5      1.77      0.00
   -3    8    5     25.54      0.00
   -2    8    5      5.22      0.00
   -1    8    5      0.95      0.00
    0    8    5     -2.29      0.00
    1    8    5      3.64      0.00
    2    8    5      4.03      0.00
    3    8    5     -2.40      0.00
    4    8    5      5.53      0.00
    5    8    5     19.18      0.00
    6    8    5     -7.18      0.00
    7    8    5      2.63      0.00
    8    8    5      5.18      0.00
    9    8    5     -8.80      0.00
   10    8    5     -1.89      0.00
   11    8    5      2.73      0.00
   12    8    5     -0.64      0.00
   13    8    5      7.65      0.00
   14    8    5     -5.00      0.00
   15    8    5     -4.09      0.00
   16    8    5      1.31      0.00
  -14    9    5     -3.59      0.00
  -13    9    5      6.76      0.00
  -12    9    5      4.67      0.00
  -11    9    5     -4.34      0.00
  -10    9    5     -4.71      0.00
   -9    9    5      2.78      0.00
   -8    9    5     -6.17      0.00
   -7    9    5      2.09      0.00
   -6    9    5     -1.68      0.00
   -5    9    5      2.30      0.00
   -4    9    5      9.97      0.00
   -3    9    5      0.11      0.00
   -2    9    5     -0.74      0.00
   -1    9    5     -1.61      0.00
    0    9    5     -5.17      0.00
    1    9    5      1.35      0.00
    2    9    5      4.07      0.00
    3    9    5      3.11      0.00
    4    9    5     11.10      0.00
    5    9    5    -10.69      0.00
    6    9    5     -7.85      0.00
    7    9    5      6.78      0.00
    8    9    5     -1.66      0.00
    9    9    5     -7.06      0.00
   10    9    5      5.76      0.00
   11    9    5      0.45      0.00
   12    9    5      6.96      0.00
   13    9    5     -4.40      0.00
   14    9    5     -2.79      0.00
  -11   10    5     -8.03      0.00
  -10   10    5      4.67      0.00
   -9   10    5     -6.20      0.00
   -8   10    5     -1.51      0.00
   -7   10    5     -0.84      0.00
   -6   10    5      4.71      0.00
   -5   10    5     -2.83      0.00
   -4   10    5     -6.08      0.00
   -3   10    5     -2.51      0.00
   -2   10    5      1.70      0.00
   -1   10    5    -10.08      0.00
    0   10    5     -3.13      0.00
    1   10    5      5.79      0.00
    2   10    5      1.16      0.00
    3   10    5     -1.59      0.00
    4   10    5     -8.58      0.00
    5   10    5    -12.03      0.00
    6   10    5      5.75      0.00
    7   10    5      2.06      0.00
    8   10    5     -5.50      0.00
    9   10    5      2.27      0.00
   10   10    5      0.93      0.00
   11   10    5      1.66      0.00
   -7   11    5      5.77      0.00
   -6   11    5     -1.55      0.00
   -5   11    5     -4.12      0.00
   -4   11    5     -0.88      0.00
   -3   11    5      7.26      0.00
   -2   11    5     -3.41      0.00
   -1   11    5     -2.60      0.00
    0   11    5      6.21      0.00
    1   11    5      2.37      0.00
    2   11    5     -2.79      0.00
    3   11    5     -2.75      0.00
    4   11    5     -3.38      0.00
    5   11    5      4.63      0.00
    6   11    5      4.64      0.00
  -22    0    6      4.94      0.00
  -20    0    6     10.25      0.00
  -18    0    6      4.54      0.00
  -16    0    6    -14.38      0.00
  -14    0    6     46.33      0.00
  -12    0    6     11.89      0.00
  -10    0    6     28.10      0.00
   -8    0    6     -6.94      0.00
   -6    0    6     85.40      0.00
   -4    0    6     28.64      0.00
    0    0    6     46.65      0.00
    2    0    6     74.67      0.00
    4    0    6    -42.82      0.00
    6    0    6     -8.81      0.00
    8    0    6     -0.44      0.00
   10    0    6     50.05      0.00
   12    0    6    -34.14      0.00
   14    0    6      3.26      0.00
   16    0    6      6.24      0.00
   18    0    6      4.60      0.00
   20    0    6     -6.63      0.00
   22    0    6     -1.73      0.00
  -23    1    6      3.60      0.00
  -22    1    6     -4.45      0.00
  -21    1    6     -0.46      0.00
  -20    1    6      1.45      0.00
  -19    1    6     -8.77      0.00
  -18    1    6     -2.71      0.00
  -17    1    6     -7.63      0.00
  -16    1    6     -3.45      0.00
  -15    1    6     29.90      0.00
  -14    1    6     -2.25      0.00
  -13    1    6    -14.73      0.00
  -12    1    6    -14.28      0.00
  -11    1    6     -3.68      0.00
  -10    1    6     -3.34      0.00
   -9    1    6     -9.17      0.00
   -8    1    6     -5.10      0.00
   -7    1    6     47.88      0.00
   -6    1    6    -15.21      0.00
   -5    1    6    -38.48      0.00
   -4    1    6      8.65      0.00
   -3    1    6    -14.63      0.00
   -2    1    6    -42.79      0.00
   -1    1    6     12.86      0.00
    0    1    6      3.66      0.00
    1    1    6     17.81      0.00
    2    1    6    -24.38      0.00
    3    1    6    -66.70      0.00
    4    1    6     10.45      0.00
    5    1    6     15.28      0.00
    6    1    6      2.65      0.00
    7    1    6     28.11      0.00
    8    1    6    -10.87      0.00
    9    1    6     32.92      0.00
   10    1    6      4.24      0.00
   11    1    6    -31.30      0.00
   12    1    6     -7.07      0.00
   13    1    6     22.04      0.00
   14    1    6      5.48      0.00
   15    1    6     14.37      0.00
   16    1    6     -1.37      0.00
   17    1    6      1.87      0.00
   18    1    6      1.56      0.00
   19    1    6     -7.48      0.00
   20    1    6      2.22      0.00
   21    1    6      2.55      0.00
   22    1    6     -2.93      0.00
  -23    2    6     -4.49      0.00
  -22    2    6     -7.81      0.00
  -21    2    6      4.11      0.00
  -20    2    6     -8.72      0.00
  -19    2    6     -2.12      0.00
  -18    2    6      1.82      0.00
  -17    2    6      1.50      0.00
  -16    2    6      6.22      0.00
  -15    2    6     -0.89      0.00
  -14    2    6    -25.80      0.00
  -13    2    6     -5.53      0.00
  -12    2    6    -21.39      0.00
  -11    2    6      7.82      0.00
  -10    2    6     -2.39      0.00
   -9    2    6      2.90      0.00
   -8    2    6     -4.97      0.00
   -7    2    6    -10.29      0.00
   -6    2    6    -73.14      0.00
   -5    2    6     11.92      0.00
   -4    2    6    -13.80      0.00
   -3    2    6    -36.33      0.00
   -2    2    6     -8.22      0.00
   -1    2    6     26.60      0.00
    0    2    6    -10.72      0.00
    1    2    6    -19.14      0.00
    2    2    6    -65.19      0.00
    3    2    6     26.77      0.00
    4    2    6     28.08      0.00
    5    2    6    -13.01      0.00
    6    2    6     20.02      0.00
    7    2    6    -16.30      0.00
    8    2    6    -14.18      0.00
    9    2    6     -0.13      0.00
   10    2    6    -22.65      0.00
   11    2    6     -9.03      0.00
   12    2    6     16.91      0.00
   13    2    6      2.52      0.00
   14    2    6      7.66      0.00
   15    2    6     -6.34      0.00
   16    2    6    -11.67      0.00
   17    2    6      0.06      0.00
   18    2    6     -5.83      0.00
   19    2    6      0.58      0.00
   20    2    6      8.18      0.00
   21    2    6     -4.34      0.00
   22    2    6      0.80      0.00
  -22    3    6      3.59      0.00
  -21    3    6      2.84      0.00
  -20    3    6      0.15      0.00
  -19    3    6     10.85      0.00
  -18    3    6      7.57      0.00
  -17    3    6     -1.52      0.00
  -16    3    6      2.48      0.00
  -15    3    6    -10.60      0.00
  -14    3    6     14.56      0.00
  -13    3    6     -5.66      0.00
  -12    3    6     14.81      0.00
  -11    3    6     23.32      0.00
  -10    3    6     18.90      0.00
   -9    3    6    -16.67      0.00
   -8    3    6      6.01      0.00
   -7    3    6    -25.96      0.00
   -6    3    6     33.20      0.00
   -5    3    6     35.96      0.00
   -4    3    6      5.33      0.00
   -3    3    6     18.66      0.00
   -2    3    6     43.90      0.00
   -1    3    6      0.21      0.00
    0    3    6      7.62      0.00
    1    3    6    -28.03      0.00
    2    3    6     34.52      0.00
    3    3    6     43.25      0.00
    4    3    6    -15.04      0.00
    5    3    6      6.39      0.00
    6    3    6      4.42      0.00
    7    3    6    -34.43      0.00
    8    3    6      4.48      0.00
    9    3    6      0.67      0.00
   10    3    6      5.87      0.00
   11    3    6      5.59      0.00
   12    3    6     -2.60      0.00
   13    3    6     -2.02      0.00
   14    3    6     -0.77      0.00
   15    3    6    -22.78      0.00
   16    3    6      0.67      0.00
   17    3    6      3.37      0.00
   18    3    6     -1.41      0.00
   19    3    6      7.45      0.00
   20    3    6     -3.21      0.00
   21    3    6     -4.89      0.00
  -21    4    6     -0.20      0.00
  -20    4    6      7.05      0.00
  -19    4    6      0.88      0.00
  -18    4    6     -7.40      0.00
  -17    4    6     -6.15      0.00
  -16    4    6     -2.12      0.00
  -15    4    6     11.08      0.00
  -14    4    6      3.39      0.00
  -13    4    6     -9.47      0.00
  -12    4    6     20.90      0.00
  -11    4    6      7.37      0.00
  -10    4    6    -22.68      0.00
   -9    4    6    -12.21      0.00
   -8    4    6     10.15      0.00
   -7    4    6     16.71      0.00
   -6    4    6     35.01      0.00
   -5    4    6     -9.59      0.00
   -4    4    6      6.53      0.00
   -3    4    6      6.82      0.00
   -2    4    6    -19.24      0.00
   -1    4    6     -1.07      0.00
    0    4    6     -2.26      0.00
    1    4    6      5.05      0.00
    2    4    6     29.70      0.00
    3    4    6    -17.64      0.00
    4    4    6     -8.74      0.00
    5    4    6     15.19      0.00
    6    4    6    -30.44      0.00
    7    4    6      2.56      0.00
    8    4    6     20.80      0.00
    9    4    6     17.94      0.00
   10    4    6      1.50      0.00
   11    4    6     -4.98      0.00
   12    4    6     -3.85      0.00
   13    4    6     14.92      0.00
   14    4    6    -16.18      0.00
   15    4    6      3.03      0.00
   16    4    6     16.00      0.00
   17    4    6      1.52      0.00
   18    4    6      0.67      0.00
   19    4    6      1.71      0.00
   20    4    6     -5.82      0.00
   21    4    6      1.78      0.00
  -21    5    6      0.74      0.00
  -20    5    6     -4.29      0.00
  -19    5    6     -8.89      0.00
  -18    5    6     -7.83      0.00
  -17    5    6      3.37      0.00
  -16    5    6      2.56      0.00
  -15    5    6      6.43      0.00
  -14    5    6    -22.44      0.00
  -13    5    6      4.25      0.00
  -12    5    6     -0.58      0.00
  -11    5    6    -18.62      0.00
  -10    5    6    -24.14      0.00
   -9    5    6     17.99      0.00
   -8    5    6     -2.42      0.00
   -7    5    6      6.29      0.00
   -6    5    6    -29.95      0.00
   -5    5    6    -11.09      0.00
   -4    5    6    -16.49      0.00
   -3    5    6    -33.88      0.00
   -2    5    6    -10.20      0.00
   -1    5    6     19.22      0.00
    0    5    6    -17.84      0.00
    1    5    6      0.51      0.00
    2    5    6    -16.03      0.00
    3    5    6    -13.51      0.00
    4    5    6      8.34      0.00
    5    5    6    -18.00      0.00
    6    5    6     -8.23      0.00
    7    5    6     24.36      0.00
    8    5    6      8.72      0.00
    9    5    6     -5.62      0.00
   10    5    6    -13.78      0.00
   11    5    6     -8.54      0.00
   12    5    6     16.11      0.00
   13    5    6     -3.50      0.00
   14    5    6     -4.46      0.00
   15    5    6     17.00      0.00
   16    5    6      1.92      0.00
   17    5    6     -7.35      0.00
   18    5    6      3.10      0.00
   19    5    6     -4.93      0.00
   20    5    6      0.90      0.00
  -20    6    6     -4.01      0.00
  -19    6    6     -0.65      0.00
  -18    6    6      9.00      0.00
  -17    6    6      3.27      0.00
  -16    6    6      8.16      0.00
  -15    6    6     -8.38      0.00
  -14    6    6     -1.41      0.00
  -13    6    6      7.57      0.00
  -12    6    6     -2.11      0.00
  -11    6    6     -3.15      0.00
  -10    6    6     19.87      0.00
   -9    6    6      6.46      0.00
   -8    6    6     -1.64      0.00
   -7    6    6     -9.07      0.00
   -6    6    6     -1.03      0.00
   -5    6    6      7.65      0.00
   -4    6    6    -13.48      0.00
   -3    6    6      6.29      0.00
   -2    6    6     43.16      0.00
   -1    6    6     -3.64      0.00
    0    6    6    -12.97      0.00
    1    6    6     -0.32      0.00
    2    6    6      4.09      0.00
    3    6    6      7.81      0.00
    4    6    6      0.23      0.00
    5    6    6     -7.52      0.00
    6    6    6     24.11      0.00
    7    6    6     -0.04      0.00
    8    6    6     -8.91      0.00
    9    6    6    -11.43      0.00
   10    6    6     -8.08      0.00
   11    6    6      6.43      0.00
   12    6    6      7.74      0.00
   13    6    6    -14.60      0.00
   14    6    6      5.68      0.00
   15    6    6     -2.59      0.00
   16    6    6    -10.83      0.00
   17    6    6     -0.44      0.00
   18    6    6     -2.53      0.00
   19    6    6     -2.02      0.00
  -18    7    6      0.76      0.00
  -17    7    6      0.47      0.00
  -16    7    6     -1.02      0.00
  -15    7    6     -6.98      0.00
  -14    7    6      5.06      0.00
  -13    7    6     -0.56      0.00
  -12    7    6      7.53      0.00
  -11    7    6      8.03      0.00
  -10    7    6      2.90      0.00
   -9    7    6    -11.13      0.00
   -8    7    6      5.11      0.00
   -7    7    6     -1.51      0.00
   -6    7    6     15.04      0.00
   -5    7    6     -1.44      0.00
   -4    7    6      5.11      0.00
   -3    7    6     30.82      0.00
   -2    7    6      3.74      0.00
   -1    7    6    -24.38      0.00
    0    7    6      2.63      0.00
    1    7    6     12.00      0.00
    2    7    6      6.99      0.00
    3    7    6      2.90      0.00
    4    7    6     -4.65      0.00
    5    7    6     14.48      0.00
    6    7    6     -0.85      0.00
    7    7    6    -12.85      0.00
    8    7    6      0.64      0.00
    9    7    6      0.52      0.00
   10    7    6     -0.15      0.00
   11    7    6     15.59      0.00
   12    7    6     -6.16      0.00
   13    7    6     -0.73      0.00
   14    7    6      1.18      0.00
   15    7    6     -4.12      0.00
   16    7    6      1.60      0.00
   17    7    6      3.86      0.00
  -16    8    6     -5.44      0.00
  -15    8    6      0.42      0.00
  -14    8    6     -1.44      0.00
  -13    8    6      4.13      0.00
  -12    8    6     -0.27      0.00
  -11    8    6     -8.72      0.00
  -10    8    6    -15.00      0.00
   -9    8    6      4.51      0.00
   -8    8    6     -3.66      0.00
   -7    8    6      0.22      0.00
   -6    8    6     -1.10      0.00
   -5    8    6     -6.09      0.00
   -4    8    6      2.96      0.00
   -3    8    6     -2.15      0.00
   -2    8    6    -26.35      0.00
   -1    8    6     -3.21      0.00
    0    8    6      5.84      0.00
    1    8    6      1.82      0.00
    2    8    6     -3.36      0.00
    3    8    6     -5.79      0.00
    4    8    6     -2.61      0.00
    5    8    6     -0.68      0.00
    6    8    6    -16.42      0.00
    7    8    6      6.13      0.00
    8    8    6      5.92      0.00
    9    8    6     -5.15      0.00
   10    8    6      7.27      0.00
   11    8    6      4.00      0.00
   12    8    6     -6.95      0.00
   13    8    6      1.80      0.00
   14    8    6     -2.75      0.00
   15    8    6      3.35      0.00
  -14    9    6      2.14      0.00
  -13    9    6      2.99      0.00
  -12    9    6     -8.29      0.00
  -11    9    6     -5.14      0.00
  -10    9    6      6.73      0.00
   -9    9    6      7.02      0.00
   -8    9    6     -5.76      0.00
   -7    9    6      4.73      0.00
   -6    9    6     -1.42      0.00
   -5    9    6     -3.96      0.00
   -4    9    6     -1.01      0.00
   -3    9    6     -8.88      0.00
   -2    9    6      1.50      0.00
   -1    9    6      4.75      0.00
    0    9    6      0.76      0.00
    1    9    6      2.40      0.00
    2    9    6     -1.56      0.00
    3    9    6     -7.66      0.00
    4    9    6      1.04      0.00
    5    9    6     -5.79      0.00
    6    9    6      8.15      0.00
    7    9    6      9.81      0.00
    8    9    6     -6.13      0.00
    9    9    6     -3.27      0.00
   10    9    6      6.95      0.00
   11    9    6     -7.12      0.00
   12    9    6      0.01      0.00
   13    9    6     -3.17      0.00
  -11   10    6      4.68      0.00
  -10   10    6     10.09      0.00
   -9   10    6     -5.57      0.00
   -8   10    6      4.51      0.00
   -7   10    6      2.10      0.00
   -6   10    6     -0.98      0.00
   -5   10    6     -2.27      0.00
   -4   10    6      4.65      0.00
   -3   10    6      6.48      0.00
   -2   10    6      3.54      0.00
   -1   10    6     -2.43      0.00
    0   10    6      6.61      0.00
    1   10    6      3.42      0.00
    2   10    6     -6.72      0.00
    3   10    6      0.71      0.00
    4   10    6      5.80      0.00
    5   10    6      5.93      0.00
    6   10    6      8.92      0.00
    7   10    6     -5.28      0.00
    8   10    6     -6.16      0.00
    9   10    6      5.16      0.00
   10   10    6     -1.33      0.00
   -6   11    6     -4.07      0.00
   -5   11    6      3.18      0.00
   -4   11    6      2.79      0.00
   -3   11    6      0.11      0.00
   -2   11    6     -6.86      0.00
   -1   11    6      1.43      0.00
    0   11    6      3.48      0.00
    1   11    6     -5.55      0.00
    2   11    6     -1.48      0.00
    3   11    6      4.46      0.00
    4   11    6      0.92      0.00
    5   11    6      1.12      0.00
  -23    0    7      0.19      0.00
  -21    0    7    -10.11      0.00
  -19    0    7     -8.77      0.00
  -17    0    7     -0.55      0.00
  -15    0    7      1.53      0.00
  -13    0    7    -57.54      0.00
  -11    0    7      0.93      0.00
   -9    0    7    -29.78      0.00
   -7    0    7     -5.12      0.00
   -5    0    7    -88.58      0.00
   -3    0    7     -1.21      0.00
   -1    0    7    -17.81      0.00
    1    0    7    -48.01      0.00
    3    0    7    -29.24      0.00
    5    0    7     50.31      0.00
    7    0    7     -6.15      0.00
    9    0    7    -14.11      0.00
   11    0    7    -27.73      0.00
   13    0    7     35.12      0.00
   15    0    7    -10.74      0.00
   17    0    7     -6.10      0.00
   19    0    7      1.00      0.00
   21    0    7      5.47      0.00
  -23    1    7     -3.92      0.00
  -22    1    7     -5.77      0.00
  -21    1    7      5.93      0.00
  -20    1    7      5.09      0.00
  -19    1    7     -1.67      0.00
  -18    1    7      8.32      0.00
  -17    1    7      3.93      0.00
  -16    1    7     -2.97      0.00
  -15    1    7      4.53      0.00
  -14    1    7    -28.01      0.00
  -13    1    7      4.59      0.00
  -12    1    7     29.04      0.00
  -11    1    7     15.11      0.00
  -10    1    7     -4.60      0.00
   -9    1    7     -0.54      0.00
   -8    1    7      0.22      0.00
   -7    1    7      6.73      0.00
   -6    1    7    -36.77      0.00
   -5    1    7     13.25      0.00
   -4    1    7     55.45      0.00
   -3    1    7     -2.57      0.00
   -2    1    7     -3.97      0.00
   -1    1    7     37.40      0.00
    0    1    7    -17.17      0.00
    1    1    7     -9.82      0.00
    2    1    7      6.16      0.00
    3    1    7     16.16      0.00
    4    1    7     44.23      0.00
    5    1    7    -13.57      0.00
    6    1    7    -38.66      0.00
    7    1    7      3.60      0.00
    8    1    7    -27.44      0.00
    9    1    7      8.17      0.00
   10    1    7    -11.49      0.00
   11    1    7     -5.73      0.00
   12    1    7     22.64      0.00
   13    1    7      6.16      0.00
   14    1    7    -27.84      0.00
   15    1    7     -6.22      0.00
   16    1    7     -7.17      0.00
   17    1    7      1.19      0.00
   18    1    7      4.82      0.00
   19    1    7     -1.29      0.00
   20    1    7      4.24      0.00
   21    1    7     -1.05      0.00
   22    1    7     -3.18      0.00
  -22    2    7      5.96      0.00
  -21    2    7     12.16      0.00
  -20    2    7     -5.57      0.00
  -19    2    7      5.39      0.00
  -18    2    7      3.08      0.00
  -17    2    7     -4.28      0.00
  -16    2    7     -0.91      0.00
  -15    2    7      3.63      0.00
  -14    2    7      2.25      0.00
  -13    2    7     34.44      0.00
  -12    2    7      2.86      0.00
  -11    2    7     11.56      0.00
  -10    2    7     -9.69      0.00
   -9    2    7      1.99      0.00
   -8    2    7      2.43      0.00
   -7    2    7     23.50      0.00
   -6    2    7     10.52      0.00
   -5    2    7     68.14      0.00
   -4    2    7     -7.11      0.00
   -3    2    7    -11.47      0.00
   -2    2    7     29.43      0.00
   -1    2    7      8.59      0.00
    0    2    7    -28.73      0.00
    1    2    7     20.89      0.00
    2    2    7     17.54      0.00
    3    2    7     37.13      0.00
    4    2    7    -19.17      0.00
    5    2    7    -42.28      0.00
    6    2    7     22.43      0.00
    7    2    7     -3.87      0.00
    8    2    7     11.05      0.00
    9    2    7     22.26      0.00
   10    2    7     -1.73      0.00
   11    2    7      7.98      0.00
   12    2    7      9.01      0.00
   13    2    7    -19.60      0.00
   14    2    7     -3.00      0.00
   15    2    7      1.66      0.00
   16    2    7      5.55      0.00
   17    2    7     11.78      0.00
   18    2    7     -0.98      0.00
   19    2    7     -1.55      0.00
   20    2    7      0.09      0.00
   21    2    7     -6.15      0.00
  -22    3    7      6.02      0.00
  -21    3    7     -6.03      0.00
  -20    3    7     -7.88      0.00
  -19    3    7     -0.75      0.00
  -18    3    7     -8.13      0.00
  -17    3    7     -9.34      0.00
  -16    3    7      8.52      0.00
  -15    3    7     -4.85      0.00
  -14    3    7      9.01      0.00
  -13    3    7    -19.35      0.00
  -12    3    7     -4.03      0.00
  -11    3    7    -13.17      0.00
  -10    3    7    -18.72      0.00
   -9    3    7    -17.20      0.00
   -8    3    7     27.92      0.00
   -7    3    7     -7.53      0.00
   -6    3    7      4.64      0.00
   -5    3    7    -32.34      0.00
   -4    3    7    -46.23      0.00
   -3    3    7     -4.97      0.00
   -2    3    7     -1.53      0.00
   -1    3    7    -39.19      0.00
    0    3    7      9.00      0.00
    1    3    7     -1.25      0.00
    2    3    7     11.72      0.00
    3    3    7    -19.97      0.00
    4    3    7    -40.25      0.00
    5    3    7     18.78      0.00
    6    3    7     16.67      0.00
    7    3    7     -8.24      0.00
    8    3    7     29.75      0.00
    9    3    7     -3.72      0.00
   10    3    7    -10.20      0.00
   11    3    7     -0.63      0.00
   12    3    7     -1.68      0.00
   13    3    7      3.15      0.00
   14    3    7      9.86      0.00
   15    3    7      0.58      0.00
   16    3    7     15.20      0.00
   17    3    7      0.00      0.00
   18    3    7     -9.31      0.00
   19    3    7      2.72      0.00
   20    3    7     -2.71      0.00
   21    3    7      1.57      0.00
  -21    4    7     -9.10      0.00
  -20    4    7      1.24      0.00
  -19    4    7     -2.00      0.00
  -18    4    7     -1.02      0.00
  -17    4    7      9.16      0.00
  -16    4    7      4.34      0.00
  -15    4    7     -4.03      0.00
  -14    4    7    -11.85      0.00
  -13    4    7     -8.39      0.00
  -12    4    7     13.72      0.00
  -11    4    7    -14.61      0.00
  -10    4    7     -9.92      0.00
   -9    4    7     23.86      0.00
   -8    4    7     11.06      0.00
   -7    4    7    -28.69      0.00
   -6    4    7    -17.25      0.00
   -5    4    7    -26.60      0.00
   -4    4    7     12.49      0.00
   -3    4    7     12.06      0.00
   -2    4    7     -9.67      0.00
   -1    4    7     16.91      0.00
    0    4    7      1.46      0.00
    1    4    7    -10.05      0.00
    2    4    7      0.14      0.00
    3    4    7    -19.96      0.00
    4    4    7      8.14      0.00
    5    4    7     22.92      0.00
    6    4    7    -19.27      0.00
    7    4    7     15.42      0.00
    8    4    7     -4.47      0.00
    9    4    7    -24.67      0.00
   10    4    7    -13.03      0.00
   11    4    7      5.44      0.00
   12    4    7      1.58      0.00
   13    4    7      6.67      0.00
   14    4    7    -13.89      0.00
   15    4    7      6.70      0.00
   16    4    7     -0.04      0.00
   17    4    7    -15.10      0.00
   18    4    7     -0.42      0.00
   19    4    7      4.64      0.00
   20    4    7     -1.93      0.00
  -20    5    7      2.21      0.00
  -19    5    7      5.68      0.00
  -18    5    7      7.66      0.00
  -17    5    7      8.03      0.00
  -16    5    7     -8.21      0.00
  -15    5    7      0.48      0.00
  -14    5    7     -4.51      0.00
  -13    5    7     26.29      0.00
  -12    5    7      2.19      0.00
  -11    5    7     -1.89      0.00
  -10    5    7     15.42      0.00
   -9    5    7     26.15      0.00
   -8    5    7    -24.05      0.00
   -7    5    7      2.86      0.00
   -6    5    7      8.25      0.00
   -5    5    7     31.00      0.00
   -4    5    7     20.13      0.00
   -3    5    7      7.45      0.00
   -2    5    7     21.14      0.00
   -1    5    7      9.14      0.00
    0    5    7    -25.81      0.00
    1    5    7     16.35      0.00
    2    5    7     10.21      0.00
    3    5    7      3.92      0.00
    4    5    7     15.03      0.00
    5    5    7     -9.33      0.00
    6    5    7      2.95      0.00
    7    5    7      6.50      0.00
    8    5    7    -21.34      0.00
    9    5    7     -6.20      0.00
   10    5    7     12.99      0.00
   11    5    7      7.13      0.00
   12    5    7      4.93      0.00
   13    5    7    -14.50      0.00
   14    5    7     -3.16      0.00
   15    5    7      5.91      0.00
   16    5    7    -11.16      0.00
   17    5    7     -3.28      0.00
   18    5    7     10.16      0.00
   19    5    7     -2.70      0.00
  -19    6    7      2.04      0.00
  -18    6    7      0.01      0.00
  -17    6    7    -13.14      0.00
  -16    6    7     -2.29      0.00
  -15    6    7     -3.58      0.00
  -14    6    7      7.98      0.00
  -13    6    7      4.01      0.00
  -12    6    7    -11.18      0.00
  -11    6    7     -3.19      0.00
  -10    6    7      4.74      0.00
   -9    6    7    -18.78      0.00
   -8    6    7     -6.21      0.00
   -7    6    7     10.20      0.00
   -6    6    7      7.62      0.00
   -5    6    7      0.11      0.00
   -4    6    7    -12.52      0.00
   -3    6    7      0.52      0.00
   -2    6    7     -1.10      0.00
   -1    6    7    -38.79      0.00
    0    6    7      5.39      0.00
    1    6    7     22.25      0.00
    2    6    7     -3.09      0.00
    3    6    7     -8.28      0.00
    4    6    7     -3.35      0.00
    5    6    7     -5.89      0.00
    6    6    7     10.16      0.00
    7    6    7    -14.73      0.00
    8    6    7      1.31      0.00
    9    6    7     15.08      0.00
   10    6    7      8.97      0.00
   11    6    7      2.52      0.00
   12    6    7     -2.64      0.00
   13    6    7     -8.16      0.00
   14    6    7     14.16      0.00
   15    6    7      0.74      0.00
   16    6    7     -0.38      0.00
   17    6    7      9.50      0.00
   18    6    7      0.24      0.00
  -18    7    7     -6.56      0.00
  -17    7    7     -0.44      0.00
  -16    7    7      4.70      0.00
  -15    7    7     -0.56      0.00
  -14    7    7      6.19      0.00
  -13    7    7     -7.97      0.00
  -12    7    7     -3.64      0.00
  -11    7    7     -6.03      0.00
  -10    7    7     -4.77      0.00
   -9    7    7     -2.90      0.00
   -8    7    7     12.35      0.00
   -7    7    7     -7.74      0.00
   -6    7    7     -5.02      0.00
   -5    7    7    -13.69      0.00
   -4    7    7     -5.92      0.00
   -3    7    7      0.47      0.00
   -2    7    7    -22.63      0.00
   -1    7    7     -2.33      0.00
    0    7    7     26.70      0.00
    1    7    7     -2.95      0.00
    2    7    7    -18.85      0.00
    3    7    7     -3.26      0.00
    4    7    7     -2.53      0.00
    5    7    7      7.27      0.00
    6    7    7     -6.88      0.00
    7    7    7     -1.19      0.00
    8    7    7     12.18      0.00
    9    7    7      0.06      0.00
   10    7    7     -7.40      0.00
   11    7    7      1.95      0.00
   12    7    7    -12.46      0.00
   13    7    7      4.09      0.00
   14    7    7      4.93      0.00
   15    7    7     -2.42      0.00
   16    7    7      0.99      0.00
   17    7    7     -0.35      0.00
  -16    8    7     -1.39      0.00
  -15    8    7      3.73      0.00
  -14    8    7      0.06      0.00
  -13    8    7     -0.02      0.00
  -12    8    7     -1.92      0.00
  -11    8    7      3.44      0.00
  -10    8    7      8.96      0.00
   -9    8    7     14.43      0.00
   -8    8    7     -6.30      0.00
   -7    8    7     -1.21      0.00
   -6    8    7      4.05      0.00
   -5    8    7      1.46      0.00
   -4    8    7      6.94      0.00
   -3    8    7      3.12      0.00
   -2    8    7      0.66      0.00
   -1    8    7     23.44      0.00
    0    8    7      1.89      0.00
    1    8    7    -11.95      0.00
    2    8    7     -0.99      0.00
    3    8    7      6.19      0.00
    4    8    7      5.89      0.00
    5    8    7      5.31      0.00
    6    8    7     -3.85      0.00
    7    8    7      9.45      0.00
    8    8    7     -4.34      0.00
    9    8    7    -10.73      0.00
   10    8    7      4.19      0.00
   11    8    7     -2.63      0.00
   12    8    7     -5.83      0.00
   13    8    7      7.67      0.00
   14    8    7     -1.64      0.00
   15    8    7     -1.29      0.00
  -14    9    7     -1.66      0.00
  -13    9    7     -1.60      0.00
  -12    9    7     -1.88      0.00
  -11    9    7      8.37      0.00
  -10    9    7      4.95      0.00
   -9    9    7     -7.98      0.00
   -8    9    7     -9.37      0.00
   -7    9    7      8.48      0.00
   -6    9    7      0.11      0.00
   -5    9    7     -0.87      0.00
   -4    9    7      6.91      0.00
   -3    9    7     -0.31      0.00
   -2    9    7      5.59      0.00
   -1    9    7     -2.06      0.00
    0    9    7     -7.27      0.00
    1    9    7     -0.12      0.00
    2    9    7      1.87      0.00
    3    9    7      0.51      0.00
    4    9    7      8.05      0.00
    5    9    7     -3.97      0.00
    6    9    7     -0.13      0.00
    7    9    7     -4.58      0.00
    8    9    7     -7.45      0.00
    9    9    7      4.99      0.00
   10    9    7      7.45      0.00
   11    9    7     -6.61      0.00
   12    9    7      5.72      0.00
   13    9    7      0.52      0.00
  -11   10    7     -0.38      0.00
  -10   10    7     -5.46      0.00
   -9   10    7    -11.84      0.00
   -8   10    7      6.50      0.00
   -7   10    7     -0.58      0.00
   -6   10    7     -4.14      0.00
   -5   10    7      0.57      0.00
   -4   10    7      0.77      0.00
   -3   10    7     -6.44      0.00
   -2   10    7     -6.17      0.00
   -1   10    7     -2.69      0.00
    0   10    7      3.29      0.00
    1   10    7     -2.98      0.00
    2   10    7     -4.68      0.00
    3   10    7      5.30      0.00
    4   10    7     -0.86      0.00
    5   10    7     -8.21      0.00
    6   10    7     -3.08      0.00
    7   10    7     -3.52      0.00
    8   10    7      3.83      0.00
    9   10    7      7.23      0.00
   10   10    7     -4.16      0.00
   -6   11    7     -0.05      0.00
   -5   11    7      3.15      0.00
   -4   11    7     -3.76      0.00
   -3   11    7     -1.79      0.00
   -2   11    7      1.68      0.00
   -1   11    7      6.21      0.00
    0   11    7     -0.13      0.00
    1   11    7     -4.90      0.00
    2   11    7      3.78      0.00
    3   11    7      2.32      0.00
    4   11    7     -4.72      0.00
  -22    0    8      3.29      0.00
  -20    0    8     13.64      0.00
  -18    0    8      4.76      0.00
  -16    0    8      2.49      0.00
  -14    0    8     13.04      0.00
  -12    0    8     60.20      0.00
  -10    0    8    -16.31      0.00
   -8    0    8     37.04      0.00
   -6    0    8     16.25      0.00
   -4    0    8     74.69      0.00
   -2    0    8    -21.12      0.00
    0    0    8     24.02      0.00
    2    0    8     37.11      0.00
    4    0    8     -5.08      0.00
    6    0    8    -40.69      0.00
    8    0    8     22.00      0.00
   10    0    8     14.73      0.00
   12    0    8      7.54      0.00
   14    0    8    -28.55      0.00
   16    0    8     16.75      0.00
   18    0    8      1.96      0.00
   20    0    8     -4.03      0.00
  -23    1    8      2.86      0.00
  -22    1    8      3.76      0.00
  -21    1    8      4.82      0.00
  -20    1    8     -7.21      0.00
  -19    1    8     -9.31      0.00
  -18    1    8      2.24      0.00
  -17    1    8     -3.00      0.00
  -16    1    8     -6.31      0.00
  -15    1    8     10.33      0.00
  -14    1    8     -4.86      0.00
  -13    1    8     19.18      0.00
  -12    1    8     -6.79      0.00
  -11    1    8    -39.38      0.00
  -10    1    8    -13.65      0.00
   -9    1    8     18.30      0.00
   -8    1    8      4.44      0.00
   -7    1    8      2.56      0.00
   -6    1    8    -10.16      0.00
   -5    1    8     17.59      0.00
   -4    1    8    -10.77      0.00
   -3    1    8    -56.93      0.00
   -2    1    8     -2.02      0.00
   -1    1    8     24.52      0.00
    0    1    8    -28.01      0.00
    1    1    8     11.42      0.00
    2    1    8     15.24      0.00
    3    1    8    -17.55      0.00
    4    1    8    -12.50      0.00
    5    1    8    -15.69      0.00
    6    1    8     13.34      0.00
    7    1    8     49.63      0.00
    8    1    8     -7.81      0.00
    9    1    8     14.90      0.00
   10    1    8     -4.43      0.00
   11    1    8     -2.01      0.00
   12    1    8      6.41      0.00
   13    1    8    -10.20      0.00
   14    1    8     -5.09      0.00
   15    1    8     27.59      0.00
   16    1    8      5.99      0.00
   17    1    8     -2.40      0.00
   18    1    8     -1.25      0.00
   19    1    8     -6.57      0.00
   20    1    8      0.88      0.00
   21    1    8     -0.85      0.00
  -22    2    8     -2.13      0.00
  -21    2    8     -6.47      0.00
  -20    2    8    -14.28      0.00
  -19    2    8      7.04      0.00
  -18    2    8     -0.65      0.00
  -17    2    8     -5.39      0.00
  -16    2    8      2.04      0.00
  -15    2    8      1.69      0.00
  -14    2    8    -15.33      0.00
  -13    2    8     -3.23      0.00
  -12    2    8    -35.88      0.00
  -11    2    8      0.66      0.00
  -10    2    8      0.09      0.00
   -9    2    8      9.32      0.00
   -8    2    8     -8.73      0.00
   -7    2    8     -9.62      0.00
   -6    2    8    -37.33      0.00
   -5    2    8     -7.79      0.00
   -4    2    8    -47.34      0.00
   -3    2    8      3.49      0.00
   -2    2    8     29.37      0.00
   -1    2    8    -20.97      0.00
    0    2    8    -17.68      0.00
    1    2    8     27.57      0.00
    2    2    8    -20.27      0.00
    3    2    8    -20.37      0.00
    4    2    8    -10.31      0.00
    5    2    8     11.73      0.00
    6    2    8     40.89      0.00
    7    2    8    -26.09      0.00
    8    2    8    -13.93      0.00
    9    2    8     -4.24      0.00
   10    2    8    -19.66      0.00
   11    2    8      1.92      0.00
   12    2    8      5.57      0.00
   13    2    8     -8.45      0.00
   14    2    8     15.25      0.00
   15    2    8      3.10      0.00
   16    2    8     -9.04      0.00
   17    2    8     -4.15      0.00
   18    2    8     -6.80      0.00
   19    2    8      1.35      0.00
   20    2    8      5.59      0.00
   21    2    8     -0.78      0.00
  -22    3    8     -1.41      0.00
  -21    3    8     -4.53      0.00
  -20    3    8      8.57      0.00
  -19    3    8     11.68      0.00
  -18    3    8      0.94      0.00
  -17    3    8      2.43      0.00
  -16    3    8     12.03      0.00
  -15    3    8    -13.34      0.00
  -14    3    8      7.04      0.00
  -13    3    8     -1.81      0.00
  -12    3    8     22.14      0.00
  -11    3    8     10.67      0.00
  -10    3    8      9.77      0.00
   -9    3    8      9.24      0.00
   -8    3    8     14.86      0.00
   -7    3    8    -29.20      0.00
   -6    3    8     10.76      0.00
   -5    3    8     19.45      0.00
   -4    3    8     28.02      0.00
   -3    3    8     41.00      0.00
   -2    3    8      4.06      0.00
   -1    3    8    -18.11      0.00
    0    3    8     31.97      0.00
    1    3    8     -7.11      0.00
    2    3    8     -6.80      0.00
    3    3    8      1.05      0.00
    4    3    8      9.88      0.00
    5    3    8     27.05      0.00
    6    3    8    -16.77      0.00
    7    3    8    -32.02      0.00
    8    3    8     11.47      0.00
    9    3    8    -17.03      0.00
   10    3    8      0.06      0.00
   11    3    8     15.45      0.00
   12    3    8     -2.77      0.00
   13    3    8     -6.28      0.00
   14    3    8     -2.39      0.00
   15    3    8    -11.15      0.00
   16    3    8     -0.47      0.00
   17    3    8     -6.13      0.00
   18    3    8     -1.15      0.00
   19    3    8     10.15      0.00
   20    3    8     -2.94      0.00
   21    3    8     -1.11      0.00
  -21    4    8      2.03      0.00
  -20    4    8     10.10      0.00
  -19    4    8     -2.22      0.00
  -18    4    8     -3.43      0.00
  -17    4    8      1.69      0.00
  -16    4    8     -7.82      0.00
  -15    4    8     -2.72      0.00
  -14    4    8     12.57      0.00
  -13    4    8     10.25      0.00
  -12    4    8      8.08      0.00
  -11    4    8    -16.47      0.00
  -10    4    8      7.49      0.00
   -9    4    8     13.18      0.00
   -8    4    8    -17.70      0.00
   -7    4    8     -9.88      0.00
   -6    4    8     40.21      0.00
   -5    4    8     15.07      0.00
   -4    4    8      7.98      0.00
   -3    4    8    -12.03      0.00
   -2    4    8    -23.79      0.00
   -1    4    8     11.50      0.00
    0    4    8     -6.20      0.00
    1    4    8     -2.73      0.00
    2    4    8     15.64      0.00
    3    4    8     -0.98      0.00
    4    4    8      6.11      0.00
    5    4    8      2.39      0.00
    6    4    8    -26.92      0.00
    7    4    8     19.99      0.00
    8    4    8      1.57      0.00
    9    4    8      3.01      0.00
   10    4    8     22.01      0.00
   11    4    8      9.72      0.00
   12    4    8    -13.62      0.00
   13    4    8      2.08      0.00
   14    4    8     -2.84      0.00
   15    4    8      9.78      0.00
   16    4    8     -0.46      0.00
   17    4    8     -1.74      0.00
   18    4    8     10.69      0.00
   19    4    8      0.17      0.00
   20    4    8     -7.05      0.00
  -20    5    8     -3.44      0.00
  -19    5    8     -4.60      0.00
  -18    5    8     -6.92      0.00
  -17    5    8     -5.05      0.00
  -16    5    8     -8.42      0.00
  -15    5    8     12.44      0.00
  -14    5    8     -4.52      0.00
  -13    5    8     -2.09      0.00
  -12    5    8    -27.12      0.00
  -11    5    8     -5.90      0.00
  -10    5    8      4.95      0.00
   -9    5    8     -9.40      0.00
   -8    5    8    -28.43      0.00
   -7    5    8     22.65      0.00
   -6    5    8     -2.08      0.00
   -5    5    8    -23.41      0.00
   -4    5    8    -27.16      0.00
   -3    5    8    -19.40      0.00
   -2    5    8     -0.29      0.00
   -1    5    8     -5.61      0.00
    0    5    8     -8.74      0.00
    1    5    8     24.32      0.00
    2    5    8    -12.02      0.00
    3    5    8    -19.85      0.00
    4    5    8      6.11      0.00
    5    5    8     -9.49      0.00
    6    5    8      6.64      0.00
    7    5    8      8.41      0.00
    8    5    8     -5.95      0.00
    9    5    8     13.13      0.00
   10    5    8      5.62      0.00
   11    5    8    -17.56      0.00
   12    5    8     -0.90      0.00
   13    5    8      2.67      0.00
   14    5    8      8.91      0.00
   15    5    8      4.62      0.00
   16    5    8     -4.07      0.00
   17    5    8      4.74      0.00
   18    5    8      3.37      0.00
   19    5    8     -9.37      0.00
  -19    6    8     -2.00      0.00
  -18    6    8      0.76      0.00
  -17    6    8      0.77      0.00
  -16    6    8     15.16      0.00
  -15    6    8      1.44      0.00
  -14    6    8     -3.65      0.00
  -13    6    8     -5.39      0.00
  -12    6    8     -2.76      0.00
  -11    6    8     13.48      0.00
  -10    6    8      8.02      0.00
   -9    6    8     -7.44      0.00
   -8    6    8     13.35      0.00
   -7    6    8      7.49      0.00
   -6    6    8    -15.27      0.00
   -5    6    8     -4.92      0.00
   -4    6    8      5.87      0.00
   -3    6    8     13.14      0.00
   -2    6    8      9.51      0.00
   -1    6    8     -4.73      0.00
    0    6    8     27.91      0.00
    1    6    8     -4.86      0.00
    2    6    8    -27.09      0.00
    3    6    8      5.14      0.00
    4    6    8     14.75      0.00
    5    6    8     -2.95      0.00
    6    6    8      6.03      0.00
    7    6    8    -10.70      0.00
    8    6    8      4.28      0.00
    9    6    8     -1.44      0.00
   10    6    8    -16.18      0.00
   11    6    8     -6.72      0.00
   12    6    8      3.61      0.00
   13    6    8     -2.27      0.00
   14    6    8      5.24      0.00
   15    6    8     -9.64      0.00
   16    6    8     -4.92      0.00
   17    6    8      1.31      0.00
   18    6    8     -5.58      0.00
  -18    7    8      1.52      0.00
  -17    7    8      5.59      0.00
  -16    7    8      0.63      0.00
  -15    7    8     -9.87      0.00
  -14    7    8      3.31      0.00
  -13    7    8     -2.14      0.00
  -12    7    8      8.42      0.00
  -11    7    8      6.35      0.00
  -10    7    8      4.06      0.00
   -9    7    8      0.52      0.00
   -8    7    8      3.69      0.00
   -7    7    8     -9.72      0.00
   -6    7    8      9.13      0.00
   -5    7    8     11.98      0.00
   -4    7    8      8.75      0.00
   -3    7    8      8.57      0.00
   -2    7    8     -4.80      0.00
   -1    7    8     11.85      0.00
    0    7    8      2.92      0.00
    1    7    8    -23.88      0.00
    2    7    8      2.15      0.00
    3    7    8     24.14      0.00
    4    7    8     -1.02      0.00
    5    7    8     -1.71      0.00
    6    7    8     -6.77      0.00
    7    7    8      1.56      0.00
    8    7    8      2.40      0.00
    9    7    8     -7.61      0.00
   10    7    8     -0.33      0.00
   11    7    8     11.06      0.00
   12    7    8     -3.16      0.00
   13    7    8      7.41      0.00
   14    7    8     -1.12      0.00
   15    7    8     -6.54      0.00
   16    7    8      1.96      0.00
  -16    8    8     -6.70      0.00
  -15    8    8      2.31      0.00
  -14    8    8     -0.41      0.00
  -13    8    8     -2.27      0.00
  -12    8    8      0.10      0.00
  -11    8    8      0.78      0.00
  -10    8    8     -6.53      0.00
   -9    8    8     -8.64      0.00
   -8    8    8    -11.32      0.00
   -7    8    8      6.81      0.00
   -6    8    8      4.74      0.00
   -5    8    8     -8.86      0.00
   -4    8    8     -4.23      0.00
   -3    8    8     -5.02      0.00
   -2    8    8     -7.85      0.00
   -1    8    8      1.62      0.00
    0    8    8    -16.60      0.00
    1    8    8     -2.25      0.00
    2    8    8     14.81      0.00
    3    8    8      0.61      0.00
    4    8    8     -9.80      0.00
    5    8    8     -3.74      0.00
    6    8    8     -4.21      0.00
    7    8    8      6.33      0.00
    8    8    8     -1.70      0.00
    9    8    8      3.05      0.00
   10    8    8     10.53      0.00
   11    8    8     -2.99      0.00
   12    8    8     -1.96      0.00
   13    8    8      6.61      0.00
   14    8    8     -5.90      0.00
   15    8    8      0.77      0.00
  -14    9    8     -3.08      0.00
  -13    9    8      1.29      0.00
  -12    9    8      2.03      0.00
  -11    9    8      0.39      0.00
  -10    9    8     -7.99      0.00
   -9    9    8     -3.51      0.00
   -8    9    8      8.47      0.00
   -7    9    8      9.48      0.00
   -6    9    8    -10.50      0.00
   -5    9    8     -5.18      0.00
   -4    9    8      4.54      0.00
   -3    9    8     -7.61      0.00
   -2    9    8      1.11      0.00
   -1    9    8     -0.23      0.00
    0    9    8      1.28      0.00
    1    9    8      6.55      0.00
    2    9    8      0.79      0.00
    3    9    8     -5.33      0.00
    4    9    8      1.09      0.00
    5    9    8     -5.75      0.00
    6    9    8      4.32      0.00
    7    9    8      3.77      0.00
    8    9    8      1.37      0.00
    9    9    8      2.50      0.00
   10    9    8     -3.66      0.00
   11    9    8     -9.03      0.00
   12    9    8      5.81      0.00
  -10   10    8      1.44      0.00
   -9   10    8      5.48      0.00
   -8   10    8     11.39      0.00
   -7   10    8     -6.54      0.00
   -6   10    8     -2.69      0.00
   -5   10    8      6.68      0.00
   -4   10    8      0.59      0.00
   -3   10    8     -0.26      0.00
   -2   10    8      8.01      0.00
   -1   10    8      4.75      0.00
    0   10    8     -0.37      0.00
    1   10    8     -3.01      0.00
    2   10    8      0.81      0.00
    3   10    8      5.45      0.00
    4   10    8     -2.64      0.00
    5   10    8     -0.62      0.00
    6   10    8      7.67      0.00
    7   10    8      1.27      0.00
    8   10    8     -1.42      0.00
    9   10    8     -2.27      0.00
   -5   11    8      1.15      0.00
   -4   11    8     -2.53      0.00
   -3   11    8      3.33      0.00
   -2   11    8      0.71      0.00
   -1   11    8     -3.70      0.00
    0   11    8     -4.69      0.00
    1   11    8     -0.01      0.00
    2   11    8      5.37      0.00
    3   11    8     -1.67      0.00
  -21    0    9     -7.50      0.00
  -19    0    9    -15.26      0.00
  -17    0    9     -0.75      0.00
  -15    0    9     -9.18      0.00
  -13    0    9    -26.52      0.00
  -11    0    9    -51.61      0.00
   -9    0    9     29.07      0.00
   -7    0    9    -50.69      0.00
   -5    0    9    -17.03      0.00
   -3    0    9    -51.38      0.00
   -1    0    9     32.35      0.00
    1    0    9    -29.84      0.00
    3    0    9    -21.07      0.00
    5    0    9     25.61      0.00
    7    0    9     20.33      0.00
    9    0    9    -29.95      0.00
   11    0    9     -6.10      0.00
   13    0    9      5.68      0.00
   15    0    9     17.51      0.00
   17    0    9    -18.99      0.00
   19    0    9      4.42      0.00
   21    0    9      2.98      0.00
  -22    1    9     -4.69      0.00
  -21    1    9     -3.29      0.00
  -20    1    9     -2.64      0.00
  -19    1    9      8.54      0.00
  -18    1    9     11.95      0.00
  -17    1    9     -2.91      0.00
  -16    1    9     -5.14      0.00
  -15    1    9      8.69      0.00
  -14    1    9    -12.31      0.00
  -13    1    9      5.54      0.00
  -12    1    9     -5.05      0.00
  -11    1    9      7.04      0.00
  -10    1    9     41.25      0.00
   -9    1    9     10.47      0.00
   -8    1    9    -34.10      0.00
   -7    1    9     -5.65      0.00
   -6    1    9      5.46      0.00
   -5    1    9     12.91      0.00
   -4    1    9     -1.40      0.00
   -3    1    9      8.32      0.00
   -2    1    9     43.99      0.00
   -1    1    9      3.42      0.00
    0    1    9    -38.81      0.00
    1    1    9     17.51      0.00
    2    1    9     -1.39      0.00
    3    1    9    -16.63      0.00
    4    1    9     17.54      0.00
    5    1    9     10.72      0.00
    6    1    9    -11.31      0.00
    7    1    9    -11.14      0.00
    8    1    9    -45.62      0.00
    9    1    9      9.33      0.00
   10    1    9      0.60      0.00
   11    1    9      0.36      0.00
   12    1    9      6.22      0.00
   13    1    9     -5.87      0.00
   14    1    9     -1.52      0.00
   15    1    9      4.06      0.00
   16    1    9    -21.38      0.00
   17    1    9     -5.17      0.00
   18    1    9     10.65      0.00
   19    1    9      1.53      0.00
   20    1    9      3.54      0.00
   21    1    9     -0.31      0.00
  -22    2    9     -2.81      0.00
  -21    2    9      5.56      0.00
  -20    2    9      7.23      0.00
  -19    2    9     15.07      0.00
  -18    2    9     -8.72      0.00
  -17    2    9     -4.76      0.00
  -16    2    9      8.05      0.00
  -15    2    9      6.12      0.00
  -14    2    9     -2.55      0.00
  -13    2    9     24.25      0.00
  -12    2    9      2.09      0.00
  -11    2    9     29.61      0.00
  -10    2    9     -2.96      0.00
   -9    2    9     -9.20      0.00
   -8    2    9     -5.00      0.00
   -7    2    9     20.82      0.00
   -6    2    9     13.60      0.00
   -5    2    9     38.83      0.00
   -4    2    9      4.68      0.00
   -3    2    9     19.81      0.00
   -2    2    9     -1.99      0.00
   -1    2    9    -33.86      0.00
    0    2    9     13.86      0.00
    1    2    9     27.90      0.00
    2    2    9    -21.96      0.00
    3    2    9     10.92      0.00
    4    2    9     23.07      0.00
    5    2    9     -8.79      0.00
    6    2    9     -5.27      0.00
    7    2    9    -27.36      0.00
    8    2    9     23.97      0.00
    9    2    9     25.16      0.00
   10    2    9     -1.65      0.00
   11    2    9      9.57      0.00
   12    2    9     -0.77      0.00
   13    2    9    -13.68      0.00
   14    2    9      7.68      0.00
   15    2    9     -6.75      0.00
   16    2    9     -3.72      0.00
   17    2    9     11.63      0.00
   18    2    9      3.26      0.00
   19    2    9     -0.31      0.00
   20    2    9     -1.23      0.00
   21    2    9     -5.32      0.00
  -22    3    9      3.43      0.00
  -21    3    9      1.09      0.00
  -20    3    9      2.15      0.00
  -19    3    9    -11.72      0.00
  -18    3    9    -14.39      0.00
  -17    3    9     -0.48      0.00
  -16    3    9      6.64      0.00
  -15    3    9    -14.82      0.00
  -14    3    9     11.43      0.00
  -13    3    9     -9.28      0.00
  -12    3    9     -6.97      0.00
  -11    3    9    -21.59      0.00
  -10    3    9    -12.05      0.00
   -9    3    9     -4.93      0.00
   -8    3    9      0.33      0.00
   -7    3    9    -15.26      0.00
   -6    3    9     20.75      0.00
   -5    3    9    -11.28      0.00
   -4    3    9    -36.78      0.00
   -3    3    9    -22.87      0.00
   -2    3    9    -22.52      0.00
   -1    3    9     -1.90      0.00
    0    3    9     30.98      0.00
    1    3    9    -23.28      0.00
    2    3    9     -1.97      0.00
    3    3    9     13.02      0.00
    4    3    9     -6.18      0.00
    5    3    9     -4.35      0.00
    6    3    9     -9.39      0.00
    7    3    9     11.03      0.00
    8    3    9     35.65      0.00
    9    3    9    -11.16      0.00
   10    3    9      1.95      0.00
   11    3    9      3.97      0.00
   12    3    9    -13.93      0.00
   13    3    9      4.48      0.00
   14    3    9     13.00      0.00
   15    3    9      0.45      0.00
   16    3    9      7.57      0.00
   17    3    9      1.62      0.00
   18    3    9     -1.54      0.00
   19    3    9      1.79      0.00
   20    3    9     -6.63      0.00
  -21    4    9     -3.67      0.00
  -20    4    9     -2.68      0.00
  -19    4    9     -9.26      0.00
  -18    4    9      3.56      0.00
  -17    4    9      8.67      0.00
  -16    4    9     -3.04      0.00
  -15    4    9      1.00      0.00
  -14    4    9      2.24      0.00
  -13    4    9    -18.02      0.00
  -12    4    9     -7.25      0.00
  -11    4    9     -3.57      0.00
  -10    4    9     17.04      0.00
   -9    4    9     -3.02      0.00
   -8    4    9    -17.32      0.00
   -7    4    9      8.50      0.00
   -6    4    9     11.16      0.00
   -5    4    9    -41.65      0.00
   -4    4    9    -14.03      0.00
   -3    4    9     14.41      0.00
   -2    4    9     10.22      0.00
   -1    4    9     23.91      0.00
    0    4    9    -12.61      0.00
    1    4    9     -6.46      0.00
    2    4    9      3.87      0.00
    3    4    9    -13.38      0.00
    4    4    9     -2.40      0.00
    5    4    9      6.19      0.00
    6    4    9    -10.97      0.00
    7    4    9     21.08      0.00
    8    4    9    -15.95      0.00
    9    4    9    -14.53      0.00
   10    4    9     -1.54      0.00
   11    4    9    -13.04      0.00
   12    4    9     -7.66      0.00
   13    4    9     17.27      0.00
   14    4    9     -4.27      0.00
   15    4    9     -2.62      0.00
   16    4    9     -4.85      0.00
   17    4    9     -2.82      0.00
   18    4    9      2.24      0.00
   19    4    9     -4.07      0.00
  -20    5    9      0.33      0.00
  -19    5    9      5.45      0.00
  -18    5    9      5.77      0.00
  -17    5    9      7.11      0.00
  -16    5    9      0.69      0.00
  -15    5    9     10.03      0.00
  -14    5    9    -12.43      0.00
  -13    5    9      7.45      0.00
  -12    5    9     10.02      0.00
  -11    5    9     25.15      0.00
  -10    5    9      5.81      0.00
   -9    5    9     -7.63      0.00
   -8    5    9      4.16      0.00
   -7    5    9     30.61      0.00
   -6    5    9    -15.61      0.00
   -5    5    9     -1.91      0.00
   -4    5    9     34.73      0.00
   -3    5    9     21.90      0.00
   -2    5    9      8.84      0.00
   -1    5    9     -4.99      0.00
    0    5    9     -6.01      0.00
    1    5    9      9.14      0.00
    2    5    9    -16.32      0.00
    3    5    9      4.75      0.00
    4    5    9     24.54      0.00
    5    5    9    -11.33      0.00
    6    5    9      0.05      0.00
    7    5    9     -1.12      0.00
    8    5    9    -13.19      0.00
    9    5    9      3.57      0.00
   10    5    9     -2.78      0.00
   11    5    9     -5.87      0.00
   12    5    9     16.36      0.00
   13    5    9     -2.34      0.00
   14    5    9     -9.15      0.00
   15    5    9     -4.06      0.00
   16    5    9     -2.74      0.00
   17    5    9      1.87      0.00
   18    5    9      0.82      0.00
   19    5    9     -3.67      0.00
  -19    6    9     -2.61      0.00
  -18    6    9      0.11      0.00
  -17    6    9     -3.30      0.00
  -16    6    9     -0.37      0.00
  -15    6    9    -13.45      0.00
  -14    6    9     -2.26      0.00
  -13    6    9      9.99      0.00
  -12    6    9      2.15      0.00
  -11    6    9     -1.68      0.00
  -10    6    9    -13.48      0.00
   -9    6    9    -10.52      0.00
   -8    6    9     10.02      0.00
   -7    6    9     -6.04      0.00
   -6    6    9    -10.58      0.00
   -5    6    9     15.83      0.00
   -4    6    9      3.96      0.00
   -3    6    9    -15.27      0.00
   -2    6    9    -10.86      0.00
   -1    6    9    -12.18      0.00
    0    6    9     10.18      0.00
    1    6    9    -14.89      0.00
    2    6    9      1.28      0.00
    3    6    9     26.64      0.00
    4    6    9     -3.54      0.00
    5    6    9    -20.27      0.00
    6    6    9      8.92      0.00
    7    6    9     -1.55      0.00
    8    6    9      8.27      0.00
    9    6    9      4.16      0.00
   10    6    9      1.63      0.00
   11    6    9     12.55      0.00
   12    6    9      5.80      0.00
   13    6    9     -7.82      0.00
   14    6    9      4.67      0.00
   15    6    9     -0.16      0.00
   16    6    9      5.23      0.00
   17    6    9      5.34      0.00
  -17    7    9     -0.15      0.00
  -16    7    9     -2.92      0.00
  -15    7    9     -2.67      0.00
  -14    7    9     12.69      0.00
  -13    7    9     -5.03      0.00
  -12    7    9     -3.82      0.00
  -11    7    9     -6.50      0.00
  -10    7    9     -7.06      0.00
   -9    7    9     -2.69      0.00
   -8    7    9      3.18      0.00
   -7    7    9     -5.00      0.00
   -6    7    9      4.37      0.00
   -5    7    9     -7.31      0.00
   -4    7    9    -17.69      0.00
   -3    7    9     -3.09      0.00
   -2    7    9     -4.94      0.00
   -1    7    9      7.10      0.00
    0    7    9     -3.41      0.00
    1    7    9     -5.30      0.00
    2    7    9     18.07      0.00
    3    7    9      1.21      0.00
    4    7    9    -26.71      0.00
    5    7    9      3.64      0.00
    6    7    9      7.58      0.00
    7    7    9      4.13      0.00
    8    7    9      0.36      0.00
    9    7    9     -2.75      0.00
   10    7    9      1.52      0.00
   11    7    9      0.64      0.00
   12    7    9    -10.96      0.00
   13    7    9      3.03      0.00
   14    7    9     -1.67      0.00
   15    7    9     -0.66      0.00
   16    7    9      4.25      0.00
  -16    8    9     -0.17      0.00
  -15    8    9      6.57      0.00
  -14    8    9     -1.46      0.00
  -13    8    9     -3.41      0.00
  -12    8    9      4.58      0.00
  -11    8    9      1.31      0.00
  -10    8    9     -0.76      0.00
   -9    8    9      8.67      0.00
   -8    8    9      8.07      0.00
   -7    8    9      6.91      0.00
   -6    8    9     -5.25      0.00
   -5    8    9     -6.76      0.00
   -4    8    9     11.37      0.00
   -3    8    9      9.56      0.00
   -2    8    9      1.35      0.00
   -1    8    9      8.05      0.00
    0    8    9     -3.31      0.00
    1    8    9      9.39      0.00
    2    8    9      3.89      0.00
    3    8    9    -15.33      0.00
    4    8    9     -1.87      0.00
    5    8    9     12.55      0.00
    6    8    9      0.75      0.00
    7    8    9      0.14      0.00
    8    8    9     -7.12      0.00
    9    8    9     -3.83      0.00
   10    8    9     -1.62      0.00
   11    8    9     -6.45      0.00
   12    8    9      1.38      0.00
   13    8    9      4.46      0.00
   14    8    9     -6.00      0.00
  -13    9    9      4.27      0.00
  -12    9    9      0.31      0.00
  -11    9    9     -2.68      0.00
  -10    9    9      0.79      0.00
   -9    9    9      7.00      0.00
   -8    9    9      1.74      0.00
   -7    9    9     -7.77      0.00
   -6    9    9     -8.24      0.00
   -5    9    9     10.47      0.00
   -4    9    9     10.41      0.00
   -3    9    9     -8.44      0.00
   -2    9    9      4.04      0.00
   -1    9    9     -0.37      0.00
    0    9    9     -3.56      0.00
    1    9    9     -0.78      0.00
    2    9    9     -4.23      0.00
    3    9    9     -2.24      0.00
    4    9    9      7.49      0.00
    5    9    9     -1.77      0.00
    6    9    9      2.25      0.00
    7    9    9     -2.88      0.00
    8    9    9     -4.00      0.00
    9    9    9      1.50      0.00
   10    9    9      2.41      0.00
   11    9    9      1.43      0.00
   12    9    9      7.46      0.00
  -10   10    9      2.08      0.00
   -9   10    9     -2.09      0.00
   -8   10    9     -4.72      0.00
   -7   10    9     -9.68      0.00
   -6   10    9      5.36      0.00
   -5   10    9      5.59      0.00
   -4   10    9     -9.20      0.00
   -3   10    9     -3.41      0.00
   -2   10    9      1.96      0.00
   -1   10    9     -6.93      0.00
    0   10    9     -3.97      0.00
    1   10    9      3.38      0.00
    2   10    9      2.35      0.00
    3   10    9     -0.02      0.00
    4   10    9     -4.65      0.00
    5   10    9      0.01      0.00
    6   10    9      2.03      0.00
    7   10    9     -4.72      0.00
    8   10    9     -0.08      0.00
   -3   11    9      3.48      0.00
   -2   11    9     -1.38      0.00
   -1   11    9     -0.98      0.00
    0   11    9      4.41      0.00
    1   11    9      3.25      0.00
    2   11    9     -0.50      0.00
  -22    0   10     -0.65      0.00
  -20    0   10     13.63      0.00
  -18    0   10     12.83      0.00
  -16    0   10     -0.86      0.00
  -14    0   10     20.54      0.00
  -12    0   10     31.70      0.00
  -10    0   10     35.01      0.00
   -8    0   10    -32.33      0.00
   -6    0   10     62.11      0.00
   -4    0   10      8.02      0.00
   -2    0   10     26.85      0.00
    0    0   10    -32.18      0.00
    2    0   10     33.94      0.00
    4    0   10      2.02      0.00
    6    0   10    -29.95      0.00
    8    0   10      0.99      0.00
   10    0   10     27.26      0.00
   12    0   10     -4.84      0.00
   14    0   10    -10.61      0.00
   16    0   10     -5.63      0.00
   18    0   10     15.73      0.00
   20    0   10     -8.36      0.00
  -22    1   10     -1.78      0.00
  -21    1   10      6.76      0.00
  -20    1   10      2.23      0.00
  -19    1   10     -2.17      0.00
  -18    1   10     -9.82      0.00
  -17    1   10    -10.60      0.00
  -16    1   10      4.58      0.00
  -15    1   10     13.30      0.00
  -14    1   10    -12.58      0.00
  -13    1   10      6.18      0.00
  -12    1   10     -4.27      0.00
  -11    1   10     -8.23      0.00
  -10    1   10     -5.89      0.00
   -9    1   10    -32.69      0.00
   -8    1   10     -7.73      0.00
   -7    1   10     43.65      0.00
   -6    1   10      5.50      0.00
   -5    1   10    -18.76      0.00
   -4    1   10    -15.38      0.00
   -3    1   10     -5.90      0.00
   -2    1   10     -4.26      0.00
   -1    1   10    -22.93      0.00
    0    1   10     -2.71      0.00
    1    1   10     43.89      0.00
    2    1   10     -9.36      0.00
    3    1   10     -9.73      0.00
    4    1   10     15.42      0.00
    5    1   10     -6.86      0.00
    6    1   10     -9.82      0.00
    7    1   10     28.00      0.00
    8    1   10      8.31      0.00
    9    1   10     31.22      0.00
   10    1   10     -8.16      0.00
   11    1   10    -12.27      0.00
   12    1   10      2.72      0.00
   13    1   10     -3.11      0.00
   14    1   10      4.43      0.00
   15    1   10      8.88      0.00
   16    1   10     -3.10      0.00
   17    1   10     11.10      0.00
   18    1   10      3.80      0.00
   19    1   10    -13.38      0.00
   20    1   10     -1.87      0.00
  -22    2   10     -0.50      0.00
  -21    2   10      1.92      0.00
  -20    2   10     -9.76      0.00
  -19    2   10     -7.14      0.00
  -18    2   10    -12.66      0.00
  -17    2   10     10.57      0.00
  -16    2   10      6.96      0.00
  -15    2   10    -12.35      0.00
  -14    2   10    -17.16      0.00
  -13    2   10      6.31      0.00
  -12    2   10    -27.03      0.00
  -11    2   10     -1.45      0.00
  -10    2   10    -17.41      0.00
   -9    2   10      2.41      0.00
   -8    2   10     11.39      0.00
   -7    2   10      0.45      0.00
   -6    2   10    -31.60      0.00
   -5    2   10    -15.64      0.00
   -4    2   10    -27.88      0.00
   -3    2   10      0.08      0.00
   -2    2   10      4.24      0.00
   -1    2   10      0.01      0.00
    0    2   10     25.90      0.00
    1    2   10     -9.29      0.00
    2    2   10    -33.28      0.00
    3    2   10     14.63      0.00
    4    2   10      3.18      0.00
    5    2   10    -24.85      0.00
    6    2   10     15.33      0.00
    7    2   10      1.75      0.00
    8    2   10     10.77      0.00
    9    2   10    -18.40      0.00
   10    2   10    -27.62      0.00
   11    2   10      5.41      0.00
   12    2   10      3.30      0.00
   13    2   10     -1.50      0.00
   14    2   10     14.67      0.00
   15    2   10     -5.92      0.00
   16    2   10     -2.16      0.00
   17    2   10      3.86      0.00
   18    2   10     -8.16      0.00
   19    2   10     -2.67      0.00
   20    2   10      4.76      0.00
  -21    3   10     -3.95      0.00
  -20    3   10      1.34      0.00
  -19    3   10      1.29      0.00
  -18    3   10     13.27      0.00
  -17    3   10     13.31      0.00
  -16    3   10     -0.30      0.00
  -15    3   10    -13.60      0.00
  -14    3   10     18.68      0.00
  -13    3   10     -4.78      0.00
  -12    3   10      8.96      0.00
  -11    3   10     15.02      0.00
  -10    3   10     18.18      0.00
   -9    3   10      7.71      0.00
   -8    3   10      1.91      0.00
   -7    3   10     -6.14      0.00
   -6    3   10     15.38      0.00
   -5    3   10     -6.45      0.00
   -4    3   10     10.63      0.00
   -3    3   10     40.83      0.00
   -2    3   10     16.11      0.00
   -1    3   10     -1.15      0.00
    0    3   10      0.05      0.00
    1    3   10    -32.37      0.00
    2    3   10     14.40      0.00
    3    3   10     11.71      0.00
    4    3   10    -16.41      0.00
    5    3   10      3.06      0.00
    6    3   10      3.79      0.00
    7    3   10     -4.85      0.00
    8    3   10     -6.08      0.00
    9    3   10    -29.88      0.00
   10    3   10      8.47      0.00
   11    3   10     10.21      0.00
   12    3   10     -7.67      0.00
   13    3   10      7.59      0.00
   14    3   10     -3.56      0.00
   15    3   10    -16.46      0.00
   16    3   10      0.45      0.00
   17    3   10     -0.33      0.00
   18    3   10     -2.76      0.00
   19    3   10      3.96      0.00
   20    3   10     -1.42      0.00
  -21    4   10      0.24      0.00
  -20    4   10      5.44      0.00
  -19    4   10      1.07      0.00
  -18    4   10      6.37      0.00
  -17    4   10     -3.05      0.00
  -16    4   10     -9.96      0.00
  -15    4   10      3.59      0.00
  -14    4   10      6.96      0.00
  -13    4   10     -2.98      0.00
  -12    4   10     19.49      0.00
  -11    4   10      4.17      0.00
  -10    4   10     -3.61      0.00
   -9    4   10    -14.29      0.00
   -8    4   10      2.05      0.00
   -7    4   10     19.27      0.00
   -6    4   10      0.66      0.00
   -5    4   10    -12.29      0.00
   -4    4   10     31.98      0.00
   -3    4   10     13.69      0.00
   -2    4   10    -31.62      0.00
   -1    4   10     -6.99      0.00
    0    4   10    -13.85      0.00
    1    4   10     12.18      0.00
    2    4   10     15.05      0.00
    3    4   10     -3.38      0.00
    4    4   10      5.77      0.00
    5    4   10      8.48      0.00
    6    4   10    -12.47      0.00
    7    4   10     13.86      0.00
    8    4   10     -9.89      0.00
    9    4   10     10.20      0.00
   10    4   10     19.41      0.00
   11    4   10      0.69      0.00
   12    4   10      2.89      0.00
   13    4   10      6.69      0.00
   14    4   10    -16.84      0.00
   15    4   10      4.31      0.00
   16    4   10      8.53      0.00
   17    4   10      0.92      0.00
   18    4   10      1.17      0.00
   19    4   10     -1.13      0.00
  -20    5   10     -5.29      0.00
  -19    5   10     -3.35      0.00
  -18    5   10     -5.54      0.00
  -17    5   10     -4.60      0.00
  -16    5   10     -8.54      0.00
  -15    5   10      2.59      0.00
  -14    5   10    -10.76      0.00
  -13    5   10      8.66      0.00
  -12    5   10     -9.04      0.00
  -11    5   10    -16.81      0.00
  -10    5   10    -20.54      0.00
   -9    5   10     -2.71      0.00
   -8    5   10      8.40      0.00
   -7    5   10     -0.94      0.00
   -6    5   10    -30.29      0.00
   -5    5   10      4.52      0.00
   -4    5   10      7.18      0.00
   -3    5   10    -36.94      0.00
   -2    5   10    -16.18      0.00
   -1    5   10      5.78      0.00
    0    5   10      6.95      0.00
    1    5   10     10.61      0.00
    2    5   10     -8.03      0.00
    3    5   10      5.24      0.00
    4    5   10      2.86      0.00
    5    5   10    -22.84      0.00
    6    5   10     10.39      0.00
    7    5   10      9.53      0.00
    8    5   10     -3.38      0.00
    9    5   10     10.43      0.00
   10    5   10      0.47      0.00
   11    5   10     -4.29      0.00
   12    5   10      5.18      0.00
   13    5   10    -11.98      0.00
   14    5   10      3.91      0.00
   15    5   10     13.18      0.00
   16    5   10      0.18      0.00
   17    5   10     -2.02      0.00
   18    5   10      1.24      0.00
  -19    6   10      0.75      0.00
  -18    6   10      5.76      0.00
  -17    6   10      1.08      0.00
  -16    6   10      3.85      0.00
  -15    6   10      0.85      0.00
  -14    6   10      9.04      0.00
  -13    6   10      3.42      0.00
  -12    6   10    -13.05      0.00
  -11    6   10      0.66      0.00
  -10    6   10      7.68      0.00
   -9    6   10     11.28      0.00
   -8    6   10     10.01      0.00
   -7    6   10    -10.96      0.00
   -6    6   10     -1.32      0.00
   -5    6   10     13.24      0.00
   -4    6   10    -10.45      0.00
   -3    6   10     -4.62      0.00
   -2    6   10     22.35      0.00
   -1    6   10      5.67      0.00
    0    6   10      8.80      0.00
    1    6   10    -11.76      0.00
    2    6   10      2.22      0.00
    3    6   10      2.08      0.00
    4    6   10    -21.03      0.00
    5    6   10     -1.24      0.00
    6    6   10     22.93      0.00
    7    6   10    -11.84      0.00
    8    6   10     -6.41      0.00
    9    6   10     -4.19      0.00
   10    6   10     -7.08      0.00
   11    6   10     -3.10      0.00
   12    6   10     -7.43      0.00
   13    6   10     -4.25      0.00
   14    6   10      9.11      0.00
   15    6   10     -6.14      0.00
   16    6   10     -4.61      0.00
   17    6   10     -0.28      0.00
  -17    7   10     -1.07      0.00
  -16    7   10     -0.40      0.00
  -15    7   10      0.14      0.00
  -14    7   10      4.85      0.00
  -13    7   10    -12.07      0.00
  -12    7   10      4.86      0.00
  -11    7   10     10.21      0.00
  -10    7   10      3.56      0.00
   -9    7   10      5.25      0.00
   -8    7   10      2.40      0.00
   -7    7   10     -5.19      0.00
   -6    7   10      5.09      0.00
   -5    7   10      3.02      0.00
   -4    7   10      3.68      0.00
   -3    7   10     18.16      0.00
   -2    7   10     -2.27      0.00
   -1    7   10     -0.47      0.00
    0    7   10     -5.55      0.00
    1    7   10     -2.98      0.00
    2    7   10      6.10      0.00
    3    7   10     -9.13      0.00
    4    7   10     -5.36      0.00
    5    7   10     25.55      0.00
    6    7   10     -3.68      0.00
    7    7   10    -13.63      0.00
    8    7   10     -0.61      0.00
    9    7   10      2.17      0.00
   10    7   10      1.84      0.00
   11    7   10      2.46      0.00
   12    7   10     -0.26      0.00
   13    7   10      8.02      0.00
   14    7   10     -3.05      0.00
   15    7   10     -1.77      0.00
   16    7   10      2.15      0.00
  -15    8   10      0.96      0.00
  -14    8   10     -4.88      0.00
  -13    8   10     -0.70      0.00
  -12    8   10      6.93      0.00
  -11    8   10     -5.86      0.00
  -10    8   10     -4.91      0.00
   -9    8   10      1.60      0.00
   -8    8   10     -8.67      0.00
   -7    8   10     -8.50      0.00
   -6    8   10     -1.61      0.00
   -5    8   10      3.68      0.00
   -4    8   10      4.67      0.00
   -3    8   10    -11.33      0.00
   -2    8   10    -12.51      0.00
   -1    8   10      3.03      0.00
    0    8   10     -6.64      0.00
    1    8   10      2.97      0.00
    2    8   10     -0.90      0.00
    3    8   10     -4.85      0.00
    4    8   10     12.77      0.00
    5    8   10      4.25      0.00
    6    8   10    -13.30      0.00
    7    8   10      2.33      0.00
    8    8   10      5.54      0.00
    9    8   10      5.53      0.00
   10    8   10      4.54      0.00
   11    8   10      0.94      0.00
   12    8   10      1.88      0.00
   13    8   10     -0.11      0.00
   14    8   10     -3.97      0.00
  -13    9   10      4.52      0.00
  -12    9   10     -4.42      0.00
  -11    9   10     -3.60      0.00
  -10    9   10      3.67      0.00
   -9    9   10     -0.41      0.00
   -8    9   10     -6.54      0.00
   -7    9   10      0.30      0.00
   -6    9   10      7.37      0.00
   -5    9   10      4.06      0.00
   -4    9   10     -8.70      0.00
   -3    9   10    -11.55      0.00
   -2    9   10     10.88      0.00
   -1    9   10      0.17      0.00
    0    9   10     -1.00      0.00
    1    9   10      6.32      0.00
    2    9   10      0.89      0.00
    3    9   10      0.00      0.00
    4    9   10      3.23      0.00
    5    9   10     -7.61      0.00
    6    9   10      1.45      0.00
    7    9   10      0.61      0.00
    8    9   10     -0.49      0.00
    9    9   10      1.47      0.00
   10    9   10     -1.95      0.00
   11    9   10     -4.58      0.00
   -9   10   10     -1.92      0.00
   -8   10   10      2.49      0.00
   -7   10   10      4.26      0.00
   -6   10   10      5.64      0.00
   -5   10   10     -3.20      0.00
   -4   10   10     -5.39      0.00
   -3   10   10      9.65      0.00
   -2   10   10      4.99      0.00
   -1   10   10     -4.01      0.00
    0   10   10      4.30      0.00
    1   10   10      3.42      0.00
    2   10   10     -5.61      0.00
    3   10   10     -1.86      0.00
    4   10   10      0.69      0.00
    5   10   10      2.94      0.00
    6   10   10      1.02      0.00
    7   10   10     -3.19      0.00
    8   10   10      1.88      0.00
  -21    0   11     -5.35      0.00
  -19    0   11    -16.71      0.00
  -17    0   11     -8.18      0.00
  -15    0   11     -2.92      0.00
  -13    0   11    -29.90      0.00
  -11    0   11    -27.65      0.00
   -9    0   11    -16.48      0.00
   -7    0   11     26.44      0.00
   -5    0   11    -67.74      0.00
   -3    0   11      9.99      0.00
   -1    0   11    -10.51      0.00
    1    0   11     23.71      0.00
    3    0   11    -32.25      0.00
    5    0   11     13.73      0.00
    7    0   11     22.23      0.00
    9    0   11    -15.66      0.00
   11    0   11    -17.01      0.00
   13    0   11     12.84      0.00
   15    0   11      8.85      0.00
   17    0   11     -3.53      0.00
   19    0   11     -8.69      0.00
  -22    1   11     -6.31      0.00
  -21    1   11      3.25      0.00
  -20    1   11     -4.65      0.00
  -19    1   11     -1.68      0.00
  -18    1   11      5.95      0.00
  -17    1   11     10.00      0.00
  -16    1   11      5.66      0.00
  -15    1   11     -4.65      0.00
  -14    1   11    -16.66      0.00
  -13    1   11     14.98      0.00
  -12    1   11      4.83      0.00
  -11    1   11      1.87      0.00
  -10    1   11     15.51      0.00
   -9    1   11      4.53      0.00
   -8    1   11     17.53      0.00
   -7    1   11      5.06      0.00
   -6    1   11    -44.65      0.00
   -5    1   11     -2.80      0.00
   -4    1   11     32.79      0.00
   -3    1   11     14.93      0.00
   -2    1   11      0.72      0.00
   -1    1   11     -0.25      0.00
    0    1   11      2.64      0.00
    1    1   11      2.09      0.00
    2    1   11    -39.07      0.00
    3    1   11      3.42      0.00
    4    1   11     15.89      0.00
    5    1   11    -12.74      0.00
    6    1   11     -7.43      0.00
    7    1   11      9.64      0.00
    8    1   11    -32.13      0.00
    9    1   11     -6.79      0.00
   10    1   11    -13.03      0.00
   11    1   11      6.00      0.00
   12    1   11     16.55      0.00
   13    1   11     -4.29      0.00
   14    1   11     -3.06      0.00
   15    1   11     -2.96      0.00
   16    1   11    -10.42      0.00
   17    1   11      2.92      0.00
   18    1   11     -0.85      0.00
   19    1   11     -2.39      0.00
   20    1   11     10.67      0.00
  -22    2   11      2.23      0.00
  -21    2   11      5.14      0.00
  -20    2   11     -2.57      0.00
  -19    2   11     10.90      0.00
  -18    2   11      6.76      0.00
  -17    2   11      9.98      0.00
  -16    2   11    -10.33      0.00
  -15    2   11     -5.80      0.00
  -14    2   11     14.33      0.00
  -13    2   11     27.69      0.00
  -12    2   11    -10.32      0.00
  -11    2   11     21.48      0.00
  -10    2   11      2.50      0.00
   -9    2   11      4.43      0.00
   -8    2   11     -0.79      0.00
   -7    2   11     -6.82      0.00
   -6    2   11      4.82      0.00
   -5    2   11     36.04      0.00
   -4    2   11     13.18      0.00
   -3    2   11      9.26      0.00
   -2    2   11     -3.15      0.00
   -1    2   11    -17.45      0.00
    0    2   11      2.97      0.00
    1    2   11    -11.24      0.00
    2    2   11      5.79      0.00
    3    2   11     30.61      0.00
    4    2   11     -6.15      0.00
    5    2   11    -14.98      0.00
    6    2   11     24.24      0.00
    7    2   11    -12.32      0.00
    8    2   11     -1.67      0.00
    9    2   11      3.26      0.00
   10    2   11     12.23      0.00
   11    2   11     21.56      0.00
   12    2   11     -6.24      0.00
   13    2   11    -13.42      0.00
   14    2   11      3.07      0.00
   15    2   11     -9.75      0.00
   16    2   11      4.52      0.00
   17    2   11      7.06      0.00
   18    2   11     -3.95      0.00
   19    2   11      2.07      0.00
   20    2   11      1.86      0.00
  -21    3   11     -4.52      0.00
  -20    3   11      1.55      0.00
  -19    3   11     -2.84      0.00
  -18    3   11     -2.62      0.00
  -17    3   11    -13.53      0.00
  -16    3   11    -11.42      0.00
  -15    3   11      0.06      0.00
  -14    3   11     18.07      0.00
  -13    3   11    -21.53      0.00
  -12    3   11     -6.26      0.00
  -11    3   11     -5.67      0.00
  -10    3   11    -18.24      0.00
   -9    3   11    -14.42      0.00
   -8    3   11      0.23      0.00
   -7    3   11      0.12      0.00
   -6    3   11      5.39      0.00
   -5    3   11    -16.15      0.00
   -4    3   11     -5.82      0.00
   -3    3   11     -6.97      0.00
   -2    3   11    -32.76      0.00
   -1    3   11    -10.28      0.00
    0    3   11     21.48      0.00
    1    3   11      1.19      0.00
    2    3   11     23.87      0.00
    3    3   11     -5.59      0.00
    4    3   11    -17.14      0.00
    5    3   11     15.04      0.00
    6    3   11      4.23      0.00
    7    3   11     -4.80      0.00
    8    3   11     12.79      0.00
    9    3   11      2.92      0.00
   10    3   11     18.30      0.00
   11    3   11     -3.72      0.00
   12    3   11    -16.20      0.00
   13    3   11      8.72      0.00
   14    3   11      1.16      0.00
   15    3   11      2.11      0.00
   16    3   11     13.88      0.00
   17    3   11     -0.64      0.00
   18    3   11     -4.92      0.00
   19    3   11      3.03      0.00
  -20    4   11      0.39      0.00
  -19    4   11     -5.57      0.00
  -18    4   11      0.02      0.00
  -17    4   11     -4.30      0.00
  -16    4   11      2.43      0.00
  -15    4   11      9.03      0.00
  -14    4   11     -3.92      0.00
  -13    4   11    -14.92      0.00
  -12    4   11      5.20      0.00
  -11    4   11    -15.19      0.00
  -10    4   11     -3.16      0.00
   -9    4   11     10.68      0.00
   -8    4   11      9.92      0.00
   -7    4   11     -5.30      0.00
   -6    4   11    -19.21      0.00
   -5    4   11     -4.52      0.00
   -4    4   11     13.13      0.00
   -3    4   11    -17.10      0.00
   -2    4   11    -15.52      0.00
   -1    4   11     39.13      0.00
    0    4   11      4.88      0.00
    1    4   11     -1.25      0.00
    2    4   11    -11.37      0.00
    3    4   11    -17.17      0.00
    4    4   11      0.19      0.00
    5    4   11      3.34      0.00
    6    4   11    -12.36      0.00
    7    4   11     11.98      0.00
    8    4   11    -13.02      0.00
    9    4   11     -1.27      0.00
   10    4   11     -3.62      0.00
   11    4   11    -17.15      0.00
   12    4   11     -1.81      0.00
   13    4   11      6.23      0.00
   14    4   11     -5.76      0.00
   15    4   11     10.86      0.00
   16    4   11     -2.74      0.00
   17    4   11     -9.58      0.00
   18    4   11      0.29      0.00
   19    4   11      1.34      0.00
  -19    5   11      6.80      0.00
  -18    5   11      6.36      0.00
  -17    5   11      5.76      0.00
  -16    5   11      2.11      0.00
  -15    5   11      9.34      0.00
  -14    5   11     -3.83      0.00
  -13    5   11     11.16      0.00
  -12    5   11     -2.08      0.00
  -11    5   11      8.16      0.00
  -10    5   11     20.49      0.00
   -9    5   11     15.02      0.00
   -8    5   11     -2.74      0.00
   -7    5   11     -7.43      0.00
   -6    5   11      1.90      0.00
   -5    5   11     27.20      0.00
   -4    5   11      5.39      0.00
   -3    5   11    -13.12      0.00
   -2    5   11     30.43      0.00
   -1    5   11     13.36      0.00
    0    5   11    -18.90      0.00
    1    5   11     -8.47      0.00
    2    5   11     -7.76      0.00
    3    5   11      5.87      0.00
    4    5   11      4.95      0.00
    5    5   11     -7.39      0.00
    6    5   11     15.29      0.00
    7    5   11     -6.91      0.00
    8    5   11    -14.98      0.00
    9    5   11      6.27      0.00
   10    5   11     -4.25      0.00
   11    5   11     -5.41      0.00
   12    5   11      7.90      0.00
   13    5   11     -3.66      0.00
   14    5   11      4.75      0.00
   15    5   11     -3.25      0.00
   16    5   11    -11.41      0.00
   17    5   11      0.31      0.00
   18    5   11      5.10      0.00
  -18    6   11     -2.42      0.00
  -17    6   11     -9.53      0.00
  -16    6   11     -2.10      0.00
  -15    6   11     -1.38      0.00
  -14    6   11     -1.82      0.00
  -13    6   11     -4.54      0.00
  -12    6   11     -4.28      0.00
  -11    6   11     12.36      0.00
  -10    6   11     -2.10      0.00
   -9    6   11    -13.69      0.00
   -8    6   11     -7.97      0.00
   -7    6   11     -5.86      0.00
   -6    6   11     10.50      0.00
   -5    6   11      5.38      0.00
   -4    6   11    -14.97      0.00
   -3    6   11      2.15      0.00
   -2    6   11      8.58      0.00
   -1    6   11    -24.91      0.00
    0    6   11     -2.25      0.00
    1    6   11     -0.21      0.00
    2    6   11     11.32      0.00
    3    6   11      6.33      0.00
    4    6   11     -3.50      0.00
    5    6   11     11.87      0.00
    6    6   11      6.32      0.00
    7    6   11    -20.39      0.00
    8    6   11     11.83      0.00
    9    6   11     12.98      0.00
   10    6   11     -0.06      0.00
   11    6   11      6.24      0.00
   12    6   11      4.86      0.00
   13    6   11      1.96      0.00
   14    6   11      3.45      0.00
   15    6   11     -6.85      0.00
   16    6   11      4.73      0.00
  -17    7   11     -1.05      0.00
  -16    7   11      4.81      0.00
  -15    7   11     -0.08      0.00
  -14    7   11      0.70      0.00
  -13    7   11     -5.41      0.00
  -12    7   11      8.27      0.00
  -11    7   11     -3.39      0.00
  -10    7   11    -15.07      0.00
   -9    7   11     -1.09      0.00
   -8    7   11     -0.99      0.00
   -7    7   11     -1.88      0.00
   -6    7   11      3.77      0.00
   -5    7   11     -4.71      0.00
   -4    7   11     -8.52      0.00
   -3    7   11      1.82      0.00
   -2    7   11    -15.22      0.00
   -1    7   11      3.90      0.00
    0    7   11      7.42      0.00
    1    7   11      2.99      0.00
    2    7   11      4.07      0.00
    3    7   11     -4.88      0.00
    4    7   11     -0.28      0.00
    5    7   11      8.42      0.00
    6    7   11    -19.80      0.00
    7    7   11      1.36      0.00
    8    7   11     16.07      0.00
    9    7   11     -2.15      0.00
   10    7   11     -5.55      0.00
   11    7   11     -0.53      0.00
   12    7   11     -4.03      0.00
   13    7   11      0.37      0.00
   14    7   11     -4.24      0.00
   15    7   11      2.15      0.00
  -15    8   11      1.74      0.00
  -14    8   11     -0.67      0.00
  -13    8   11      1.71      0.00
  -12    8   11      2.73      0.00
  -11    8   11     -7.88      0.00
  -10    8   11      5.72      0.00
   -9    8   11      9.55      0.00
   -8    8   11     -1.69      0.00
   -7    8   11      5.08      0.00
   -6    8   11      8.30      0.00
   -5    8   11     -0.96      0.00
   -4    8   11     -2.33      0.00
   -3    8   11     -1.96      0.00
   -2    8   11      8.65      0.00
   -1    8   11     14.58      0.00
    0    8   11     -6.30      0.00
    1    8   11      1.32      0.00
    2    8   11     -0.86      0.00
    3    8   11     -5.77      0.00
    4    8   11      3.92      0.00
    5    8   11     -7.74      0.00
    6    8   11     -7.27      0.00
    7    8   11     10.64      0.00
    8    8   11     -3.21      0.00
    9    8   11     -8.68      0.00
   10    8   11     -3.37      0.00
   11    8   11     -2.58      0.00
   12    8   11     -0.53      0.00
   13    8   11      1.05      0.00
  -12    9   11     -2.70      0.00
  -11    9   11      3.25      0.00
  -10    9   11      6.71      0.00
   -9    9   11     -3.94      0.00
   -8    9   11     -2.58      0.00
   -7    9   11      5.68      0.00
   -6    9   11      0.52      0.00
   -5    9   11     -7.46      0.00
   -4    9   11     -1.05      0.00
   -3    9   11      6.56      0.00
   -2    9   11     10.88      0.00
   -1    9   11    -12.14      0.00
    0    9   11     -5.80      0.00
    1    9   11      3.32      0.00
    2    9   11     -5.58      0.00
    3    9   11     -1.91      0.00
    4    9   11      4.53      0.00
    5    9   11     -3.17      0.00
    6    9   11      5.72      0.00
    7    9   11      0.96      0.00
    8    9   11     -1.24      0.00
    9    9   11      2.51      0.00
   10    9   11      0.81      0.00
   -8   10   11      1.67      0.00
   -7   10   11     -0.48      0.00
   -6   10   11     -4.54      0.00
   -5   10   11     -2.90      0.00
   -4   10   11      2.07      0.00
   -3   10   11      4.65      0.00
   -2   10   11     -8.97      0.00
   -1   10   11     -6.11      0.00
    0   10   11      6.42      0.00
    1   10   11      0.07      0.00
    2   10   11     -3.45      0.00
    3   10   11      5.78      0.00
    4   10   11      1.76      0.00
    5   10   11     -1.73      0.00
    6   10   11     -0.57      0.00
    7   10   11     -0.81      0.00
  -22    0   12     -4.78      0.00
  -20    0   12     12.23      0.00
  -18    0   12     16.13      0.00
  -16    0   12      4.43      0.00
  -14    0   12      9.23      0.00
  -12    0   12     34.56      0.00
  -10    0   12     14.97      0.00
   -8    0   12      1.99      0.00
   -6    0   12    -12.52      0.00
   -4    0   12     61.64      0.00
   -2    0   12    -28.27      0.00
    0    0   12      5.07      0.00
    2    0   12    -13.00      0.00
    4    0   12     25.12      0.00
    6    0   12    -22.64      0.00
    8    0   12     -9.08      0.00
   10    0   12     21.11      0.00
   12    0   12      4.29      0.00
   14    0   12    -16.16      0.00
   16    0   12     -2.29      0.00
   18    0   12      6.68      0.00
   20    0   12      1.47      0.00
  -22    1   12      1.10      0.00
  -21    1   12      9.74      0.00
  -20    1   12     -4.59      0.00
  -19    1   12      0.28      0.00
  -18    1   12      1.83      0.00
  -17    1   12     -7.68      0.00
  -16    1   12    -10.21      0.00
  -15    1   12      0.24      0.00
  -14    1   12      4.44      0.00
  -13    1   12     14.55      0.00
  -12    1   12    -16.41      0.00
  -11    1   12    -17.05      0.00
  -10    1   12      2.00      0.00
   -9    1   12    -13.68      0.00
   -8    1   12     -3.73      0.00
   -7    1   12     -0.63      0.00
   -6    1   12     -4.19      0.00
   -5    1   12     35.63      0.00
   -4    1   12      0.88      0.00
   -3    1   12    -39.68      0.00
   -2    1   12    -12.95      0.00
   -1    1   12     12.59      0.00
    0    1   12      4.45      0.00
    1    1   12     10.20      0.00
    2    1   12     -2.22      0.00
    3    1   12     28.80      0.00
    4    1   12      0.87      0.00
    5    1   12    -16.15      0.00
    6    1   12      9.02      0.00
    7    1   12     19.65      0.00
    8    1   12     -8.95      0.00
    9    1   12     25.55      0.00
   10    1   12      6.32      0.00
   11    1   12     -2.41      0.00
   12    1   12     -4.06      0.00
   13    1   12    -14.31      0.00
   14    1   12      5.13      0.00
   15    1   12      9.06      0.00
   16    1   12      0.48      0.00
   17    1   12      6.31      0.00
   18    1   12     -2.53      0.00
   19    1   12     -5.16      0.00
   20    1   12      1.60      0.00
  -21    2   12     -3.05      0.00
  -20    2   12    -10.37      0.00
  -19    2   12      3.57      0.00
  -18    2   12    -10.51      0.00
  -17    2   12     -6.79      0.00
  -16    2   12     -6.54      0.00
  -15    2   12      9.50      0.00
  -14    2   12      0.69      0.00
  -13    2   12    -14.79      0.00
  -12    2   12    -33.18      0.00
  -11    2   12     14.37      0.00
  -10    2   12     -9.00      0.00
   -9    2   12     -6.09      0.00
   -8    2   12      4.16      0.00
   -7    2   12     -1.85      0.00
   -6    2   12     -1.44      0.00
   -5    2   12     -6.92      0.00
   -4    2   12    -31.91      0.00
   -3    2   12    -10.07      0.00
   -2    2   12      9.27      0.00
   -1    2   12      4.60      0.00
    0    2   12     18.44      0.00
    1    2   12     -6.21      0.00
    2    2   12     -2.79      0.00
    3    2   12     -3.52      0.00
    4    2   12    -22.44      0.00
    5    2   12     -1.56      0.00
    6    2   12     22.27      0.00
    7    2   12    -20.76      0.00
    8    2   12      3.10      0.00
    9    2   12      3.84      0.00
   10    2   12    -10.32      0.00
   11    2   12     -7.88      0.00
   12    2   12    -11.18      0.00
   13    2   12      5.72      0.00
   14    2   12     17.90      0.00
   15    2   12     -5.02      0.00
   16    2   12      2.58      0.00
   17    2   12     -2.05      0.00
   18    2   12     -6.76      0.00
   19    2   12      3.44      0.00
  -21    3   12     -3.73      0.00
  -20    3   12      6.42      0.00
  -19    3   12      1.62      0.00
  -18    3   12      3.89      0.00
  -17    3   12      4.09      0.00
  -16    3   12     12.63      0.00
  -15    3   12      7.20      0.00
  -14    3   12      1.03      0.00
  -13    3   12    -16.81      0.00
  -12    3   12     22.48      0.00
  -11    3   12     17.27      0.00
  -10    3   12     -0.11      0.00
   -9    3   12     14.72      0.00
   -8    3   12     11.65      0.00
   -7    3   12     -7.08      0.00
   -6    3   12     -0.15      0.00
   -5    3   12     -0.67      0.00
   -4    3   12     14.89      0.00
   -3    3   12     11.94      0.00
   -2    3   12      2.74      0.00
   -1    3   12     17.58      0.00
    0    3   12      5.86      0.00
    1    3   12    -33.11      0.00
    2    3   12     -2.57      0.00
    3    3   12    -10.36      0.00
    4    3   12     -0.86      0.00
    5    3   12     17.47      0.00
    6    3   12    -10.87      0.00
    7    3   12    -13.01      0.00
    8    3   12      6.13      0.00
    9    3   12    -12.87      0.00
   10    3   12     -2.98      0.00
   11    3   12     -6.10      0.00
   12    3   12      0.00      0.00
   13    3   12     15.28      0.00
   14    3   12     -8.42      0.00
   15    3   12     -7.55      0.00
   16    3   12      0.17      0.00
   17    3   12     -8.31      0.00
   18    3   12     -0.09      0.00
   19    3   12      6.30      0.00
  -20    4   12      3.30      0.00
  -19    4   12     -0.88      0.00
  -18    4   12      5.15      0.00
  -17    4   12     -1.63      0.00
  -16    4   12      2.04      0.00
  -15    4   12     -0.83      0.00
  -14    4   12     -5.05      0.00
  -13    4   12      2.89      0.00
  -12    4   12     19.10      0.00
  -11    4   12     -7.07      0.00
  -10    4   12      6.52      0.00
   -9    4   12      4.54      0.00
   -8    4   12    -14.16      0.00
   -7    4   12     -5.36      0.00
   -6    4   12      9.44      0.00
   -5    4   12     17.19      0.00
   -4    4   12      3.03      0.00
   -3    4   12    -12.05      0.00
   -2    4   12      2.62      0.00
   -1    4   12     17.55      0.00
    0    4   12    -36.55      0.00
    1    4   12     -3.79      0.00
    2    4   12     16.33      0.00
    3    4   12     11.22      0.00
    4    4   12     12.51      0.00
    5    4   12      3.38      0.00
    6    4   12    -10.48      0.00
    7    4   12     13.56      0.00
    8    4   12     -6.36      0.00
    9    4   12      8.60      0.00
   10    4   12      8.87      0.00
   11    4   12     -0.33      0.00
   12    4   12      9.62      0.00
   13    4   12      3.34      0.00
   14    4   12    -10.27      0.00
   15    4   12      4.76      0.00
   16    4   12     -4.26      0.00
   17    4   12      1.22      0.00
   18    4   12      7.09      0.00
  -19    5   12      1.01      0.00
  -18    5   12     -8.03      0.00
  -17    5   12     -8.22      0.00
  -16    5   12     -4.76      0.00
  -15    5   12      0.62      0.00
  -14    5   12    -10.58      0.00
  -13    5   12      2.28      0.00
  -12    5   12     -9.62      0.00
  -11    5   12     -4.93      0.00
  -10    5   12     -5.76      0.00
   -9    5   12    -19.91      0.00
   -8    5   12     -9.97      0.00
   -7    5   12      8.01      0.00
   -6    5   12      5.45      0.00
   -5    5   12     -5.91      0.00
   -4    5   12    -21.30      0.00
   -3    5   12    -10.96      0.00
   -2    5   12     16.58      0.00
   -1    5   12    -18.10      0.00
    0    5   12    -11.65      0.00
    1    5   12     26.30      0.00
    2    5   12      9.39      0.00
    3    5   12     -1.03      0.00
    4    5   12     -3.53      0.00
    5    5   12     -9.91      0.00
    6    5   12      8.77      0.00
    7    5   12     -5.71      0.00
    8    5   12      2.34      0.00
    9    5   12     16.10      0.00
   10    5   12     -5.86      0.00
   11    5   12     -3.37      0.00
   12    5   12      8.95      0.00
   13    5   12     -6.60      0.00
   14    5   12      1.25      0.00
   15    5   12      0.82      0.00
   16    5   12      2.75      0.00
   17    5   12      6.42      0.00
  -18    6   12     -3.29      0.00
  -17    6   12      4.21      0.00
  -16    6   12     11.68      0.00
  -15    6   12      2.14      0.00
  -14    6   12     -2.53      0.00
  -13    6   12      3.47      0.00
  -12    6   12      1.66      0.00
  -11    6   12      3.88      0.00
  -10    6   12     -8.62      0.00
   -9    6   12      2.24      0.00
   -8    6   12     17.87      0.00
   -7    6   12      4.23      0.00
   -6    6   12     -0.63      0.00
   -5    6   12     -8.21      0.00
   -4    6   12     -5.32      0.00
   -3    6   12     13.02      0.00
   -2    6   12      6.67      0.00
   -1    6   12    -11.95      0.00
    0    6   12     20.48      0.00
    1    6   12      0.09      0.00
    2    6   12     -9.57      0.00
    3    6   12     -9.44      0.00
    4    6   12     -8.32      0.00
    5    6   12      2.58      0.00
    6    6   12     -3.39      0.00
    7    6   12     -9.81      0.00
    8    6   12     14.85      0.00
    9    6   12     -9.25      0.00
   10    6   12    -17.41      0.00
   11    6   12      3.03      0.00
   12    6   12     -1.90      0.00
   13    6   12     -6.89      0.00
   14    6   12      1.18      0.00
   15    6   12     -2.03      0.00
   16    6   12      2.91      0.00
  -16    7   12      0.71      0.00
  -15    7   12     -8.37      0.00
  -14    7   12      0.74      0.00
  -13    7   12      1.03      0.00
  -12    7   12      4.18      0.00
  -11    7   12     -2.85      0.00
  -10    7   12      1.62      0.00
   -9    7   12     16.93      0.00
   -8    7   12     -0.87      0.00
   -7    7   12     -4.23      0.00
   -6    7   12      1.85      0.00
   -5    7   12     -0.01      0.00
   -4    7   12      2.33      0.00
   -3    7   12     12.02      0.00
   -2    7   12     -5.22      0.00
   -1    7   12      7.52      0.00
    0    7   12     -3.50      0.00
    1    7   12    -10.96      0.00
    2    7   12     -0.48      0.00
    3    7   12     -0.60      0.00
    4    7   12      1.94      0.00
    5    7   12      6.63      0.00
    6    7   12     -8.88      0.00
    7    7   12     12.37      0.00
    8    7   12      1.71      0.00
    9    7   12    -15.77      0.00
   10    7   12      3.73      0.00
   11    7   12      9.00      0.00
   12    7   12     -1.46      0.00
   13    7   12      2.98      0.00
   14    7   12     -0.14      0.00
  -14    8   12      1.08      0.00
  -13    8   12     -0.04      0.00
  -12    8   12      1.14      0.00
  -11    8   12     -3.81      0.00
  -10    8   12      5.74      0.00
   -9    8   12     -5.21      0.00
   -8    8   12    -12.81      0.00
   -7    8   12      1.96      0.00
   -6    8   12      0.15      0.00
   -5    8   12     -7.89      0.00
   -4    8   12      1.86      0.00
   -3    8   12      2.51      0.00
   -2    8   12     -2.80      0.00
   -1    8   12     -5.30      0.00
    0    8   12    -11.82      0.00
    1    8   12      7.68      0.00
    2    8   12      5.17      0.00
    3    8   12     -1.63      0.00
    4    8   12      8.65      0.00
    5    8   12     -0.89      0.00
    6    8   12      2.82      0.00
    7    8   12      8.74      0.00
    8    8   12     -6.96      0.00
    9    8   12      2.48      0.00
   10    8   12      9.35      0.00
   11    8   12      1.04      0.00
   12    8   12     -0.48      0.00
  -12    9   12     -0.88      0.00
  -11    9   12     -0.84      0.00
  -10    9   12     -1.88      0.00
   -9    9   12     -7.42      0.00
   -8    9   12      4.31      0.00
   -7    9   12      5.75      0.00
   -6    9   12     -4.89      0.00
   -5    9   12     -2.66      0.00
   -4    9   12      7.75      0.00
   -3    9   12     -1.42      0.00
   -2    9   12     -4.32      0.00
   -1    9   12     -6.74      0.00
    0    9   12     11.26      0.00
    1    9   12      9.44      0.00
    2    9   12     -5.34      0.00
    3    9   12      1.57      0.00
    4    9   12      3.18      0.00
    5    9   12     -7.39      0.00
    6    9   12      0.99      0.00
    7    9   12     -3.39      0.00
    8    9   12     -3.01      0.00
    9    9   12      0.90      0.00
   10    9   12     -3.07      0.00
   -7   10   12     -1.44      0.00
   -6   10   12     -2.07      0.00
   -5   10   12      4.67      0.00
   -4   10   12      1.19      0.00
   -3   10   12     -1.53      0.00
   -2   10   12     -3.10      0.00
   -1   10   12      6.45      0.00
    0   10   12      5.50      0.00
    1   10   12     -7.50      0.00
    2   10   12     -4.44      0.00
    3   10   12      3.62      0.00
    4   10   12     -3.87      0.00
    5   10   12     -2.47      0.00
  -21    0   13      2.37      0.00
  -19    0   13    -19.62      0.00
  -17    0   13    -10.94      0.00
  -15    0   13     -2.87      0.00
  -13    0   13    -16.87      0.00
  -11    0   13    -30.20      0.00
   -9    0   13      0.74      0.00
   -7    0   13      3.20      0.00
   -5    0   13     -1.23      0.00
   -3    0   13    -46.95      0.00
   -1    0   13     41.05      0.00
    1    0   13     -8.55      0.00
    3    0   13      4.67      0.00
    5    0   13    -14.73      0.00
    7    0   13     23.97      0.00
    9    0   13     -3.43      0.00
   11    0   13    -19.55      0.00
   13    0   13      8.71      0.00
   15    0   13     11.94      0.00
   17    0   13     -3.10      0.00
   19    0   13     -4.84      0.00
  -21    1   13     -0.52      0.00
  -20    1   13    -12.18      0.00
  -19    1   13      5.12      0.00
  -18    1   13      6.97      0.00
  -17    1   13     -1.79      0.00
  -16    1   13      5.79      0.00
  -15    1   13      9.65      0.00
  -14    1   13     -4.95      0.00
  -13    1   13     -3.10      0.00
  -12    1   13     -6.78      0.00
  -11    1   13     15.46      0.00
  -10    1   13     24.39      0.00
   -9    1   13     -6.18      0.00
   -8    1   13      3.55      0.00
   -7    1   13      5.07      0.00
   -6    1   13    -11.08      0.00
   -5    1   13      2.90      0.00
   -4    1   13    -22.07      0.00
   -3    1   13      0.83      0.00
   -2    1   13     37.44      0.00
   -1    1   13      9.25      0.00
    0    1   13    -27.50      0.00
    1    1   13     -6.74      0.00
    2    1   13    -14.08      0.00
    3    1   13      2.19      0.00
    4    1   13    -16.86      0.00
    5    1   13     -3.29      0.00
    6    1   13     11.16      0.00
    7    1   13     -5.29      0.00
    8    1   13    -25.65      0.00
    9    1   13      7.50      0.00
   10    1   13    -13.94      0.00
   11    1   13     -6.20      0.00
   12    1   13     13.09      0.00
   13    1   13      2.11      0.00
   14    1   13      6.03      0.00
   15    1   13     -4.00      0.00
   16    1   13    -10.20      0.00
   17    1   13      1.53      0.00
   18    1   13     -0.76      0.00
   19    1   13      1.69      0.00
  -21    2   13     -0.90      0.00
  -20    2   13      3.52      0.00
  -19    2   13     16.37      0.00
  -18    2   13     -4.58      0.00
  -17    2   13      6.61      0.00
  -16    2   13      6.88      0.00
  -15    2   13      4.99      0.00
  -14    2   13     -7.72      0.00
  -13    2   13      5.26      0.00
  -12    2   13     12.52      0.00
  -11    2   13     31.48      0.00
  -10    2   13    -15.95      0.00
   -9    2   13     -5.97      0.00
   -8    2   13     11.93      0.00
   -7    2   13     -5.89      0.00
   -6    2   13      2.26      0.00
   -5    2   13      9.23      0.00
   -4    2   13      7.75      0.00
   -3    2   13     21.01      0.00
   -2    2   13      6.68      0.00
   -1    2   13    -21.67      0.00
    0    2   13     -3.99      0.00
    1    2   13    -10.79      0.00
    2    2   13      8.66      0.00
    3    2   13     12.50      0.00
    4    2   13      2.53      0.00
    5    2   13     10.55      0.00
    6    2   13      6.79      0.00
    7    2   13    -22.79      0.00
    8    2   13     15.02      0.00
    9    2   13      6.44      0.00
   10    2   13     -6.03      0.00
   11    2   13     11.30      0.00
   12    2   13      5.08      0.00
   13    2   13     -0.24      0.00
   14    2   13     -2.86      0.00
   15    2   13    -15.85      0.00
   16    2   13      4.81      0.00
   17    2   13      2.75      0.00
   18    2   13     -0.08      0.00
   19    2   13      3.40      0.00
  -20    3   13      4.98      0.00
  -19    3   13     -8.96      0.00
  -18    3   13     -6.42      0.00
  -17    3   13     -2.81      0.00
  -16    3   13     -3.70      0.00
  -15    3   13    -12.11      0.00
  -14    3   13     -3.76      0.00
  -13    3   13     -2.40      0.00
  -12    3   13     11.90      0.00
  -11    3   13    -20.03      0.00
  -10    3   13    -25.11      0.00
   -9    3   13      5.99      0.00
   -8    3   13     -5.94      0.00
   -7    3   13    -11.17      0.00
   -6    3   13     11.04      0.00
   -5    3   13      0.29      0.00
   -4    3   13     -5.64      0.00
   -3    3   13    -12.46      0.00
   -2    3   13    -10.66      0.00
   -1    3   13      1.15      0.00
    0    3   13     -1.11      0.00
    1    3   13     -2.50      0.00
    2    3   13     34.42      0.00
    3    3   13      3.43      0.00
    4    3   13     -3.94      0.00
    5    3   13      4.73      0.00
    6    3   13    -11.63      0.00
    7    3   13      5.32      0.00
    8    3   13     18.52      0.00
    9    3   13     -5.75      0.00
   10    3   13      7.95      0.00
   11    3   13      4.21      0.00
   12    3   13     -3.27      0.00
   13    3   13      2.98      0.00
   14    3   13    -10.15      0.00
   15    3   13      5.46      0.00
   16    3   13     10.56      0.00
   17    3   13     -1.20      0.00
   18    3   13      2.40      0.00
  -20    4   13     -3.31      0.00
  -19    4   13     -5.78      0.00
  -18    4   13      3.69      0.00
  -17    4   13     -3.65      0.00
  -16    4   13      0.72      0.00
  -15    4   13     -0.65      0.00
  -14    4   13      0.53      0.00
  -13    4   13      0.65      0.00
  -12    4   13     -1.48      0.00
  -11    4   13    -19.07      0.00
  -10    4   13      7.00      0.00
   -9    4   13      3.99      0.00
   -8    4   13     -7.17      0.00
   -7    4   13     13.25      0.00
   -6    4   13      1.83      0.00
   -5    4   13    -12.66      0.00
   -4    4   13    -14.73      0.00
   -3    4   13      2.34      0.00
   -2    4   13      9.85      0.00
   -1    4   13      7.67      0.00
    0    4   13    -19.02      0.00
    1    4   13     25.36      0.00
    2    4   13      3.10      0.00
    3    4   13    -26.18      0.00
    4    4   13    -10.94      0.00
    5    4   13     -2.69      0.00
    6    4   13     -6.75      0.00
    7    4   13     12.45      0.00
    8    4   13    -10.80      0.00
    9    4   13     -0.75      0.00
   10    4   13     -4.25      0.00
   11    4   13    -11.38      0.00
   12    4   13      1.99      0.00
   13    4   13     -1.37      0.00
   14    4   13     -5.20      0.00
   15    4   13     10.56      0.00
   16    4   13     -3.36      0.00
   17    4   13     -1.22      0.00
   18    4   13     -0.29      0.00
  -19    5   13      8.12      0.00
  -18    5   13      1.30      0.00
  -17    5   13      6.39      0.00
  -16    5   13      9.07      0.00
  -15    5   13      4.95      0.00
  -14    5   13     -2.96      0.00
  -13    5   13     10.40      0.00
  -12    5   13      1.43      0.00
  -11    5   13      6.60      0.00
  -10    5   13     10.47      0.00
   -9    5   13      3.18      0.00
   -8    5   13     15.16      0.00
   -7    5   13      5.95      0.00
   -6    5   13    -11.01      0.00
   -5    5   13     -3.58      0.00
   -4    5   13     10.83      0.00
   -3    5   13     15.02      0.00
   -2    5   13     11.01      0.00
   -1    5   13    -18.55      0.00
    0    5   13      4.09      0.00
    1    5   13     11.67      0.00
    2    5   13    -25.35      0.00
    3    5   13    -10.51      0.00
    4    5   13     11.21      0.00
    5    5   13      1.47      0.00
    6    5   13      8.42      0.00
    7    5   13     -6.56      0.00
    8    5   13     -2.82      0.00
    9    5   13     -0.18      0.00
   10    5   13    -12.70      0.00
   11    5   13      4.18      0.00
   12    5   13      8.90      0.00
   13    5   13    -10.31      0.00
   14    5   13      2.92      0.00
   15    5   13      0.76      0.00
   16    5   13     -3.51      0.00
   17    5   13     -1.89      0.00
  -17    6   13      2.45      0.00
  -16    6   13     -4.40      0.00
  -15    6   13    -12.54      0.00
  -14    6   13     -2.16      0.00
  -13    6   13      7.02      0.00
  -12    6   13     -4.63      0.00
  -11    6   13     -1.58      0.00
  -10    6   13     -2.28      0.00
   -9    6   13      3.24      0.00
   -8    6   13     -1.47      0.00
   -7    6   13    -18.43      0.00
   -6    6   13     -1.08      0.00
   -5    6   13      7.17      0.00
   -4    6   13      6.19      0.00
   -3    6   13      1.13      0.00
   -2    6   13     -9.94      0.00
   -1    6   13    -11.69      0.00
    0    6   13     15.51      0.00
    1    6   13    -10.98      0.00
    2    6   13     -1.02      0.00
    3    6   13     16.61      0.00
    4    6   13      8.30      0.00
    5    6   13      4.56      0.00
    6    6   13     -0.11      0.00
    7    6   13     -2.39      0.00
    8    6   13      9.75      0.00
    9    6   13     -6.83      0.00
   10    6   13      6.61      0.00
   11    6   13     17.36      0.00
   12    6   13     -4.58      0.00
   13    6   13     -3.03      0.00
   14    6   13      8.24      0.00
   15    6   13     -1.46      0.00
  -16    7   13     -5.45      0.00
  -15    7   13     -0.78      0.00
  -14    7   13     10.79      0.00
  -13    7   13     -0.82      0.00
  -12    7   13     -5.25      0.00
  -11    7   13     -1.95      0.00
  -10    7   13     -2.12      0.00
   -9    7   13     -0.11      0.00
   -8    7   13    -14.98      0.00
   -7    7   13      1.82      0.00
   -6    7   13      8.60      0.00
   -5    7   13     -1.32      0.00
   -4    7   13     -5.91      0.00
   -3    7   13     -0.12      0.00
   -2    7   13    -10.45      0.00
   -1    7   13      7.04      0.00
    0    7   13      0.14      0.00
    1    7   13      1.03      0.00
    2    7   13     10.47      0.00
    3    7   13     -0.10      0.00
    4    7   13     -5.75      0.00
    5    7   13      0.92      0.00
    6    7   13     -8.21      0.00
    7    7   13      6.73      0.00
    8    7   13     -4.39      0.00
    9    7   13     -3.87      0.00
   10    7   13     11.66      0.00
   11    7   13     -4.11      0.00
   12    7   13     -9.97      0.00
   13    7   13      3.65      0.00
   14    7   13     -1.12      0.00
  -14    8   13      2.33      0.00
  -13    8   13     -4.60      0.00
  -12    8   13      0.59      0.00
  -11    8   13     -2.31      0.00
  -10    8   13      4.12      0.00
   -9    8   13     -1.20      0.00
   -8    8   13      4.17      0.00
   -7    8   13     13.09      0.00
   -6    8   13     -2.22      0.00
   -5    8   13     -6.16      0.00
   -4    8   13      6.67      0.00
   -3    8   13      1.13      0.00
   -2    8   13     -3.61      0.00
   -1    8   13      4.96      0.00
    0    8   13      2.75      0.00
    1    8   13      6.09      0.00
    2    8   13     -7.61      0.00
    3    8   13    -11.15      0.00
    4    8   13      3.41      0.00
    5    8   13     -6.90      0.00
    6    8   13     -2.76      0.00
    7    8   13      0.87      0.00
    8    8   13     -8.31      0.00
    9    8   13      2.51      0.00
   10    8   13     -0.46      0.00
   11    8   13     -6.65      0.00
   12    8   13      0.25      0.00
  -11    9   13      1.15      0.00
  -10    9   13      4.51      0.00
   -9    9   13      0.06      0.00
   -8    9   13      5.28      0.00
   -7    9   13     -4.26      0.00
   -6    9   13     -7.98      0.00
   -5    9   13      4.23      0.00
   -4    9   13      6.66      0.00
   -3    9   13     -8.25      0.00
   -2    9   13      0.45      0.00
   -1    9   13      3.38      0.00
    0    9   13      2.07      0.00
    1    9   13     -9.41      0.00
    2    9   13     -9.67      0.00
    3    9   13      7.12      0.00
    4    9   13      4.07      0.00
    5    9   13     -3.92      0.00
    6    9   13      7.72      0.00
    7    9   13      1.75      0.00
    8    9   13      0.79      0.00
    9    9   13      4.35      0.00
   -6   10   13      1.13      0.00
   -5   10   13      5.01      0.00
   -4   10   13     -4.54      0.00
   -3   10   13     -1.87      0.00
   -2   10   13      2.18      0.00
   -1   10   13      2.43      0.00
    0   10   13     -3.67      0.00
    1   10   13     -3.25      0.00
    2   10   13      7.21      0.00
    3   10   13      6.71      0.00
    4   10   13     -3.61      0.00
  -20    0   14      3.50      0.00
  -18    0   14     22.50      0.00
  -16    0   14      3.87      0.00
  -14    0   14      4.64      0.00
  -12    0   14     20.76      0.00
  -10    0   14     19.01      0.00
   -8    0   14    -13.60      0.00
   -6    0   14     -0.10      0.00
   -4    0   14     10.96      0.00
   -2    0   14     26.64      0.00
    0    0   14    -43.98      0.00
    2    0   14     16.28      0.00
    4    0   14     -1.96      0.00
    6    0   14      4.98      0.00
    8    0   14    -19.80      0.00
   10    0   14     12.73      0.00
   12    0   14     11.79      0.00
   14    0   14    -16.29      0.00
   16    0   14     -4.42      0.00
   18    0   14      5.37      0.00
  -21    1   14      4.33      0.00
  -20    1   14     -1.00      0.00
  -19    1   14      9.63      0.00
  -18    1   14     -3.95      0.00
  -17    1   14    -12.80      0.00
  -16    1   14      1.34      0.00
  -15    1   14     -1.38      0.00
  -14    1   14     -9.68      0.00
  -13    1   14      5.99      0.00
  -12    1   14      2.98      0.00
  -11    1   14     -2.34      0.00
  -10    1   14    -13.33      0.00
   -9    1   14    -24.16      0.00
   -8    1   14      9.08      0.00
   -7    1   14     10.44      0.00
   -6    1   14     -6.95      0.00
   -5    1   14     15.10      0.00
   -4    1   14     -1.90      0.00
   -3    1   14      8.50      0.00
   -2    1   14     -1.05      0.00
   -1    1   14    -26.85      0.00
    0    1   14     -5.49      0.00
    1    1   14     38.34      0.00
    2    1   14      7.48      0.00
    3    1   14      9.61      0.00
    4    1   14     -2.00      0.00
    5    1   14      7.77      0.00
    6    1   14      4.41      0.00
    7    1   14     -4.18      0.00
    8    1   14      1.67      0.00
    9    1   14     25.60      0.00
   10    1   14     -5.07      0.00
   11    1   14      0.56      0.00
   12    1   14      6.46      0.00
   13    1   14    -15.88      0.00
   14    1   14     -1.87      0.00
   15    1   14      2.62      0.00
   16    1   14      2.52      0.00
   17    1   14      7.29      0.00
   18    1   14     -2.85      0.00
   19    1   14     -3.11      0.00
  -21    2   14     -1.84      0.00
  -20    2   14     -4.07      0.00
  -19    2   14     -1.64      0.00
  -18    2   14    -18.38      0.00
  -17    2   14      3.76      0.00
  -16    2   14     -1.93      0.00
  -15    2   14     -7.18      0.00
  -14    2   14     -4.68      0.00
  -13    2   14      7.54      0.00
  -12    2   14     -9.76      0.00
  -11    2   14    -10.54      0.00
  -10    2   14    -23.15      0.00
   -9    2   14     14.79      0.00
   -8    2   14     18.64      0.00
   -7    2   14    -17.31      0.00
   -6    2   14      0.64      0.00
   -5    2   14     -1.19      0.00
   -4    2   14    -12.53      0.00
   -3    2   14     -7.12      0.00
   -2    2   14     -7.99      0.00
   -1    2   14     -4.44      0.00
    0    2   14     26.17      0.00
    1    2   14      2.12      0.00
    2    2   14     -1.56      0.00
    3    2   14     -9.84      0.00
    4    2   14    -14.68      0.00
    5    2   14     -2.30      0.00
    6    2   14      0.87      0.00
    7    2   14     -9.02      0.00
    8    2   14     18.25      0.00
    9    2   14     -8.37      0.00
   10    2   14    -14.22      0.00
   11    2   14      7.36      0.00
   12    2   14     -6.48      0.00
   13    2   14     -5.51      0.00
   14    2   14      8.31      0.00
   15    2   14      1.15      0.00
   16    2   14      9.89      0.00
   17    2   14     -3.70      0.00
   18    2   14     -4.48      0.00
  -20    3   14      3.94      0.00
  -19    3   14     -2.74      0.00
  -18    3   14      8.71      0.00
  -17    3   14      9.95      0.00
  -16    3   14      1.89      0.00
  -15    3   14      3.12      0.00
  -14    3   14     12.13      0.00
  -13    3   14      0.39      0.00
  -12    3   14      2.04      0.00
  -11    3   14     -4.21      0.00
  -10    3   14     15.58      0.00
   -9    3   14     27.19      0.00
   -8    3   14    -10.05      0.00
   -7    3   14     -5.95      0.00
   -6    3   14     12.20      0.00
   -5    3   14     -9.88      0.00
   -4    3   14     -1.08      0.00
   -3    3   14      9.55      0.00
   -2    3   14      9.27      0.00
   -1    3   14      4.55      0.00
    0    3   14     -4.28      0.00
    1    3   14    -12.24      0.00
    2    3   14      0.48      0.00
    3    3   14    -26.18      0.00
    4    3   14     -4.14      0.00
    5    3   14     13.85      0.00
    6    3   14     -5.53      0.00
    7    3   14      2.41      0.00
    8    3   14     -0.92      0.00
    9    3   14    -19.92      0.00
   10    3   14      4.49      0.00
   11    3   14      0.16      0.00
   12    3   14     -6.75      0.00
   13    3   14      7.69      0.00
   14    3   14     -2.68      0.00
   15    3   14      3.07      0.00
   16    3   14     -2.46      0.00
   17    3   14     -9.31      0.00
   18    3   14      1.37      0.00
  -19    4   14      2.35      0.00
  -18    4   14      7.28      0.00
  -17    4   14     -5.47      0.00
  -16    4   14      1.61      0.00
  -15    4   14      0.68      0.00
  -14    4   14     -1.00      0.00
  -13    4   14     -0.88      0.00
  -12    4   14      4.11      0.00
  -11    4   14      0.46      0.00
  -10    4   14     14.40      0.00
   -9    4   14     -4.86      0.00
   -8    4   14    -13.38      0.00
   -7    4   14     10.13      0.00
   -6    4   14     -7.74      0.00
   -5    4   14     -0.02      0.00
   -4    4   14     12.82      0.00
   -3    4   14     12.45      0.00
   -2    4   14     -8.94      0.00
   -1    4   14     -6.79      0.00
    0    4   14    -11.03      0.00
    1    4   14     19.29      0.00
    2    4   14    -10.45      0.00
    3    4   14     -2.98      0.00
    4    4   14     27.92      0.00
    5    4   14     11.12      0.00
    6    4   14     -8.12      0.00
    7    4   14      7.47      0.00
    8    4   14     -9.43      0.00
    9    4   14      7.10      0.00
   10    4   14      7.19      0.00
   11    4   14      0.30      0.00
   12    4   14      9.07      0.00
   13    4   14     -0.59      0.00
   14    4   14     -5.53      0.00
   15    4   14      5.90      0.00
   16    4   14     -7.04      0.00
   17    4   14      1.88      0.00
  -18    5   14    -10.13      0.00
  -17    5   14     -4.74      0.00
  -16    5   14     -3.92      0.00
  -15    5   14     -8.24      0.00
  -14    5   14     -4.97      0.00
  -13    5   14      4.45      0.00
  -12    5   14     -9.23      0.00
  -11    5   14     -6.40      0.00
  -10    5   14     -2.79      0.00
   -9    5   14    -13.03      0.00
   -8    5   14     -1.00      0.00
   -7    5   14     -7.60      0.00
   -6    5   14     -3.51      0.00
   -5    5   14     10.64      0.00
   -4    5   14      1.82      0.00
   -3    5   14    -14.71      0.00
   -2    5   14     -8.06      0.00
   -1    5   14     -5.58      0.00
    0    5   14     17.53      0.00
    1    5   14      6.08      0.00
    2    5   14    -11.75      0.00
    3    5   14     17.66      0.00
    4    5   14     11.82      0.00
    5    5   14    -18.20      0.00
    6    5   14     -1.25      0.00
    7    5   14     -1.89      0.00
    8    5   14      4.18      0.00
    9    5   14      7.62      0.00
   10    5   14     -0.98      0.00
   11    5   14      6.50      0.00
   12    5   14     -1.30      0.00
   13    5   14    -11.26      0.00
   14    5   14      9.00      0.00
   15    5   14      1.74      0.00
   16    5   14     -2.04      0.00
  -17    6   14      7.10      0.00
  -16    6   14     -0.05      0.00
  -15    6   14      3.30      0.00
  -14    6   14     11.16      0.00
  -13    6   14      2.02      0.00
  -12    6   14    -10.21      0.00
  -11    6   14      4.56      0.00
  -10    6   14      3.88      0.00
   -9    6   14      0.56      0.00
   -8    6   14      1.80      0.00
   -7    6   14     -0.07      0.00
   -6    6   14     15.15      0.00
   -5    6   14     -1.77      0.00
   -4    6   14    -11.24      0.00
   -3    6   14     -3.20      0.00
   -2    6   14      4.49      0.00
   -1    6   14      4.27      0.00
    0    6   14     11.51      0.00
    1    6   14    -16.22      0.00
    2    6   14     -0.54      0.00
    3    6   14      3.03      0.00
    4    6   14    -17.58      0.00
    5    6   14     -8.37      0.00
    6    6   14      1.99      0.00
    7    6   14     -1.56      0.00
    8    6   14      3.15      0.00
    9    6   14     -8.24      0.00
   10    6   14     -0.12      0.00
   11    6   14     -3.39      0.00
   12    6   14    -13.93      0.00
   13    6   14      3.55      0.00
   14    6   14      6.90      0.00
   15    6   14     -7.81      0.00
  -15    7   14      4.07      0.00
  -14    7   14      1.44      0.00
  -13    7   14    -10.86      0.00
  -12    7   14     -0.51      0.00
  -11    7   14     10.83      0.00
  -10    7   14      0.69      0.00
   -9    7   14      4.16      0.00
   -8    7   14     -1.52      0.00
   -7    7   14     10.43      0.00
   -6    7   14     -1.95      0.00
   -5    7   14     -9.77      0.00
   -4    7   14      1.57      0.00
   -3    7   14     10.00      0.00
   -2    7   14     -3.02      0.00
   -1    7   14      6.84      0.00
    0    7   14     -5.74      0.00
    1    7   14     -6.88      0.00
    2    7   14      1.03      0.00
    3    7   14     -4.27      0.00
    4    7   14     -0.79      0.00
    5    7   14     10.44      0.00
    6    7   14     -2.41      0.00
    7    7   14      4.53      0.00
    8    7   14     -3.64      0.00
    9    7   14      0.08      0.00
   10    7   14      5.29      0.00
   11    7   14     -7.26      0.00
   12    7   14      2.34      0.00
   13    7   14      9.74      0.00
  -13    8   14     -3.55      0.00
  -12    8   14      8.37      0.00
  -11    8   14     -0.12      0.00
  -10    8   14     -0.31      0.00
   -9    8   14     -4.35      0.00
   -8    8   14     -2.36      0.00
   -7    8   14     -2.42      0.00
   -6    8   14     -9.97      0.00
   -5    8   14      2.72      0.00
   -4    8   14      8.93      0.00
   -3    8   14     -5.31      0.00
   -2    8   14     -3.76      0.00
   -1    8   14      4.90      0.00
    0    8   14     -5.53      0.00
    1    8   14     -1.19      0.00
    2    8   14      2.85      0.00
    3    8   14      6.14      0.00
    4    8   14     12.52      0.00
    5    8   14     -3.62      0.00
    6    8   14      2.11      0.00
    7    8   14      5.54      0.00
    8    8   14     -0.88      0.00
    9    8   14      6.00      0.00
   10    8   14     -0.88      0.00
   11    8   14     -1.47      0.00
  -10    9   14     -0.85      0.00
   -9    9   14     -4.96      0.00
   -8    9   14      1.35      0.00
   -7    9   14     -2.14      0.00
   -6    9   14      3.66      0.00
   -5    9   14      7.27      0.00
   -4    9   14     -3.33      0.00
   -3    9   14     -8.78      0.00
   -2    9   14      7.62      0.00
   -1    9   14      1.85      0.00
    0    9   14     -2.46      0.00
    1    9   14      2.10      0.00
    2    9   14      5.65      0.00
    3    9   14      5.47      0.00
    4    9   14     -7.35      0.00
    5    9   14     -8.36      0.00
    6    9   14      3.92      0.00
    7    9   14     -4.96      0.00
    8    9   14     -4.56      0.00
   -4   10   14     -6.12      0.00
   -3   10   14      3.23      0.00
   -2   10   14      3.07      0.00
   -1   10   14     -2.43      0.00
    0   10   14     -2.78      0.00
    1   10   14      0.56      0.00
  -19    0   15     -7.33      0.00
  -17    0   15    -21.35      0.00
  -15    0   15      2.61      0.00
  -13    0   15     -7.37      0.00
  -11    0   15    -20.25      0.00
   -9    0   15     -3.82      0.00
   -7    0   15     19.03      0.00
   -5    0   15     -8.24      0.00
   -3    0   15    -13.16      0.00
   -1    0   15     -6.44      0.00
    1    0   15     37.12      0.00
    3    0   15    -23.20      0.00
    5    0   15      5.07      0.00
    7    0   15      1.18      0.00
    9    0   15     12.02      0.00
   11    0   15    -15.68      0.00
   13    0   15     -2.80      0.00
   15    0   15     18.30      0.00
   17    0   15     -3.93      0.00
  -20    1   15     -4.37      0.00
  -19    1   15      1.61      0.00
  -18    1   15     -5.16      0.00
  -17    1   15      2.24      0.00
  -16    1   15     16.17      0.00
  -15    1   15      0.24      0.00
  -14    1   15     -4.03      0.00
  -13    1   15      8.72      0.00
  -12    1   15     -3.99      0.00
  -11    1   15     -3.35      0.00
  -10    1   15      9.91      0.00
   -9    1   15     10.53      0.00
   -8    1   15     15.55      0.00
   -7    1   15    -10.51      0.00
   -6    1   15    -22.48      0.00
   -5    1   15      9.58      0.00
   -4    1   15    -11.78      0.00
   -3    1   15     -0.43      0.00
   -2    1   15      1.15      0.00
   -1    1   15      0.99      0.00
    0    1   15     11.11      0.00
    1    1   15      2.04      0.00
    2    1   15    -40.96      0.00
    3    1   15     -7.11      0.00
    4    1   15     -0.64      0.00
    5    1   15      1.84      0.00
    6    1   15     -3.40      0.00
    7    1   15     -4.37      0.00
    8    1   15     -2.68      0.00
    9    1   15      1.15      0.00
   10    1   15    -19.35      0.00
   11    1   15      1.45      0.00
   12    1   15      9.32      0.00
   13    1   15     -5.23      0.00
   14    1   15     12.93      0.00
   15    1   15      1.89      0.00
   16    1   15     -8.93      0.00
   17    1   15     -0.29      0.00
   18    1   15     -1.60      0.00
  -20    2   15      1.49      0.00
  -19    2   15      8.94      0.00
  -18    2   15      0.10      0.00
  -17    2   15     17.03      0.00
  -16    2   15     -1.61      0.00
  -15    2   15     -3.85      0.00
  -14    2   15      6.07      0.00
  -13    2   15      6.50      0.00
  -12    2   15     -7.39      0.00
  -11    2   15     10.69      0.00
  -10    2   15      9.26      0.00
   -9    2   15     10.34      0.00
   -8    2   15    -11.41      0.00
   -7    2   15    -23.85      0.00
   -6    2   15     21.10      0.00
   -5    2   15      7.35      0.00
   -4    2   15     -1.95      0.00
   -3    2   15     11.17      0.00
   -2    2   15      6.74      0.00
   -1    2   15     -4.31      0.00
    0    2   15      3.43      0.00
    1    2   15    -21.84      0.00
    2    2   15     -0.22      0.00
    3    2   15     12.31      0.00
    4    2   15     10.19      0.00
    5    2   15     10.53      0.00
    6    2   15      1.91      0.00
    7    2   15     -9.76      0.00
    8    2   15      8.64      0.00
    9    2   15     -9.13      0.00
   10    2   15      1.80      0.00
   11    2   15     17.03      0.00
   12    2   15     -5.38      0.00
   13    2   15     -1.07      0.00
   14    2   15      5.80      0.00
   15    2   15    -11.16      0.00
   16    2   15      0.20      0.00
   17    2   15     -3.17      0.00
   18    2   15      0.96      0.00
  -20    3   15      5.65      0.00
  -19    3   15     -4.42      0.00
  -18    3   15     -2.01      0.00
  -17    3   15     -7.75      0.00
  -16    3   15    -12.50      0.00
  -15    3   15     -1.15      0.00
  -14    3   15     -0.10      0.00
  -13    3   15    -11.94      0.00
  -12    3   15      0.62      0.00
  -11    3   15      0.11      0.00
  -10    3   15     -3.53      0.00
   -9    3   15    -10.40      0.00
   -8    3   15    -21.96      0.00
   -7    3   15     10.97      0.00
   -6    3   15     15.80      0.00
   -5    3   15    -13.24      0.00
   -4    3   15      5.51      0.00
   -3    3   15      2.42      0.00
   -2    3   15    -10.22      0.00
   -1    3   15     -5.06      0.00
    0    3   15      4.07      0.00
    1    3   15      5.25      0.00
    2    3   15     18.41      0.00
    3    3   15      1.39      0.00
    4    3   15     13.38      0.00
    5    3   15      3.89      0.00
    6    3   15    -17.71      0.00
    7    3   15      4.66      0.00
    8    3   15      8.35      0.00
    9    3   15     -2.14      0.00
   10    3   15     15.61      0.00
   11    3   15     -1.33      0.00
   12    3   15     -8.35      0.00
   13    3   15      7.08      0.00
   14    3   15     -6.10      0.00
   15    3   15      1.32      0.00
   16    3   15      2.15      0.00
   17    3   15     -0.62      0.00
  -19    4   15     -7.63      0.00
  -18    4   15     -2.16      0.00
  -17    4   15     -6.44      0.00
  -16    4   15      7.40      0.00
  -15    4   15      1.55      0.00
  -14    4   15     -3.41      0.00
  -13    4   15      1.31      0.00
  -12    4   15      2.42      0.00
  -11    4   15     -7.59      0.00
  -10    4   15     -0.85      0.00
   -9    4   15     -6.02      0.00
   -8    4   15      0.79      0.00
   -7    4   15     18.15      0.00
   -6    4   15    -11.30      0.00
   -5    4   15      0.00      0.00
   -4    4   15     -1.20      0.00
   -3    4   15     -9.27      0.00
   -2    4   15     -9.75      0.00
   -1    4   15     13.27      0.00
    0    4   15      2.42      0.00
    1    4   15      8.22      0.00
    2    4   15    -17.27      0.00
    3    4   15     -2.89      0.00
    4    4   15      2.65      0.00
    5    4   15    -22.22      0.00
    6    4   15    -10.69      0.00
    7    4   15     16.58      0.00
    8    4   15     -6.68      0.00
    9    4   15      1.95      0.00
   10    4   15     -2.60      0.00
   11    4   15    -10.57      0.00
   12    4   15      0.71      0.00
   13    4   15     -2.69      0.00
   14    4   15     -1.31      0.00
   15    4   15      7.79      0.00
   16    4   15     -5.72      0.00
  -18    5   15      3.52      0.00
  -17    5   15     11.49      0.00
  -16    5   15      7.00      0.00
  -15    5   15      0.04      0.00
  -14    5   15      6.40      0.00
  -13    5   15      5.85      0.00
  -12    5   15     -5.17      0.00
  -11    5   15      6.70      0.00
  -10    5   15     11.89      0.00
   -9    5   15     -1.10      0.00
   -8    5   15     11.45      0.00
   -7    5   15      0.46      0.00
   -6    5   15     -0.45      0.00
   -5    5   15      2.15      0.00
   -4    5   15     -6.59      0.00
   -3    5   15     -1.20      0.00
   -2    5   15     14.71      0.00
   -1    5   15      2.17      0.00
    0    5   15     -1.40      0.00
    1    5   15    -14.68      0.00
    2    5   15    -10.43      0.00
    3    5   15     11.60      0.00
    4    5   15     -6.79      0.00
    5    5   15    -12.76      0.00
    6    5   15     19.21      0.00
    7    5   15      1.39      0.00
    8    5   15     -6.34      0.00
    9    5   15     -0.93      0.00
   10    5   15     -7.27      0.00
   11    5   15     -0.26      0.00
   12    5   15      0.49      0.00
   13    5   15     -0.44      0.00
   14    5   15      9.07      0.00
   15    5   15     -6.20      0.00
  -16    6   15     -9.24      0.00
  -15    6   15     -1.99      0.00
  -14    6   15     -1.41      0.00
  -13    6   15     -9.12      0.00
  -12    6   15     -1.21      0.00
  -11    6   15     12.18      0.00
  -10    6   15     -4.29      0.00
   -9    6   15     -8.01      0.00
   -8    6   15      1.61      0.00
   -7    6   15     -4.64      0.00
   -6    6   15      2.28      0.00
   -5    6   15     -9.33      0.00
   -4    6   15      2.28      0.00
   -3    6   15     11.87      0.00
   -2    6   15      2.56      0.00
   -1    6   15     -8.86      0.00
    0    6   15      0.04      0.00
    1    6   15     -6.47      0.00
    2    6   15     15.77      0.00
    3    6   15      9.49      0.00
    4    6   15     -5.74      0.00
    5    6   15     12.55      0.00
    6    6   15      8.52      0.00
    7    6   15     -6.70      0.00
    8    6   15      3.73      0.00
    9    6   15     -0.43      0.00
   10    6   15      3.92      0.00
   11    6   15      4.58      0.00
   12    6   15      2.13      0.00
   13    6   15      7.60      0.00
   14    6   15     -1.56      0.00
  -15    7   15      1.94      0.00
  -14    7   15     -2.43      0.00
  -13    7   15     -0.70      0.00
  -12    7   15      8.67      0.00
  -11    7   15      0.77      0.00
  -10    7   15    -15.68      0.00
   -9    7   15      0.60      0.00
   -8    7   15     -2.56      0.00
   -7    7   15      2.93      0.00
   -6    7   15     -5.99      0.00
   -5    7   15      0.01      0.00
   -4    7   15      9.03      0.00
   -3    7   15      0.02      0.00
   -2    7   15    -12.73      0.00
   -1    7   15      4.01      0.00
    0    7   15     -0.86      0.00
    1    7   15      3.96      0.00
    2    7   15      8.36      0.00
    3    7   15     -2.70      0.00
    4    7   15     -3.69      0.00
    5    7   15      2.33      0.00
    6    7   15    -10.00      0.00
    7    7   15      3.30      0.00
    8    7   15     -0.36      0.00
    9    7   15     -0.97      0.00
   10    7   15      2.00      0.00
   11    7   15     -3.93      0.00
   12    7   15      2.05      0.00
  -12    8   15      3.24      0.00
  -11    8   15     -9.60      0.00
  -10    8   15      0.27      0.00
   -9    8   15      4.78      0.00
   -8    8   15      3.83      0.00
   -7    8   15      2.71      0.00
   -6    8   15     -0.23      0.00
   -5    8   15      6.68      0.00
   -4    8   15     -2.20      0.00
   -3    8   15    -10.30      0.00
   -2    8   15      3.48      0.00
   -1    8   15      7.01      0.00
    0    8   15     -5.86      0.00
    1    8   15      1.36      0.00
    2    8   15      1.09      0.00
    3    8   15     -9.46      0.00
    4    8   15     -4.38      0.00
    5    8   15     -8.83      0.00
    6    8   15      2.68      0.00
    7    8   15      0.74      0.00
    8    8   15     -6.68      0.00
    9    8   15      0.97      0.00
   10    8   15     -2.75      0.00
   -9    9   15      0.03      0.00
   -8    9   15      2.49      0.00
   -7    9   15     -1.92      0.00
   -6    9   15      0.85      0.00
   -5    9   15     -2.53      0.00
   -4    9   15     -6.01      0.00
   -3    9   15      2.62      0.00
   -2    9   15      9.63      0.00
   -1    9   15     -7.04      0.00
    0    9   15     -5.58      0.00
    1    9   15      3.36      0.00
    2    9   15     -2.61      0.00
    3    9   15     -2.31      0.00
    4    9   15      0.63      0.00
    5    9   15      6.06      0.00
    6    9   15      8.21      0.00
  -20    0   16      8.28      0.00
  -18    0   16      9.22      0.00
  -16    0   16     16.34      0.00
  -14    0   16     -7.66      0.00
  -12    0   16     11.32      0.00
  -10    0   16     13.19      0.00
   -8    0   16     -9.38      0.00
   -6    0   16    -15.75      0.00
   -4    0   16     16.21      0.00
   -2    0   16      8.04      0.00
    0    0   16     -8.17      0.00
    2    0   16    -24.51      0.00
    4    0   16     26.26      0.00
    6    0   16    -11.69      0.00
    8    0   16     -2.33      0.00
   10    0   16     -4.08      0.00
   12    0   16     13.30      0.00
   14    0   16     -6.04      0.00
   16    0   16    -12.35      0.00
  -20    1   16     -0.18      0.00
  -19    1   16      2.21      0.00
  -18    1   16     -1.76      0.00
  -17    1   16     -0.61      0.00
  -16    1   16     -1.34      0.00
  -15    1   16    -15.65      0.00
  -14    1   16     -1.45      0.00
  -13    1   16      9.53      0.00
  -12    1   16     -7.31      0.00
  -11    1   16     -1.32      0.00
  -10    1   16      4.41      0.00
   -9    1   16    -11.61      0.00
   -8    1   16     -7.74      0.00
   -7    1   16     -2.36      0.00
   -6    1   16      9.78      0.00
   -5    1   16     28.57      0.00
   -4    1   16    -11.02      0.00
   -3    1   16      3.51      0.00
   -2    1   16      3.23      0.00
   -1    1   16     -3.83      0.00
    0    1   16     -0.71      0.00
    1    1   16      3.86      0.00
    2    1   16      0.56      0.00
    3    1   16     35.76      0.00
    4    1   16      6.19      0.00
    5    1   16     -9.03      0.00
    6    1   16     -2.31      0.00
    7    1   16      4.24      0.00
    8    1   16      4.09      0.00
    9    1   16      6.64      0.00
   10    1   16     -2.45      0.00
   11    1   16      9.76      0.00
   12    1   16      1.56      0.00
   13    1   16    -14.18      0.00
   14    1   16      3.54      0.00
   15    1   16     -5.25      0.00
   16    1   16     -3.11      0.00
   17    1   16      8.56      0.00
  -20    2   16     -4.40      0.00
  -19    2   16     -1.43      0.00
  -18    2   16    -12.52      0.00
  -17    2   16      0.79      0.00
  -16    2   16    -11.03      0.00
  -15    2   16     -0.32      0.00
  -14    2   16      7.88      0.00
  -13    2   16     -4.41      0.00
  -12    2   16     -9.32      0.00
  -11    2   16      7.23      0.00
  -10    2   16     -6.75      0.00
   -9    2   16     -9.65      0.00
   -8    2   16      1.35      0.00
   -7    2   16      7.19      0.00
   -6    2   16     22.13      0.00
   -5    2   16    -22.08      0.00
   -4    2   16    -15.81      0.00
   -3    2   16      5.97      0.00
   -2    2   16     -4.22      0.00
   -1    2   16     -7.67      0.00
    0    2   16     11.50      0.00
    1    2   16     -2.70      0.00
    2    2   16     12.02      0.00
    3    2   16     -1.62      0.00
    4    2   16    -17.84      0.00
    5    2   16     -9.68      0.00
    6    2   16     -1.96      0.00
    7    2   16     -0.61      0.00
    8    2   16     12.83      0.00
    9    2   16     -6.66      0.00
   10    2   16     -0.97      0.00
   11    2   16      2.31      0.00
   12    2   16    -14.16      0.00
   13    2   16      2.05      0.00
   14    2   16      8.05      0.00
   15    2   16     -6.19      0.00
   16    2   16      8.49      0.00
   17    2   16      1.03      0.00
  -19    3   16     -5.21      0.00
  -18    3   16      4.48      0.00
  -17    3   16      8.76      0.00
  -16    3   16      5.75      0.00
  -15    3   16     10.96      0.00
  -14    3   16      1.27      0.00
  -13    3   16     -3.34      0.00
  -12    3   16     10.61      0.00
  -11    3   16      0.80      0.00
  -10    3   16     -3.82      0.00
   -9    3   16      7.92      0.00
   -8    3   16      7.16      0.00
   -7    3   16     12.66      0.00
   -6    3   16    -10.31      0.00
   -5    3   16    -22.29      0.00
   -4    3   16     14.49      0.00
   -3    3   16      1.50      0.00
   -2    3   16     -5.97      0.00
   -1    3   16      6.83      0.00
    0    3   16      2.37      0.00
    1    3   16    -12.08      0.00
    2    3   16     -5.47      0.00
    3    3   16    -16.19      0.00
    4    3   16     -2.44      0.00
    5    3   16     -1.28      0.00
    6    3   16     -3.14      0.00
    7    3   16     14.38      0.00
    8    3   16     -2.79      0.00
    9    3   16    -15.66      0.00
   10    3   16      2.92      0.00
   11    3   16     -7.12      0.00
   12    3   16     -1.66      0.00
   13    3   16     12.79      0.00
   14    3   16     -5.63      0.00
   15    3   16      1.20      0.00
   16    3   16      1.28      0.00
  -18    4   16     10.69      0.00
  -17    4   16      1.19      0.00
  -16    4   16      2.32      0.00
  -15    4   16     -7.09      0.00
  -14    4   16     -4.06      0.00
  -13    4   16      5.27      0.00
  -12    4   16      0.06      0.00
  -11    4   16     -4.01      0.00
  -10    4   16      8.21      0.00
   -9    4   16      3.68      0.00
   -8    4   16     -3.13      0.00
   -7    4   16      2.23      0.00
   -6    4   16    -17.16      0.00
   -5    4   16     12.04      0.00
   -4    4   16      6.70      0.00
   -3    4   16      0.36      0.00
   -2    4   16      4.22      0.00
   -1    4   16      8.70      0.00
    0    4   16    -15.01      0.00
    1    4   16      1.36      0.00
    2    4   16     -0.22      0.00
    3    4   16     13.58      0.00
    4    4   16      9.77      0.00
    5    4   16     -2.34      0.00
    6    4   16     12.06      0.00
    7    4   16     10.31      0.00
    8    4   16    -18.70      0.00
    9    4   16      3.94      0.00
   10    4   16      6.10      0.00
   11    4   16     -0.28      0.00
   12    4   16      9.37      0.00
   13    4   16      0.15      0.00
   14    4   16     -3.77      0.00
   15    4   16      2.91      0.00
   16    4   16     -6.32      0.00
  -17    5   16     -6.51      0.00
  -16    5   16    -10.56      0.00
  -15    5   16     -7.87      0.00
  -14    5   16      2.85      0.00
  -13    5   16     -2.85      0.00
  -12    5   16     -6.65      0.00
  -11    5   16      3.52      0.00
  -10    5   16     -2.79      0.00
   -9    5   16    -16.03      0.00
   -8    5   16      3.09      0.00
   -7    5   16     -5.16      0.00
   -6    5   16     -0.76      0.00
   -5    5   16      4.55      0.00
   -4    5   16     -1.41      0.00
   -3    5   16      3.00      0.00
   -2    5   16      1.76      0.00
   -1    5   16    -13.04      0.00
    0    5   16      2.25      0.00
    1    5   16      8.45      0.00
    2    5   16      9.91      0.00
    3    5   16      8.26      0.00
    4    5   16    -10.09      0.00
    5    5   16     -2.60      0.00
    6    5   16     13.60      0.00
    7    5   16    -14.16      0.00
    8    5   16     -3.25      0.00
    9    5   16     11.72      0.00
   10    5   16     -0.44      0.00
   11    5   16      2.61      0.00
   12    5   16      1.48      0.00
   13    5   16     -4.74      0.00
   14    5   16      1.23      0.00
   15    5   16     -4.68      0.00
  -16    6   16      0.14      0.00
  -15    6   16      9.54      0.00
  -14    6   16      4.67      0.00
  -13    6   16     -1.11      0.00
  -12    6   16      5.22      0.00
  -11    6   16      0.90      0.00
  -10    6   16    -11.77      0.00
   -9    6   16      3.33      0.00
   -8    6   16     12.99      0.00
   -7    6   16     -4.24      0.00
   -6    6   16      3.02      0.00
   -5    6   16     -3.01      0.00
   -4    6   16      4.68      0.00
   -3    6   16     -2.95      0.00
   -2    6   16    -10.91      0.00
   -1    6   16     -2.24      0.00
    0    6   16     10.56      0.00
    1    6   16     -3.90      0.00
    2    6   16     -0.38      0.00
    3    6   16    -13.01      0.00
    4    6   16    -13.51      0.00
    5    6   16      8.32      0.00
    6    6   16     -4.83      0.00
    7    6   16    -10.16      0.00
    8    6   16      7.71      0.00
    9    6   16     -3.30      0.00
   10    6   16     -4.11      0.00
   11    6   16     -0.43      0.00
   12    6   16     -4.33      0.00
   13    6   16     -1.62      0.00
  -14    7   16     -2.73      0.00
  -13    7   16      0.50      0.00
  -12    7   16      0.37      0.00
  -11    7   16     -4.67      0.00
  -10    7   16     -0.68      0.00
   -9    7   16     18.12      0.00
   -8    7   16     -2.07      0.00
   -7    7   16     -1.72      0.00
   -6    7   16     -2.25      0.00
   -5    7   16      3.05      0.00
   -4    7   16      0.84      0.00
   -3    7   16     -6.27      0.00
   -2    7   16     -1.05      0.00
   -1    7   16     11.92      0.00
    0    7   16     -4.30      0.00
    1    7   16     -2.99      0.00
    2    7   16     -1.68      0.00
    3    7   16     -6.15      0.00
    4    7   16      3.72      0.00
    5    7   16      9.12      0.00
    6    7   16     -5.14      0.00
    7    7   16      6.59      0.00
    8    7   16     -1.43      0.00
    9    7   16     -3.56      0.00
   10    7   16      3.73      0.00
   11    7   16     -0.21      0.00
  -11    8   16     -2.73      0.00
  -10    8   16      8.40      0.00
   -9    8   16     -0.67      0.00
   -8    8   16     -8.63      0.00
   -7    8   16     -1.93      0.00
   -6    8   16     -1.12      0.00
   -5    8   16      1.97      0.00
   -4    8   16     -2.68      0.00
   -3    8   16      1.37      0.00
   -2    8   16      8.09      0.00
   -1    8   16     -1.42      0.00
    0    8   16     -6.48      0.00
    1    8   16      5.61      0.00
    2    8   16      3.80      0.00
    3    8   16     -1.39      0.00
    4    8   16     10.90      0.00
    5    8   16      2.15      0.00
    6    8   16      4.51      0.00
    7    8   16     -0.41      0.00
    8    8   16     -2.84      0.00
    9    8   16      5.53      0.00
   -7    9   16      0.45      0.00
   -6    9   16      1.39      0.00
   -5    9   16     -0.35      0.00
   -4    9   16      0.93      0.00
   -3    9   16      3.41      0.00
   -2    9   16     -0.84      0.00
   -1    9   16     -7.29      0.00
    0    9   16      4.71      0.00
    1    9   16      7.47      0.00
    2    9   16     -4.36      0.00
    3    9   16     -0.50      0.00
    4    9   16      0.13      0.00
    5    9   16     -3.73      0.00
  -19    0   17    -12.65      0.00
  -17    0   17     -7.39      0.00
  -15    0   17     -9.87      0.00
  -13    0   17     10.09      0.00
  -11    0   17    -13.75      0.00
   -9    0   17     -2.42      0.00
   -7    0   17     16.90      0.00
   -5    0   17      5.55      0.00
   -3    0   17    -18.69      0.00
   -1    0   17      0.93      0.00
    1    0   17     14.79      0.00
    3    0   17     10.65      0.00
    5    0   17    -24.23      0.00
    7    0   17     18.39      0.00
    9    0   17     -0.89      0.00
   11    0   17     -1.45      0.00
   13    0   17     -5.71      0.00
   15    0   17      8.30      0.00
   17    0   17      6.05      0.00
  -19    1   17     -0.27      0.00
  -18    1   17      2.71      0.00
  -17    1   17      1.83      0.00
  -16    1   17      4.16      0.00
  -15    1   17      0.97      0.00
  -14    1   17     12.00      0.00
  -13    1   17      2.39      0.00
  -12    1   17    -13.18      0.00
  -11    1   17      4.70      0.00
  -10    1   17      6.90      0.00
   -9    1   17     -5.32      0.00
   -8    1   17      7.47      0.00
   -7    1   17      5.91      0.00
   -6    1   17    -11.69      0.00
   -5    1   17     -8.02      0.00
   -4    1   17    -25.73      0.00
   -3    1   17     10.82      0.00
   -2    1   17      4.19      0.00
   -1    1   17     -5.75      0.00
    0    1   17      0.86      0.00
    1    1   17      0.25      0.00
    2    1   17    -14.26      0.00
    3    1   17     -2.06      0.00
    4    1   17    -24.83      0.00
    5    1   17     -4.54      0.00
    6    1   17     15.64      0.00
    7    1   17      2.73      0.00
    8    1   17     -8.50      0.00
    9    1   17     -4.01      0.00
   10    1   17     -6.18      0.00
   11    1   17      2.64      0.00
   12    1   17      0.28      0.00
   13    1   17     -3.92      0.00
   14    1   17     11.52      0.00
   15    1   17     -0.07      0.00
   16    1   17     -0.04      0.00
   17    1   17      2.58      0.00
  -19    2   17      9.04      0.00
  -18    2   17      1.15      0.00
  -17    2   17     11.33      0.00
  -16    2   17     -0.71      0.00
  -15    2   17      3.75      0.00
  -14    2   17      1.44      0.00
  -13    2   17     -9.41      0.00
  -12    2   17      2.07      0.00
  -11    2   17     11.35      0.00
  -10    2   17     -5.40      0.00
   -9    2   17      0.13      0.00
   -8    2   17     10.68      0.00
   -7    2   17     -9.66      0.00
   -6    2   17     -3.23      0.00
   -5    2   17    -13.37      0.00
   -4    2   17     19.62      0.00
   -3    2   17     19.34      0.00
   -2    2   17     -8.33      0.00
   -1    2   17     -4.42      0.00
    0    2   17      8.70      0.00
    1    2   17    -12.83      0.00
    2    2   17      2.55      0.00
    3    2   17     -0.58      0.00
    4    2   17      2.92      0.00
    5    2   17     16.30      0.00
    6    2   17      7.74      0.00
    7    2   17     -6.75      0.00
    8    2   17     -0.84      0.00
    9    2   17     -9.65      0.00
   10    2   17      4.35      0.00
   11    2   17      8.12      0.00
   12    2   17     -3.89      0.00
   13    2   17      6.66      0.00
   14    2   17      2.53      0.00
   15    2   17    -10.30      0.00
   16    2   17      3.18      0.00
  -18    3   17      1.35      0.00
  -17    3   17     -2.90      0.00
  -16    3   17    -13.46      0.00
  -15    3   17     -4.69      0.00
  -14    3   17     -6.00      0.00
  -13    3   17     -1.09      0.00
  -12    3   17      5.84      0.00
  -11    3   17     -7.34      0.00
  -10    3   17     -3.62      0.00
   -9    3   17      6.23      0.00
   -8    3   17     -8.12      0.00
   -7    3   17     -4.72      0.00
   -6    3   17     -1.41      0.00
   -5    3   17      7.00      0.00
   -4    3   17     22.91      0.00
   -3    3   17    -12.59      0.00
   -2    3   17     -8.08      0.00
   -1    3   17      8.86      0.00
    0    3   17     -0.48      0.00
    1    3   17     -0.56      0.00
    2    3   17     16.38      0.00
    3    3   17      4.90      0.00
    4    3   17      7.86      0.00
    5    3   17      2.67      0.00
    6    3   17     -5.36      0.00
    7    3   17      2.39      0.00
    8    3   17     -7.15      0.00
    9    3   17      0.70      0.00
   10    3   17     16.92      0.00
   11    3   17     -1.92      0.00
   12    3   17     -2.23      0.00
   13    3   17      3.84      0.00
   14    3   17    -11.68      0.00
   15    3   17      1.43      0.00
   16    3   17      3.59      0.00
  -18    4   17      5.20      0.00
  -17    4   17    -11.25      0.00
  -16    4   17     -1.86      0.00
  -15    4   17      4.23      0.00
  -14    4   17      6.51      0.00
  -13    4   17      3.99      0.00
  -12    4   17     -6.44      0.00
  -11    4   17     -2.40      0.00
  -10    4   17      3.86      0.00
   -9    4   17     -5.18      0.00
   -8    4   17     -6.15      0.00
   -7    4   17      9.57      0.00
   -6    4   17     -5.67      0.00
   -5    4   17     12.07      0.00
   -4    4   17     -9.82      0.00
   -3    4   17    -11.41      0.00
   -2    4   17     -0.18      0.00
   -1    4   17      2.09      0.00
    0    4   17     -8.64      0.00
    1    4   17     12.18      0.00
    2    4   17     -3.34      0.00
    3    4   17     -8.31      0.00
    4    4   17     -9.14      0.00
    5    4   17     -8.95      0.00
    6    4   17      1.37      0.00
    7    4   17     -3.05      0.00
    8    4   17     -9.13      0.00
    9    4   17     15.45      0.00
   10    4   17     -0.90      0.00
   11    4   17    -11.62      0.00
   12    4   17      1.38      0.00
   13    4   17     -4.30      0.00
   14    4   17     -2.31      0.00
   15    4   17      7.36      0.00
  -16    5   17      9.92      0.00
  -15    5   17      9.17      0.00
  -14    5   17      5.21      0.00
  -13    5   17     -4.83      0.00
  -12    5   17     -0.17      0.00
  -11    5   17      6.72      0.00
  -10    5   17      0.67      0.00
   -9    5   17     -0.77      0.00
   -8    5   17     15.78      0.00
   -7    5   17     -3.83      0.00
   -6    5   17     -1.88      0.00
   -5    5   17      2.14      0.00
   -4    5   17     -5.92      0.00
   -3    5   17      0.22      0.00
   -2    5   17      0.76      0.00
   -1    5   17     -3.68      0.00
    0    5   17      8.91      0.00
    1    5   17     -3.04      0.00
    2    5   17    -12.36      0.00
    3    5   17     -5.62      0.00
    4    5   17     -2.08      0.00
    5    5   17      6.58      0.00
    6    5   17      6.74      0.00
    7    5   17    -12.11      0.00
    8    5   17      7.34      0.00
    9    5   17      4.42      0.00
   10    5   17    -12.61      0.00
   11    5   17      1.02      0.00
   12    5   17      3.45      0.00
   13    5   17     -2.67      0.00
   14    5   17      4.93      0.00
  -15    6   17     -1.89      0.00
  -14    6   17     -7.86      0.00
  -13    6   17     -5.58      0.00
  -12    6   17      2.97      0.00
  -11    6   17     -0.64      0.00
  -10    6   17     -0.98      0.00
   -9    6   17      8.19      0.00
   -8    6   17     -1.29      0.00
   -7    6   17    -15.50      0.00
   -6    6   17      5.87      0.00
   -5    6   17      0.78      0.00
   -4    6   17      3.61      0.00
   -3    6   17     -1.31      0.00
   -2    6   17      2.40      0.00
   -1    6   17      9.12      0.00
    0    6   17      4.16      0.00
    1    6   17     -9.90      0.00
    2    6   17      4.81      0.00
    3    6   17      6.76      0.00
    4    6   17      8.48      0.00
    5    6   17     12.07      0.00
    6    6   17     -7.94      0.00
    7    6   17     -1.38      0.00
    8    6   17     10.06      0.00
    9    6   17     -5.27      0.00
   10    6   17      2.32      0.00
   11    6   17      6.80      0.00
   12    6   17     -2.40      0.00
  -13    7   17      2.13      0.00
  -12    7   17      0.61      0.00
  -11    7   17     -0.03      0.00
  -10    7   17      0.00      0.00
   -9    7   17      0.79      0.00
   -8    7   17    -16.91      0.00
   -7    7   17      2.16      0.00
   -6    7   17      6.33      0.00
   -5    7   17      1.65      0.00
   -4    7   17     -2.48      0.00
   -3    7   17     -1.76      0.00
   -2    7   17      3.93      0.00
   -1    7   17      2.63      0.00
    0    7   17    -10.36      0.00
    1    7   17      3.01      0.00
    2    7   17      5.13      0.00
    3    7   17     -0.52      0.00
    4    7   17      2.03      0.00
    5    7   17     -2.34      0.00
    6    7   17    -10.55      0.00
    7    7   17      5.99      0.00
    8    7   17     -1.63      0.00
    9    7   17     -0.73      0.00
   10    7   17      3.92      0.00
  -10    8   17      2.09      0.00
   -9    8   17     -5.38      0.00
   -8    8   17      0.38      0.00
   -7    8   17     10.30      0.00
   -6    8   17      0.17      0.00
   -5    8   17     -1.90      0.00
   -4    8   17     -2.93      0.00
   -3    8   17      0.46      0.00
   -2    8   17     -0.65      0.00
   -1    8   17     -5.91      0.00
    0    8   17      0.03      0.00
    1    8   17      4.02      0.00
    2    8   17     -5.05      0.00
    3    8   17     -7.39      0.00
    4    8   17      2.94      0.00
    5    8   17     -8.75      0.00
    6    8   17     -1.40      0.00
    7    8   17     -0.44      0.00
   -5    9   17     -0.23      0.00
   -4    9   17      0.90      0.00
   -3    9   17     -0.37      0.00
   -2    9   17     -1.51      0.00
   -1    9   17      0.01      0.00
    0    9   17      3.72      0.00
    1    9   17     -2.35      0.00
    2    9   17     -6.06      0.00
  -18    0   18     13.56      0.00
  -16    0   18      3.57      0.00
  -14    0   18      3.83      0.00
  -12    0   18    -10.65      0.00
  -10    0   18     14.26      0.00
   -8    0   18     -9.53      0.00
   -6    0   18    -15.76      0.00
   -4    0   18      5.61      0.00
   -2    0   18     14.82      0.00
    0    0   18    -10.02      0.00
    2    0   18    -13.49      0.00
    4    0   18      1.06      0.00
    6    0   18     16.61      0.00
    8    0   18    -20.64      0.00
   10    0   18      5.37      0.00
   12    0   18      1.33      0.00
   14    0   18      0.29      0.00
   16    0   18     -7.74      0.00
  -19    1   18      6.56      0.00
  -18    1   18      0.93      0.00
  -17    1   18     -6.99      0.00
  -16    1   18     -2.50      0.00
  -15    1   18     -5.03      0.00
  -14    1   18     -0.59      0.00
  -13    1   18     -6.54      0.00
  -12    1   18     -2.39      0.00
  -11    1   18     14.69      0.00
  -10    1   18     -1.68      0.00
   -9    1   18    -11.31      0.00
   -8    1   18      5.59      0.00
   -7    1   18      2.37      0.00
   -6    1   18     -5.04      0.00
   -5    1   18     20.29      0.00
   -4    1   18      5.95      0.00
   -3    1   18     17.00      0.00
   -2    1   18     -8.91      0.00
   -1    1   18     -8.64      0.00
    0    1   18      7.59      0.00
    1    1   18      5.69      0.00
    2    1   18     -0.16      0.00
    3    1   18     17.84      0.00
    4    1   18      2.43      0.00
    5    1   18     11.33      0.00
    6    1   18      2.85      0.00
    7    1   18    -16.12      0.00
    8    1   18     -2.96      0.00
    9    1   18     11.99      0.00
   10    1   18      4.45      0.00
   11    1   18      1.69      0.00
   12    1   18     -1.55      0.00
   13    1   18     -5.19      0.00
   14    1   18      3.03      0.00
   15    1   18     -6.78      0.00
   16    1   18     -1.35      0.00
  -18    2   18    -11.33      0.00
  -17    2   18     -1.85      0.00
  -16    2   18     -6.96      0.00
  -15    2   18      1.01      0.00
  -14    2   18      3.27      0.00
  -13    2   18     -1.69      0.00
  -12    2   18      7.84      0.00
  -11    2   18     -0.65      0.00
  -10    2   18    -11.83      0.00
   -9    2   18      2.73      0.00
   -8    2   18      8.16      0.00
   -7    2   18    -12.23      0.00
   -6    2   18     10.61      0.00
   -5    2   18      1.36      0.00
   -4    2   18      3.34      0.00
   -3    2   18    -15.57      0.00
   -2    2   18    -17.67      0.00
   -1    2   18      8.83      0.00
    0    2   18     12.01      0.00
    1    2   18    -10.07      0.00
    2    2   18      8.64      0.00
    3    2   18     -2.18      0.00
    4    2   18     -8.03      0.00
    5    2   18     -3.01      0.00
    6    2   18     -9.32      0.00
    7    2   18     -5.60      0.00
    8    2   18     11.66      0.00
    9    2   18      2.66      0.00
   10    2   18      2.83      0.00
   11    2   18     -2.76      0.00
   12    2   18     -9.35      0.00
   13    2   18      1.82      0.00
   14    2   18      0.84      0.00
   15    2   18     -3.11      0.00
  -18    3   18      4.35      0.00
  -17    3   18      3.61      0.00
  -16    3   18      2.09      0.00
  -15    3   18     14.81      0.00
  -14    3   18      3.50      0.00
  -13    3   18     -1.67      0.00
  -12    3   18     -0.11      0.00
  -11    3   18     -5.63      0.00
  -10    3   18      4.10      0.00
   -9    3   18      6.57      0.00
   -8    3   18     -7.94      0.00
   -7    3   18      3.10      0.00
   -6    3   18      4.98      0.00
   -5    3   18     -7.11      0.00
   -4    3   18     -4.66      0.00
   -3    3   18    -18.70      0.00
   -2    3   18      9.18      0.00
   -1    3   18     11.86      0.00
    0    3   18    -11.07      0.00
    1    3   18     -6.25      0.00
    2    3   18      0.44      0.00
    3    3   18    -15.62      0.00
    4    3   18     -4.22      0.00
    5    3   18      1.49      0.00
    6    3   18     -2.72      0.00
    7    3   18      6.46      0.00
    8    3   18     -0.93      0.00
    9    3   18     -0.61      0.00
   10    3   18      0.12      0.00
   11    3   18    -11.92      0.00
   12    3   18     -0.15      0.00
   13    3   18      8.37      0.00
   14    3   18     -2.61      0.00
   15    3   18      5.76      0.00
  -17    4   18     -6.16      0.00
  -16    4   18      8.38      0.00
  -15    4   18      2.51      0.00
  -14    4   18    -10.66      0.00
  -13    4   18     -5.36      0.00
  -12    4   18     -0.32      0.00
  -11    4   18      7.45      0.00
  -10    4   18      3.49      0.00
   -9    4   18     -3.05      0.00
   -8    4   18      0.03      0.00
   -7    4   18      9.28      0.00
   -6    4   18    -11.75      0.00
   -5    4   18      6.51      0.00
   -4    4   18     -4.29      0.00
   -3    4   18      7.17      0.00
   -2    4   18     11.87      0.00
   -1    4   18      0.62      0.00
    0    4   18     -6.42      0.00
    1    4   18      8.80      0.00
    2    4   18     -6.56      0.00
    3    4   18      3.14      0.00
    4    4   18     13.51      0.00
    5    4   18      5.27      0.00
    6    4   18      4.03      0.00
    7    4   18      0.21      0.00
    8    4   18     -3.13      0.00
    9    4   18      6.91      0.00
   10    4   18     -8.20      0.00
   11    4   18     -1.49      0.00
   12    4   18     11.78      0.00
   13    4   18     -0.29      0.00
   14    4   18     -1.88      0.00
  -16    5   18      2.26      0.00
  -15    5   18    -10.98      0.00
  -14    5   18     -7.49      0.00
  -13    5   18     -0.42      0.00
  -12    5   18      5.75      0.00
  -11    5   18      0.72      0.00
  -10    5   18     -6.24      0.00
   -9    5   18     -4.74      0.00
   -8    5   18      3.94      0.00
   -7    5   18    -12.21      0.00
   -6    5   18      2.37      0.00
   -5    5   18      8.92      0.00
   -4    5   18     -2.90      0.00
   -3    5   18      3.19      0.00
   -2    5   18      2.02      0.00
   -1    5   18     -2.48      0.00
    0    5   18      4.22      0.00
    1    5   18     -4.33      0.00
    2    5   18      2.09      0.00
    3    5   18     12.38      0.00
    4    5   18      2.89      0.00
    5    5   18     -4.10      0.00
    6    5   18     -2.55      0.00
    7    5   18     -6.79      0.00
    8    5   18      9.18      0.00
    9    5   18     -1.15      0.00
   10    5   18     -5.38      0.00
   11    5   18      8.62      0.00
   12    5   18      0.12      0.00
   13    5   18     -6.88      0.00
  -14    6   18      3.43      0.00
  -13    6   18      5.61      0.00
  -12    6   18      4.51      0.00
  -11    6   18     -4.06      0.00
  -10    6   18     -2.75      0.00
   -9    6   18      1.41      0.00
   -8    6   18     -3.46      0.00
   -7    6   18     -1.74      0.00
   -6    6   18     15.65      0.00
   -5    6   18     -6.47      0.00
   -4    6   18     -6.15      0.00
   -3    6   18     -3.04      0.00
   -2    6   18     -0.21      0.00
   -1    6   18     -3.38      0.00
    0    6   18     -6.68      0.00
    1    6   18     -4.95      0.00
    2    6   18      6.91      0.00
    3    6   18     -3.56      0.00
    4    6   18    -10.19      0.00
    5    6   18     -4.10      0.00
    6    6   18     -7.87      0.00
    7    6   18      5.91      0.00
    8    6   18      4.19      0.00
    9    6   18     -9.33      0.00
   10    6   18      1.78      0.00
   11    6   18      0.51      0.00
  -12    7   18     -1.47      0.00
  -11    7   18     -0.41      0.00
  -10    7   18      0.36      0.00
   -9    7   18      3.47      0.00
   -8    7   18     -1.41      0.00
   -7    7   18     13.08      0.00
   -6    7   18     -1.26      0.00
   -5    7   18     -9.35      0.00
   -4    7   18     -0.85      0.00
   -3    7   18      2.86      0.00
   -2    7   18      1.32      0.00
   -1    7   18     -0.86      0.00
    0    7   18     -2.96      0.00
    1    7   18      7.05      0.00
    2    7   18     -0.96      0.00
    3    7   18     -4.59      0.00
    4    7   18      1.14      0.00
    5    7   18      1.06      0.00
    6    7   18      0.39      0.00
    7    7   18      8.49      0.00
    8    7   18     -5.49      0.00
    9    7   18     -1.11      0.00
   -9    8   18     -1.83      0.00
   -8    8   18      2.40      0.00
   -7    8   18      0.74      0.00
   -6    8   18     -9.26      0.00
   -5    8   18      0.85      0.00
   -4    8   18      3.84      0.00
   -3    8   18      3.34      0.00
   -2    8   18      1.81      0.00
   -1    8   18     -0.12      0.00
    0    8   18      3.09      0.00
    1    8   18      1.36      0.00
    2    8   18     -0.10      0.00
    3    8   18      2.79      0.00
    4    8   18      7.70      0.00
    5    8   18     -3.48      0.00
    6    8   18      5.09      0.00
  -17    0   19    -13.48      0.00
  -15    0   19      2.61      0.00
  -13    0   19      0.14      0.00
  -11    0   19      9.28      0.00
   -9    0   19    -11.40      0.00
   -7    0   19     17.67      0.00
   -5    0   19      8.15      0.00
   -3    0   19    -13.22      0.00
   -1    0   19     -5.74      0.00
    1    0   19     15.09      0.00
    3    0   19      6.86      0.00
    5    0   19     -7.31      0.00
    7    0   19     -7.07      0.00
    9    0   19     18.24      0.00
   11    0   19     -6.99      0.00
   13    0   19      0.32      0.00
   15    0   19      3.64      0.00
  -18    1   19     -4.67      0.00
  -17    1   19     -0.61      0.00
  -16    1   19     10.91      0.00
  -15    1   19      3.20      0.00
  -14    1   19      2.16      0.00
  -13    1   19     -0.49      0.00
  -12    1   19      0.87      0.00
  -11    1   19      1.80      0.00
  -10    1   19    -13.22      0.00
   -9    1   19     -1.18      0.00
   -8    1   19     11.44      0.00
   -7    1   19     -4.84      0.00
   -6    1   19    -13.04      0.00
   -5    1   19      4.80      0.00
   -4    1   19    -21.79      0.00
   -3    1   19     -4.40      0.00
   -2    1   19     -5.70      0.00
   -1    1   19      5.95      0.00
    0    1   19      7.70      0.00
    1    1   19     -8.51      0.00
    2    1   19    -11.96      0.00
    3    1   19      1.13      0.00
    4    1   19    -14.63      0.00
    5    1   19     -2.58      0.00
    6    1   19     -0.03      0.00
    7    1   19     -1.07      0.00
    8    1   19     12.07      0.00
    9    1   19      2.37      0.00
   10    1   19    -12.19      0.00
   11    1   19     -5.69      0.00
   12    1   19      2.71      0.00
   13    1   19      1.99      0.00
   14    1   19      6.09      0.00
   15    1   19     -2.17      0.00
  -18    2   19      1.03      0.00
  -17    2   19     11.40      0.00
  -16    2   19      1.92      0.00
  -15    2   19     -0.02      0.00
  -14    2   19     -1.67      0.00
  -13    2   19     -7.28      0.00
  -12    2   19      2.03      0.00
  -11    2   19     -3.91      0.00
  -10    2   19      0.14      0.00
   -9    2   19      9.12      0.00
   -8    2   19      0.75      0.00
   -7    2   19    -13.61      0.00
   -6    2   19     12.64      0.00
   -5    2   19     -6.49      0.00
   -4    2   19     -1.04      0.00
   -3    2   19      5.10      0.00
   -2    2   19     10.85      0.00
   -1    2   19     11.06      0.00
    0    2   19     -6.92      0.00
    1    2   19    -15.46      0.00
    2    2   19     10.99      0.00
    3    2   19     -1.65      0.00
    4    2   19      0.70      0.00
    5    2   19     11.10      0.00
    6    2   19      2.94      0.00
    7    2   19      0.93      0.00
    8    2   19      2.91      0.00
    9    2   19    -11.72      0.00
   10    2   19     -3.98      0.00
   11    2   19      3.53      0.00
   12    2   19      3.77      0.00
   13    2   19      5.54      0.00
   14    2   19     -0.94      0.00
   15    2   19     -4.62      0.00
  -17    3   19     -4.02      0.00
  -16    3   19     -7.74      0.00
  -15    3   19     -0.99      0.00
  -14    3   19    -11.50      0.00
  -13    3   19     -2.06      0.00
  -12    3   19      8.72      0.00
  -11    3   19      1.74      0.00
  -10    3   19      2.49      0.00
   -9    3   19     -1.07      0.00
   -8    3   19     -6.80      0.00
   -7    3   19      7.19      0.00
   -6    3   19      3.79      0.00
   -5    3   19     -5.41      0.00
   -4    3   19     11.51      0.00
   -3    3   19      2.86      0.00
   -2    3   19     11.32      0.00
   -1    3   19     -3.93      0.00
    0    3   19    -12.10      0.00
    1    3   19     10.71      0.00
    2    3   19     11.35      0.00
    3    3   19     -1.02      0.00
    4    3   19     10.61      0.00
    5    3   19      4.13      0.00
    6    3   19     -8.15      0.00
    7    3   19      1.71      0.00
    8    3   19     -3.47      0.00
    9    3   19      0.03      0.00
   10    3   19      5.34      0.00
   11    3   19      0.57      0.00
   12    3   19      3.61      0.00
   13    3   19      0.48      0.00
   14    3   19     -7.88      0.00
  -16    4   19      6.58      0.00
  -15    4   19     -3.50      0.00
  -14    4   19     -3.95      0.00
  -13    4   19     13.96      0.00
  -12    4   19      4.29      0.00
  -11    4   19     -5.28      0.00
  -10    4   19     -8.16      0.00
   -9    4   19     -1.95      0.00
   -8    4   19      0.75      0.00
   -7    4   19      4.70      0.00
   -6    4   19    -10.45      0.00
   -5    4   19      9.36      0.00
   -4    4   19     -6.35      0.00
   -3    4   19     -2.67      0.00
   -2    4   19     -4.12      0.00
   -1    4   19     -9.95      0.00
    0    4   19     -2.37      0.00
    1    4   19      9.06      0.00
    2    4   19     -7.52      0.00
    3    4   19     -0.51      0.00
    4    4   19     -1.87      0.00
    5    4   19    -14.09      0.00
    6    4   19     -3.11      0.00
    7    4   19      2.38      0.00
    8    4   19     -1.26      0.00
    9    4   19      4.58      0.00
   10    4   19     -4.25      0.00
   11    4   19      1.28      0.00
   12    4   19      2.11      0.00
   13    4   19     -6.77      0.00
  -15    5   19     -4.71      0.00
  -14    5   19      9.84      0.00
  -13    5   19      6.70      0.00
  -12    5   19     -4.84      0.00
  -11    5   19     -6.20      0.00
  -10    5   19      1.73      0.00
   -9    5   19      4.87      0.00
   -8    5   19      6.71      0.00
   -7    5   19     -5.05      0.00
   -6    5   19      5.69      0.00
   -5    5   19     -0.34      0.00
   -4    5   19    -12.25      0.00
   -3    5   19      2.26      0.00
   -2    5   19      0.34      0.00
   -1    5   19     -3.62      0.00
    0    5   19      3.79      0.00
    1    5   19     -3.43      0.00
    2    5   19     -0.69      0.00
    3    5   19     -0.88      0.00
    4    5   19     -9.02      0.00
    5    5   19     -1.92      0.00
    6    5   19      8.79      0.00
    7    5   19     -0.89      0.00
    8    5   19      3.42      0.00
    9    5   19     -4.87      0.00
   10    5   19     -1.35      0.00
   11    5   19      4.57      0.00
   12    5   19     -3.08      0.00
  -13    6   19     -4.88      0.00
  -12    6   19     -3.62      0.00
  -11    6   19     -1.08      0.00
  -10    6   19      4.07      0.00
   -9    6   19      3.63      0.00
   -8    6   19     -1.07      0.00
   -7    6   19     -1.33      0.00
   -6    6   19      4.96      0.00
   -5    6   19    -12.25      0.00
   -4    6   19      5.15      0.00
   -3    6   19     10.53      0.00
   -2    6   19      3.82      0.00
   -1    6   19      0.34      0.00
    0    6   19      3.29      0.00
    1    6   19      4.17      0.00
    2    6   19      4.86      0.00
    3    6   19     -3.08      0.00
    4    6   19      0.93      0.00
    5    6   19     11.06      0.00
    6    6   19      0.66      0.00
    7    6   19      2.84      0.00
    8    6   19     -1.86      0.00
    9    6   19     -3.81      0.00
   10    6   19      5.74      0.00
  -11    7   19      0.19      0.00
  -10    7   19     -1.00      0.00
   -9    7   19     -0.32      0.00
   -8    7   19     -5.21      0.00
   -7    7   19      2.03      0.00
   -6    7   19     -7.81      0.00
   -5    7   19     -0.71      0.00
   -4    7   19     10.45      0.00
   -3    7   19      1.62      0.00
   -2    7   19     -5.15      0.00
   -1    7   19     -1.83      0.00
    0    7   19     -0.18      0.00
    1    7   19      3.14      0.00
    2    7   19     -4.59      0.00
    3    7   19     -1.16      0.00
    4    7   19      3.64      0.00
    5    7   19     -0.56      0.00
    6    7   19     -2.41      0.00
    7    7   19      2.12      0.00
    8    7   19     -6.12      0.00
   -7    8   19     -0.22      0.00
   -6    8   19     -2.05      0.00
   -5    8   19      7.04      0.00
   -4    8   19     -0.97      0.00
   -3    8   19     -6.07      0.00
   -2    8   19     -3.56      0.00
   -1    8   19     -1.64      0.00
    0    8   19      0.71      0.00
    1    8   19     -2.40      0.00
    2    8   19     -1.65      0.00
    3    8   19     -2.05      0.00
    4    8   19     -0.56      0.00
  -16    0   20     11.59      0.00
  -14    0   20     -9.39      0.00
  -12    0   20     -1.18      0.00
  -10    0   20     -7.55      0.00
   -8    0   20      7.01      0.00
   -6    0   20    -20.13      0.00
   -4    0   20      2.25      0.00
   -2    0   20     14.12      0.00
    0    0   20     -4.41      0.00
    2    0   20    -14.39      0.00
    4    0   20      0.43      0.00
    6    0   20      8.85      0.00
    8    0   20     -2.31      0.00
   10    0   20    -13.19      0.00
   12    0   20      6.55      0.00
   14    0   20     -3.45      0.00
  -17    1   20      2.12      0.00
  -16    1   20     -0.07      0.00
  -15    1   20    -12.67      0.00
  -14    1   20     -3.16      0.00
  -13    1   20      3.36      0.00
  -12    1   20      1.85      0.00
  -11    1   20      3.09      0.00
  -10    1   20     -0.71      0.00
   -9    1   20     10.48      0.00
   -8    1   20      3.14      0.00
   -7    1   20     -7.96      0.00
   -6    1   20      2.93      0.00
   -5    1   20     21.18      0.00
   -4    1   20     -4.37      0.00
   -3    1   20     15.99      0.00
   -2    1   20      3.88      0.00
   -1    1   20     -2.94      0.00
    0    1   20     -3.33      0.00
    1    1   20     -2.98      0.00
    2    1   20      8.65      0.00
    3    1   20     14.85      0.00
    4    1   20     -2.84      0.00
    5    1   20      7.95      0.00
    6    1   20      2.44      0.00
    7    1   20     -7.58      0.00
    8    1   20      0.11      0.00
    9    1   20     -5.39      0.00
   10    1   20     -0.38      0.00
   11    1   20      9.34      0.00
   12    1   20      4.94      0.00
   13    1   20     -5.48      0.00
   14    1   20     -1.56      0.00
  -17    2   20     -1.44      0.00
  -16    2   20     -8.54      0.00
  -15    2   20     -1.36      0.00
  -14    2   20      6.65      0.00
  -13    2   20      2.01      0.00
  -12    2   20      7.53      0.00
  -11    2   20     -2.55      0.00
  -10    2   20     -0.30      0.00
   -9    2   20     -0.89      0.00
   -8    2   20     -4.85      0.00
   -7    2   20     -3.84      0.00
   -6    2   20     15.48      0.00
   -5    2   20    -11.55      0.00
   -4    2   20     -1.18      0.00
   -3    2   20      2.25      0.00
   -2    2   20     -8.18      0.00
   -1    2   20     -7.98      0.00
    0    2   20     -3.27      0.00
    1    2   20      4.60      0.00
    2    2   20     14.47      0.00
    3    2   20    -11.27      0.00
    4    2   20     -4.69      0.00
    5    2   20      1.24      0.00
    6    2   20     -9.55      0.00
    7    2   20     -1.97      0.00
    8    2   20      6.40      0.00
    9    2   20     -0.76      0.00
   10    2   20      7.23      0.00
   11    2   20      2.97      0.00
   12    2   20     -5.63      0.00
   13    2   20     -3.76      0.00
   14    2   20     -0.87      0.00
  -16    3   20      3.31      0.00
  -15    3   20      8.69      0.00
  -14    3   20     -0.16      0.00
  -13    3   20      5.39      0.00
  -12    3   20      0.27      0.00
  -11    3   20    -12.66      0.00
  -10    3   20     -3.40      0.00
   -9    3   20      1.57      0.00
   -8    3   20      0.03      0.00
   -7    3   20      4.38      0.00
   -6    3   20     -5.86      0.00
   -5    3   20    -10.40      0.00
   -4    3   20      6.63      0.00
   -3    3   20    -10.83      0.00
   -2    3   20     -3.86      0.00
   -1    3   20     -3.42      0.00
    0    3   20      0.31      0.00
    1    3   20      9.09      0.00
    2    3   20     -9.08      0.00
    3    3   20    -13.21      0.00
    4    3   20      1.43      0.00
    5    3   20     -3.95      0.00
    6    3   20     -3.42      0.00
    7    3   20     10.73      0.00
    8    3   20     -1.24      0.00
    9    3   20     -1.36      0.00
   10    3   20      0.35      0.00
   11    3   20     -4.84      0.00
   12    3   20     -1.12      0.00
   13    3   20      1.75      0.00
  -15    4   20     -5.42      0.00
  -14    4   20     -1.17      0.00
  -13    4   20      4.84      0.00
  -12    4   20    -12.74      0.00
  -11    4   20     -3.02      0.00
  -10    4   20      9.82      0.00
   -9    4   20      9.51      0.00
   -8    4   20     -1.70      0.00
   -7    4   20      0.38      0.00
   -6    4   20     -6.48      0.00
   -5    4   20     11.50      0.00
   -4    4   20     -4.86      0.00
   -3    4   20      3.84      0.00
   -2    4   20      8.36      0.00
   -1    4   20      2.86      0.00
    0    4   20      5.14      0.00
    1    4   20      3.68      0.00
    2    4   20     -8.53      0.00
    3    4   20      4.80      0.00
    4    4   20      6.41      0.00
    5    4   20      1.54      0.00
    6    4   20     10.25      0.00
    7    4   20      1.52      0.00
    8    4   20     -6.83      0.00
    9    4   20      2.01      0.00
   10    4   20     -2.72      0.00
   11    4   20      1.72      0.00
   12    4   20      1.81      0.00
  -14    5   20      5.75      0.00
  -13    5   20     -6.10      0.00
  -12    5   20     -6.12      0.00
  -11    5   20      7.55      0.00
  -10    5   20      6.86      0.00
   -9    5   20     -5.61      0.00
   -8    5   20     -4.43      0.00
   -7    5   20     -4.58      0.00
   -6    5   20      5.35      0.00
   -5    5   20     -0.28      0.00
   -4    5   20     -1.65      0.00
   -3    5   20     13.20      0.00
   -2    5   20     -1.04      0.00
   -1    5   20     -5.44      0.00
    0    5   20      4.69      0.00
    1    5   20     -2.87      0.00
    2    5   20      1.00      0.00
    3    5   20      4.33      0.00
    4    5   20      1.42      0.00
    5    5   20      3.23      0.00
    6    5   20      1.65      0.00
    7    5   20     -9.76      0.00
    8    5   20      2.39      0.00
    9    5   20     -0.18      0.00
   10    5   20      1.32      0.00
   11    5   20      1.04      0.00
  -12    6   20      4.26      0.00
  -11    6   20      2.95      0.00
  -10    6   20     -2.68      0.00
   -9    6   20     -4.41      0.00
   -8    6   20     -1.55      0.00
   -7    6   20     -0.05      0.00
   -6    6   20      3.45      0.00
   -5    6   20     -6.40      0.00
   -4    6   20      7.41      0.00
   -3    6   20     -4.91      0.00
   -2    6   20    -13.50      0.00
   -1    6   20     -2.96      0.00
    0    6   20      1.24      0.00
    1    6   20     -3.65      0.00
    2    6   20     -2.26      0.00
    3    6   20     -2.70      0.00
    4    6   20     -1.21      0.00
    5    6   20      1.51      0.00
    6    6   20     -9.02      0.00
    7    6   20     -0.09      0.00
    8    6   20      0.84      0.00
    9    6   20     -0.32      0.00
   -9    7   20      2.95      0.00
   -8    7   20      0.03      0.00
   -7    7   20      4.96      0.00
   -6    7   20     -1.16      0.00
   -5    7   20      2.38      0.00
   -4    7   20      0.65      0.00
   -3    7   20     -8.56      0.00
   -2    7   20     -0.83      0.00
   -1    7   20      7.05      0.00
    0    7   20      1.55      0.00
    1    7   20      0.29      0.00
    2    7   20     -2.69      0.00
    3    7   20      2.12      0.00
    4    7   20      2.72      0.00
    5    7   20     -2.43      0.00
    6    7   20     -1.74      0.00
   -4    8   20     -2.84      0.00
   -3    8   20      1.46      0.00
   -2    8   20      6.05      0.00
   -1    8   20      3.22      0.00
    0    8   20      1.37      0.00
    1    8   20     -1.77      0.00
  -17    0   21     -3.06      0.00
  -15    0   21     -8.07      0.00
  -13    0   21     14.97      0.00
  -11    0   21     -0.61      0.00
   -9    0   21      6.39      0.00
   -7    0   21     -3.12      0.00
   -5    0   21     17.12      0.00
   -3    0   21    -10.45      0.00
   -1    0   21     -9.46      0.00
    1    0   21     11.88      0.00
    3    0   21      9.55      0.00
    5    0   21     -6.41      0.00
    7    0   21     -5.24      0.00
    9    0   21      8.47      0.00
   11    0   21      7.23      0.00
   13    0   21     -3.29      0.00
  -16    1   21      0.13      0.00
  -15    1   21      0.59      0.00
  -14    1   21     11.85      0.00
  -13    1   21      2.22      0.00
  -12    1   21     -9.96      0.00
  -11    1   21     -3.15      0.00
  -10    1   21     -4.32      0.00
   -9    1   21     -0.48      0.00
   -8    1   21     -7.79      0.00
   -7    1   21     -3.47      0.00
   -6    1   21      2.23      0.00
   -5    1   21     -0.77      0.00
   -4    1   21    -23.54      0.00
   -3    1   21      3.32      0.00
   -2    1   21     -6.89      0.00
   -1    1   21     -3.95      0.00
    0    1   21      6.90      0.00
    1    1   21      1.39      0.00
    2    1   21     -2.74      0.00
    3    1   21     -7.59      0.00
    4    1   21    -14.23      0.00
    5    1   21      4.33      0.00
    6    1   21      0.49      0.00
    7    1   21     -2.20      0.00
    8    1   21      9.22      0.00
    9    1   21     -0.77      0.00
   10    1   21     -0.38      0.00
   11    1   21     -0.92      0.00
   12    1   21     -4.84      0.00
   13    1   21     -3.59      0.00
  -16    2   21      1.52      0.00
  -15    2   21      4.30      0.00
  -14    2   21      0.23      0.00
  -13    2   21    -11.46      0.00
  -12    2   21     -1.35      0.00
  -11    2   21     -4.16      0.00
  -10    2   21      3.22      0.00
   -9    2   21      3.52      0.00
   -8    2   21      2.36      0.00
   -7    2   21     -0.37      0.00
   -6    2   21      5.82      0.00
   -5    2   21    -12.41      0.00
   -4    2   21      8.38      0.00
   -3    2   21      7.86      0.00
   -2    2   21     -2.78      0.00
   -1    2   21      6.40      0.00
    0    2   21      6.29      0.00
    1    2   21     -2.75      0.00
    2    2   21     -2.26      0.00
    3    2   21    -10.91      0.00
    4    2   21     10.44      0.00
    5    2   21      9.34      0.00
    6    2   21     -3.44      0.00
    7    2   21      3.69      0.00
    8    2   21      0.80      0.00
    9    2   21     -8.97      0.00
   10    2   21      0.27      0.00
   11    2   21     -2.35      0.00
   12    2   21     -1.48      0.00
   13    2   21      4.33      0.00
  -15    3   21     -2.85      0.00
  -14    3   21     -6.89      0.00
  -13    3   21      2.21      0.00
  -12    3   21      1.59      0.00
  -11    3   21      0.96      0.00
  -10    3   21     12.64      0.00
   -9    3   21      4.02      0.00
   -8    3   21     -5.40      0.00
   -7    3   21      0.08      0.00
   -6    3   21      0.94      0.00
   -5    3   21      3.13      0.00
   -4    3   21     13.63      0.00
   -3    3   21     -5.73      0.00
   -2    3   21      6.10      0.00
   -1    3   21      5.01      0.00
    0    3   21     -2.04      0.00
    1    3   21      1.71      0.00
    2    3   21     -5.17      0.00
    3    3   21      7.20      0.00
    4    3   21     12.76      0.00
    5    3   21     -2.45      0.00
    6    3   21     -2.90      0.00
    7    3   21      3.39      0.00
    8    3   21     -8.47      0.00
    9    3   21      0.77      0.00
   10    3   21      4.17      0.00
   11    3   21     -0.27      0.00
   12    3   21      2.29      0.00
  -14    4   21      4.20      0.00
  -13    4   21      3.83      0.00
  -12    4   21     -5.81      0.00
  -11    4   21      8.01      0.00
  -10    4   21      1.41      0.00
   -9    4   21    -11.37      0.00
   -8    4   21    -10.01      0.00
   -7    4   21      5.65      0.00
   -6    4   21     -1.48      0.00
   -5    4   21      5.34      0.00
   -4    4   21    -10.61      0.00
   -3    4   21     -1.18      0.00
   -2    4   21     -1.39      0.00
   -1    4   21     -9.72      0.00
    0    4   21     -2.53      0.00
    1    4   21     -0.62      0.00
    2    4   21     -3.45      0.00
    3    4   21      6.18      0.00
    4    4   21     -3.13      0.00
    5    4   21     -9.56      0.00
    6    4   21     -0.78      0.00
    7    4   21     -4.26      0.00
    8    4   21     -1.30      0.00
    9    4   21      7.98      0.00
   10    4   21     -1.70      0.00
   11    4   21      0.28      0.00
  -13    5   21     -5.71      0.00
  -12    5   21      1.91      0.00
  -11    5   21      5.30      0.00
  -10    5   21     -6.72      0.00
   -9    5   21     -6.93      0.00
   -8    5   21      7.65      0.00
   -7    5   21      4.57      0.00
   -6    5   21      0.98      0.00
   -5    5   21     -5.03      0.00
   -4    5   21     -4.38      0.00
   -3    5   21      3.21      0.00
   -2    5   21     -9.46      0.00
   -1    5   21     -0.53      0.00
    0    5   21      8.59      0.00
    1    5   21     -4.19      0.00
    2    5   21      0.64      0.00
    3    5   21      0.31      0.00
    4    5   21     -5.00      0.00
    5    5   21     -2.19      0.00
    6    5   21      1.78      0.00
    7    5   21     -1.68      0.00
    8    5   21      8.30      0.00
    9    5   21     -2.14      0.00
  -11    6   21     -2.05      0.00
  -10    6   21     -2.76      0.00
   -9    6   21      4.45      0.00
   -8    6   21      5.57      0.00
   -7    6   21     -0.81      0.00
   -6    6   21      0.58      0.00
   -5    6   21     -3.82      0.00
   -4    6   21      7.45      0.00
   -3    6   21     -1.23      0.00
   -2    6   21      3.97      0.00
   -1    6   21     13.25      0.00
    0    6   21      1.71      0.00
    1    6   21     -3.76      0.00
    2    6   21      3.08      0.00
    3    6   21      2.53      0.00
    4    6   21     -0.04      0.00
    5    6   21      3.56      0.00
    6    6   21     -2.08      0.00
    7    6   21      5.80      0.00
   -7    7   21     -0.66      0.00
   -6    7   21     -3.29      0.00
   -5    7   21      0.83      0.00
   -4    7   21      1.37      0.00
   -3    7   21     -0.63      0.00
   -2    7   21      5.24      0.00
   -1    7   21     -0.28      0.00
    0    7   21     -8.59      0.00
    1    7   21     -0.77      0.00
    2    7   21      1.62      0.00
    3    7   21      1.57      0.00
    4    7   21     -0.86      0.00
  -16    0   22      3.46      0.00
  -14    0   22      1.98      0.00
  -12    0   22    -16.38      0.00
  -10    0   22      3.44      0.00
   -8    0   22     -5.46      0.00
   -6    0   22      0.58      0.00
   -4    0   22    -10.94      0.00
   -2    0   22     14.00      0.00
    0    0   22      1.60      0.00
    2    0   22    -14.42      0.00
    4    0   22     -2.42      0.00
    6    0   22      7.90      0.00
    8    0   22     -0.29      0.00
   10    0   22    -10.39      0.00
   12    0   22     -3.09      0.00
  -15    1   22     -2.64      0.00
  -14    1   22     -0.41      0.00
  -13    1   22     -7.08      0.00
  -12    1   22     -0.98      0.00
  -11    1   22     14.53      0.00
  -10    1   22      4.45      0.00
   -9    1   22      3.26      0.00
   -8    1   22      0.59      0.00
   -7    1   22      5.98      0.00
   -6    1   22      2.86      0.00
   -5    1   22      3.15      0.00
   -4    1   22     -0.89      0.00
   -3    1   22     20.38      0.00
   -2    1   22     -1.95      0.00
   -1    1   22     -1.96      0.00
    0    1   22      4.52      0.00
    1    1   22     -6.05      0.00
    2    1   22     -0.68      0.00
    3    1   22      7.58      0.00
    4    1   22      5.53      0.00
    5    1   22      9.32      0.00
    6    1   22     -4.63      0.00
    7    1   22     -6.21      0.00
    8    1   22      2.22      0.00
    9    1   22     -6.81      0.00
   10    1   22      1.83      0.00
   11    1   22      3.43      0.00
   12    1   22      1.75      0.00
  -15    2   22     -1.04      0.00
  -14    2   22      1.12      0.00
  -13    2   22      0.33      0.00
  -12    2   22     12.05      0.00
  -11    2   22      0.26      0.00
  -10    2   22     -1.05      0.00
   -9    2   22     -4.32      0.00
   -8    2   22     -4.22      0.00
   -7    2   22     -3.35      0.00
   -6    2   22      4.11      0.00
   -5    2   22     -6.12      0.00
   -4    2   22      6.59      0.00
   -3    2   22     -4.63      0.00
   -2    2   22    -11.16      0.00
   -1    2   22      2.57      0.00
    0    2   22     -2.07      0.00
    1    2   22     -5.81      0.00
    2    2   22      6.61      0.00
    3    2   22      0.50      0.00
    4    2   22      4.94      0.00
    5    2   22     -7.89      0.00
    6    2   22     -9.38      0.00
    7    2   22      4.57      0.00
    8    2   22      2.06      0.00
    9    2   22      0.01      0.00
   10    2   22      7.78      0.00
   11    2   22     -0.67      0.00
  -14    3   22      1.71      0.00
  -13    3   22      2.66      0.00
  -12    3   22     -4.07      0.00
  -11    3   22     -6.78      0.00
  -10    3   22     -1.09      0.00
   -9    3   22     -8.99      0.00
   -8    3   22     -3.78      0.00
   -7    3   22      6.81      0.00
   -6    3   22      0.93      0.00
   -5    3   22     -6.83      0.00
   -4    3   22     -0.97      0.00
   -3    3   22    -12.15      0.00
   -2    3   22      3.58      0.00
   -1    3   22     -0.53      0.00
    0    3   22     -5.66      0.00
    1    3   22      5.36      0.00
    2    3   22     -2.58      0.00
    3    3   22     -0.02      0.00
    4    3   22     -4.63      0.00
    5    3   22     -9.06      0.00
    6    3   22      2.55      0.00
    7    3   22      6.73      0.00
    8    3   22     -3.08      0.00
    9    3   22      4.12      0.00
   10    3   22     -0.76      0.00
   11    3   22     -4.69      0.00
  -13    4   22     -2.51      0.00
  -12    4   22     -3.87      0.00
  -11    4   22      6.72      0.00
  -10    4   22     -2.12      0.00
   -9    4   22     -0.39      0.00
   -8    4   22      9.66      0.00
   -7    4   22     10.28      0.00
   -6    4   22     -8.52      0.00
   -5    4   22      1.35      0.00
   -4    4   22     -0.96      0.00
   -3    4   22      8.81      0.00
   -2    4   22      5.26      0.00
   -1    4   22     -0.39      0.00
    0    4   22      8.22      0.00
    1    4   22      1.76      0.00
    2    4   22     -3.39      0.00
    3    4   22      3.53      0.00
    4    4   22     -2.25      0.00
    5    4   22      1.64      0.00
    6    4   22      8.99      0.00
    7    4   22      0.51      0.00
    8    4   22     -1.30      0.00
    9    4   22      1.19      0.00
   10    4   22     -6.21      0.00
  -11    5   22      1.27      0.00
  -10    5   22     -4.29      0.00
   -9    5   22      3.70      0.00
   -8    5   22      6.37      0.00
   -7    5   22     -7.47      0.00
   -6    5   22     -5.26      0.00
   -5    5   22      3.58      0.00
   -4    5   22      4.51      0.00
   -3    5   22      5.53      0.00
   -2    5   22     -3.78      0.00
   -1    5   22      3.62      0.00
    0    5   22      0.92      0.00
    1    5   22     -8.91      0.00
    2    5   22      4.42      0.00
    3    5   22      1.62      0.00
    4    5   22     -1.45      0.00
    5    5   22      3.31      0.00
    6    5   22      3.03      0.00
    7    5   22     -4.74      0.00
    8    5   22      1.36      0.00
   -9    6   22      2.02      0.00
   -8    6   22     -4.10      0.00
   -7    6   22     -6.51      0.00
   -6    6   22      2.73      0.00
   -5    6   22     -1.03      0.00
   -4    6   22      1.83      0.00
   -3    6   22     -7.08      0.00
   -2    6   22     -3.95      0.00
   -1    6   22     -3.11      0.00
    0    6   22     -9.34      0.00
    1    6   22      0.86      0.00
    2    6   22      4.49      0.00
    3    6   22     -2.98      0.00
    4    6   22     -3.21      0.00
    5    6   22      2.38      0.00
   -4    7   22     -0.28      0.00
   -3    7   22     -2.93      0.00
   -2    7   22      0.47      0.00
   -1    7   22     -0.83      0.00
    0    7   22      1.38      0.00
  -13    0   23      3.39      0.00
  -11    0   23     14.30      0.00
   -9    0   23     -7.06      0.00
   -7    0   23      5.70      0.00
   -5    0   23      0.01      0.00
   -3    0   23      4.53      0.00
   -1    0   23    -12.61      0.00
    1    0   23      6.32      0.00
    3    0   23     11.28      0.00
    5    0   23     -3.00      0.00
    7    0   23     -5.75      0.00
    9    0   23      5.42      0.00
   11    0   23      8.55      0.00
  -14    1   23      3.01      0.00
  -13    1   23      0.19      0.00
  -12    1   23      0.84      0.00
  -11    1   23     -0.74      0.00
  -10    1   23    -16.14      0.00
   -9    1   23     -4.52      0.00
   -8    1   23     -0.08      0.00
   -7    1   23     -0.13      0.00
   -6    1   23     -5.78      0.00
   -5    1   23     -1.89      0.00
   -4    1   23     -6.10      0.00
   -3    1   23      2.00      0.00
   -2    1   23    -13.76      0.00
   -1    1   23     -0.25      0.00
    0    1   23      7.91      0.00
    1    1   23     -4.09      0.00
    2    1   23      1.47      0.00
    3    1   23      0.41      0.00
    4    1   23     -8.88      0.00
    5    1   23     -2.90      0.00
    6    1   23     -3.15      0.00
    7    1   23      3.48      0.00
    8    1   23      8.26      0.00
    9    1   23     -2.43      0.00
   10    1   23      2.25      0.00
   11    1   23     -2.74      0.00
  -14    2   23      1.38      0.00
  -13    2   23     -5.31      0.00
  -12    2   23     -0.89      0.00
  -11    2   23     -8.54      0.00
  -10    2   23      1.72      0.00
   -9    2   23      5.78      0.00
   -8    2   23      4.56      0.00
   -7    2   23      2.34      0.00
   -6    2   23      3.55      0.00
   -5    2   23     -5.12      0.00
   -4    2   23      5.25      0.00
   -3    2   23     -0.74      0.00
   -2    2   23      0.76      0.00
   -1    2   23     10.86      0.00
    0    2   23     -0.62      0.00
    1    2   23     -3.30      0.00
    2    2   23      5.01      0.00
    3    2   23     -6.78      0.00
    4    2   23      0.61      0.00
    5    2   23      0.23      0.00
    6    2   23      4.38      0.00
    7    2   23      6.31      0.00
    8    2   23     -4.48      0.00
    9    2   23     -5.94      0.00
   10    2   23     -0.06      0.00
  -13    3   23     -1.09      0.00
  -12    3   23      2.25      0.00
  -11    3   23      5.66      0.00
  -10    3   23      8.24      0.00
   -9    3   23     -0.38      0.00
   -8    3   23      4.05      0.00
   -7    3   23      3.17      0.00
   -6    3   23     -5.44      0.00
   -5    3   23     -2.05      0.00
   -4    3   23     10.72      0.00
   -3    3   23     -0.39      0.00
   -2    3   23      7.37      0.00
   -1    3   23     -0.56      0.00
    0    3   23     -4.66      0.00
    1    3   23      5.24      0.00
    2    3   23     -4.76      0.00
    3    3   23      2.47      0.00
    4    3   23      3.66      0.00
    5    3   23      2.19      0.00
    6    3   23      4.42      0.00
    7    3   23     -2.10      0.00
    8    3   23     -7.35      0.00
    9    3   23      3.01      0.00
  -12    4   23      1.43      0.00
  -11    4   23      1.75      0.00
  -10    4   23     -7.73      0.00
   -9    4   23     -2.23      0.00
   -8    4   23      0.27      0.00
   -7    4   23     -6.00      0.00
   -6    4   23     -9.79      0.00
   -5    4   23      8.91      0.00
   -4    4   23     -0.53      0.00
   -3    4   23     -4.17      0.00
   -2    4   23     -6.60      0.00
   -1    4   23     -6.95      0.00
    0    4   23      2.00      0.00
    1    4   23     -3.76      0.00
    2    4   23     -1.83      0.00
    3    4   23      4.52      0.00
    4    4   23     -3.29      0.00
    5    4   23     -0.84      0.00
    6    4   23     -0.89      0.00
    7    4   23     -5.96      0.00
    8    4   23      0.02      0.00
  -10    5   23     -2.32      0.00
   -9    5   23      3.51      0.00
   -8    5   23     -0.43      0.00
   -7    5   23     -4.96      0.00
   -6    5   23      5.03      0.00
   -5    5   23      5.63      0.00
   -4    5   23     -6.59      0.00
   -3    5   23     -4.18      0.00
   -2    5   23     -3.79      0.00
   -1    5   23      4.66      0.00
    0    5   23      2.34      0.00
    1    5   23     -2.48      0.00
    2    5   23      5.98      0.00
    3    5   23     -3.57      0.00
    4    5   23     -2.29      0.00
    5    5   23      1.51      0.00
    6    5   23     -0.86      0.00
   -7    6   23      2.23      0.00
   -6    6   23      6.48      0.00
   -5    6   23     -2.95      0.00
   -4    6   23      0.91      0.00
   -3    6   23      1.23      0.00
   -2    6   23      6.49      0.00
   -1    6   23      6.06      0.00
    0    6   23      0.21      0.00
    1    6   23      4.19      0.00
    2    6   23     -1.50      0.00
    3    6   23     -3.35      0.00
  -12    0   24     -6.92      0.00
  -10    0   24     -8.59      0.00
   -8    0   24      8.70      0.00
   -6    0   24     -6.10      0.00
   -4    0   24      0.66      0.00
   -2    0   24     -0.34      0.00
    0    0   24      8.16      0.00
    2    0   24    -11.32      0.00
    4    0   24     -5.19      0.00
    6    0   24      5.67      0.00
    8    0   24      0.65      0.00
  -13    1   24     -1.67      0.00
  -12    1   24      0.50      0.00
  -11    1   24      5.31      0.00
  -10    1   24      1.98      0.00
   -9    1   24     13.22      0.00
   -8    1   24      3.48      0.00
   -7    1   24     -2.66      0.00
   -6    1   24     -0.56      0.00
   -5    1   24      6.14      0.00
   -4    1   24      1.17      0.00
   -3    1   24      6.18      0.00
   -2    1   24     -2.22      0.00
   -1    1   24      6.50      0.00
    0    1   24      2.23      0.00
    1    1   24     -9.56      0.00
    2    1   24      2.96      0.00
    3    1   24      3.68      0.00
    4    1   24     -0.61      0.00
    5    1   24      7.19      0.00
    6    1   24      0.82      0.00
    7    1   24     -2.73      0.00
    8    1   24     -1.57      0.00
    9    1   24     -5.68      0.00
  -12    2   24      7.12      0.00
  -11    2   24      0.58      0.00
  -10    2   24      2.09      0.00
   -9    2   24     -3.16      0.00
   -8    2   24     -7.31      0.00
   -7    2   24     -4.11      0.00
   -6    2   24      0.33      0.00
   -5    2   24     -2.63      0.00
   -4    2   24      4.00      0.00
   -3    2   24     -3.78      0.00
   -2    2   24     -3.69      0.00
   -1    2   24      1.68      0.00
    0    2   24     -6.94      0.00
    1    2   24     -1.57      0.00
    2    2   24      6.59      0.00
    3    2   24     -4.08      0.00
    4    2   24      4.82      0.00
    5    2   24     -0.64      0.00
    6    2   24     -3.78      0.00
    7    2   24     -1.07      0.00
    8    2   24     -0.90      0.00
    9    2   24      3.23      0.00
  -12    3   24      0.49      0.00
  -11    3   24     -6.01      0.00
  -10    3   24     -5.46      0.00
   -9    3   24     -5.91      0.00
   -8    3   24      1.91      0.00
   -7    3   24     -0.25      0.00
   -6    3   24     -2.17      0.00
   -5    3   24      2.41      0.00
   -4    3   24      2.50      0.00
   -3    3   24    -11.77      0.00
   -2    3   24      0.59      0.00
   -1    3   24     -0.14      0.00
    0    3   24     -1.92      0.00
    1    3   24      5.91      0.00
    2    3   24     -4.24      0.00
    3    3   24      2.64      0.00
    4    3   24     -1.53      0.00
    5    3   24     -5.62      0.00
    6    3   24     -0.11      0.00
    7    3   24      0.31      0.00
    8    3   24      0.49      0.00
  -10    4   24      0.80      0.00
   -9    4   24      7.62      0.00
   -8    4   24      4.02      0.00
   -7    4   24     -0.59      0.00
   -6    4   24      2.09      0.00
   -5    4   24      8.45      0.00
   -4    4   24     -7.09      0.00
   -3    4   24     -0.40      0.00
   -2    4   24      8.94      0.00
   -1    4   24      3.95      0.00
    0    4   24      4.19      0.00
    1    4   24     -2.48      0.00
    2    4   24      0.39      0.00
    3    4   24      2.30      0.00
    4    4   24     -4.17      0.00
    5    4   24      3.16      0.00
    6    4   24      2.68      0.00
   -8    5   24     -3.10      0.00
   -7    5   24     -1.69      0.00
   -6    5   24      3.24      0.00
   -5    5   24     -1.90      0.00
   -4    5   24     -4.94      0.00
   -3    5   24      7.48      0.00
   -2    5   24      2.81      0.00
   -1    5   24     -0.53      0.00
    0    5   24     -3.75      0.00
    1    5   24     -4.77      0.00
    2    5   24      3.34      0.00
    3    5   24     -2.65      0.00
    4    5   24      2.61      0.00
  -11    0   25      6.21      0.00
   -9    0   25      3.06      0.00
   -7    0   25     -8.56      0.00
   -5    0   25      6.94      0.00
   -3    0   25     -2.31      0.00
   -1    0   25     -0.63      0.00
    1    0   25     -2.92      0.00
    3    0   25     11.79      0.00
    5    0   25     -0.85      0.00
    7    0   25     -4.48      0.00
  -11    1   25     -1.10      0.00
  -10    1   25     -7.53      0.00
   -9    1   25     -2.70      0.00
   -8    1   25     -8.50      0.00
   -7    1   25     -1.44      0.00
   -6    1   25      4.53      0.00
   -5    1   25      0.75      0.00
   -4    1   25     -6.85      0.00
   -3    1   25     -1.13      0.00
   -2    1   25     -3.66      0.00
   -1    1   25      2.23      0.00
    0    1   25     -1.25      0.00
    1    1   25     -3.94      0.00
    2    1   25      7.51      0.00
    3    1   25     -0.97      0.00
    4    1   25     -7.03      0.00
    5    1   25      0.57      0.00
    6    1   25     -2.97      0.00
    7    1   25      0.38      0.00
  -11    2   25     -4.95      0.00
  -10    2   25     -0.54      0.00
   -9    2   25      3.04      0.00
   -8    2   25      4.38      0.00
   -7    2   25      6.08      0.00
   -6    2   25      2.29      0.00
   -5    2   25     -2.67      0.00
   -4    2   25      1.32      0.00
   -3    2   25     -1.28      0.00
   -2    2   25      2.80      0.00
   -1    2   25      4.81      0.00
    0    2   25     -3.05      0.00
    1    2   25      2.41      0.00
    2    2   25      3.80      0.00
    3    2   25     -7.73      0.00
    4    2   25      2.42      0.00
    5    2   25     -0.88      0.00
    6    2   25      0.02      0.00
    7    2   25      3.18      0.00
  -10    3   25      6.62      0.00
   -9    3   25      4.76      0.00
   -8    3   25      1.96      0.00
   -7    3   25     -3.51      0.00
   -6    3   25     -1.17      0.00
   -5    3   25      1.82      0.00
   -4    3   25      0.95      0.00
   -3    3   25     -2.29      0.00
   -2    3   25      8.77      0.00
   -1    3   25     -0.16      0.00
    0    3   25     -4.89      0.00
    1    3   25      3.48      0.00
    2    3   25     -4.94      0.00
    3    3   25      2.69      0.00
    4    3   25      1.13      0.00
    5    3   25     -0.01      0.00
    6    3   25      3.83      0.00
   -8    4   25     -6.77      0.00
   -7    4   25     -3.15      0.00
   -6    4   25      1.37      0.00
   -5    4   25      0.58      0.00
   -4    4   25     -7.02      0.00
   -3    4   25      3.15      0.00
   -2    4   25      1.77      0.00
   -1    4   25     -9.70      0.00
    0    4   25     -2.07      0.00
    1    4   25     -0.69      0.00
    2    4   25      2.15      0.00
    3    4   25      2.07      0.00
    4    4   25     -3.43      0.00
   -3    5   25      4.56      0.00
   -2    5   25     -5.22      0.00
   -1    5   25     -2.29      0.00
  -10    0   26     -3.98      0.00
   -8    0   26      1.60      0.00
   -6    0   26      5.49      0.00
   -4    0   26     -6.51      0.00
   -2    0   26      3.60      0.00
    0    0   26     -1.19      0.00
    2    0   26     -0.41      0.00
    4    0   26     -8.53      0.00
   -9    1   26      6.93      0.00
   -8    1   26      2.03      0.00
   -7    1   26      2.91      0.00
   -6    1   26      0.10      0.00
   -5    1   26     -3.78      0.00
   -4    1   26     -0.55      0.00
   -3    1   26      6.21      0.00
   -2    1   26      1.01      0.00
   -1    1   26      0.51      0.00
    0    1   26     -1.02      0.00
    1    1   26     -0.81      0.00
    2    1   26      3.45      0.00
    3    1   26     -3.70      0.00
    4    1   26      0.01      0.00
    5    1   26      6.73      0.00
   -9    2   26     -0.27      0.00
   -8    2   26     -5.47      0.00
   -7    2   26     -3.66      0.00
   -6    2   26     -2.62      0.00
   -5    2   26     -0.67      0.00
   -4    2   26      2.53      0.00
   -3    2   26     -0.37      0.00
   -2    2   26     -0.25      0.00
   -1    2   26     -1.58      0.00
    0    2   26     -4.16      0.00
    1    2   26      1.97      0.00
    2    2   26      1.62      0.00
    3    2   26     -3.77      0.00
    4    2   26      5.59      0.00
   -7    3   26      1.23      0.00
   -6    3   26      3.40      0.00
   -5    3   26     -0.04      0.00
   -4    3   26     -1.49      0.00
   -3    3   26     -1.77      0.00
   -2    3   26      1.58      0.00
   -1    3   26     -5.11      0.00
    0    3   26     -0.72      0.00
    1    3   26      7.54      0.00
    2    3   26     -3.44      0.00
    3    3   26      1.27      0.00
   -3    4   26      4.83      0.00
   -2    4   26     -0.17      0.00
   -7    0   27     -2.71      0.00
   -5    0   27     -1.92      0.00
   -3    0   27      4.41      0.00
   -1    0   27     -2.50      0.00
    1    0   27      2.34      0.00
   -6    1   27      0.25      0.00
   -5    1   27     -0.14      0.00
   -4    1   27      1.99      0.00
   -3    1   27      0.92      0.00
   -2    1   27     -4.04      0.00
   -1    1   27     -1.77      0.00
    0    1   27      0.97      0.00
    1    1   27      0.38      0.00
    2    1   27      0.82      0.00
   -5    2   27      0.35      0.00
   -4    2   27      0.02      0.00
   -3    2   27     -1.73      0.00
   -2    2   27     -0.71      0.00
   -1    2   27      1.04      0.00
    0    2   27      1.54      0.00
    1    2   27      1.95      0.00
    0    1    0    -17.80      0.00
   23    3    0      1.25      0.00
   23    4    0      1.69      0.00
   22    5    0     -0.32      0.00
   23    5    0     -1.21      0.00
   21    6    0     -0.62      0.00
   22    6    0     -2.87      0.00
   19    7    0      1.30      0.00
   20    7    0      1.16      0.00
   21    7    0     -1.69      0.00
   18    8    0     -0.35      0.00
   19    8    0      0.82      0.00
   16    9    0     -0.94      0.00
   17    9    0      0.12      0.00
   13   10    0     -2.58      0.00
   14   10    0      1.63      0.00
   15   10    0      1.41      0.00
    9   11    0      2.65      0.00
   10   11    0      1.15      0.00
   11   11    0      0.66      0.00
   12   11    0     -4.82      0.00
   -1    0    1    -52.43      0.00
    1    0    1   -242.61      0.00
  -23    3    1     -1.19      0.00
   23    3    1     -2.23      0.00
  -23    4    1     -2.52      0.00
   22    4    1     -0.05      0.00
   23    4    1     -5.78      0.00
  -23    5    1      3.08      0.00
  -22    5    1      0.46      0.00
   22    5    1     -3.69      0.00
   23    5    1      0.11      0.00
  -22    6    1     -1.97      0.00
  -21    6    1      2.14      0.00
   21    6    1     -0.38      0.00
   22    6    1     -0.06      0.00
  -21    7    1     -0.77      0.00
  -20    7    1     -1.86      0.00
  -19    7    1      0.11      0.00
   19    7    1      2.37      0.00
   20    7    1      0.23      0.00
   21    7    1     -1.52      0.00
  -19    8    1      1.70      0.00
  -18    8    1     -0.19      0.00
   18    8    1      1.37      0.00
   19    8    1      0.61      0.00
  -17    9    1     -1.04      0.00
  -16    9    1     -0.12      0.00
   15    9    1      1.14      0.00
   16    9    1      1.45      0.00
   17    9    1      0.07      0.00
  -15   10    1     -1.43      0.00
  -14   10    1      1.47      0.00
  -13   10    1     -4.11      0.00
   13   10    1     -1.87      0.00
   14   10    1      1.42      0.00
   15   10    1     -0.56      0.00
  -12   11    1      1.29      0.00
  -11   11    1      6.20      0.00
  -10   11    1      0.17      0.00
   -9   11    1     -3.44      0.00
    9   11    1      4.55      0.00
   10   11    1     -3.51      0.00
   11   11    1      0.17      0.00
   12   11    1      0.14      0.00
    0    0    2     83.97      0.00
    2    0    2    162.77      0.00
    4    0    2   -104.15      0.00
   23    2    2      0.17      0.00
  -23    3    2      0.46      0.00
   23    3    2     -3.77      0.00
  -23    4    2      2.01      0.00
   22    4    2      2.42      0.00
   23    4    2     -0.47      0.00
  -23    5    2      0.37      0.00
  -22    5    2     -5.43      0.00
   22    5    2     -2.54      0.00
   23    5    2      1.13      0.00
  -22    6    2     -2.10      0.00
  -21    6    2      3.94      0.00
   20    6    2      2.86      0.00
   21    6    2     -2.57      0.00
   22    6    2     -0.89      0.00
  -21    7    2      1.34      0.00
  -20    7    2      0.56      0.00
  -19    7    2      2.04      0.00
   19    7    2      0.45      0.00
   20    7    2     -0.31      0.00
  -19    8    2     -2.27      0.00
  -18    8    2     -3.28      0.00
   17    8    2     -1.05      0.00
   18    8    2     -2.44      0.00
   19    8    2     -0.07      0.00
  -17    9    2      1.23      0.00
  -16    9    2     -0.17      0.00
   15    9    2      2.15      0.00
   16    9    2     -0.30      0.00
   17    9    2     -2.12      0.00
  -15   10    2     -0.38      0.00
  -14   10    2      2.27      0.00
  -13   10    2     -1.81      0.00
   12   10    2      4.48      0.00
   13   10    2     -0.12      0.00
   14   10    2      1.02      0.00
   15   10    2     -0.17      0.00
  -12   11    2      0.77      0.00
  -11   11    2     -1.33      0.00
  -10   11    2     -6.70      0.00
   -9   11    2      0.26      0.00
    8   11    2      1.85      0.00
    9   11    2      0.62      0.00
   10   11    2     -4.19      0.00
   11   11    2      2.42      0.00
   12   11    2     -0.07      0.00
   23    2    3      4.90      0.00
  -23    3    3      0.12      0.00
   23    3    3     -0.86      0.00
  -23    4    3     -5.00      0.00
   22    4    3     -1.16      0.00
   23    4    3     -2.66      0.00
  -23    5    3     -0.59      0.00
  -22    5    3      1.69      0.00
   21    5    3      2.31      0.00
   22    5    3     -3.67      0.00
  -22    6    3      2.24      0.00
  -21    6    3      2.25      0.00
   20    6    3      4.75      0.00
   21    6    3     -1.25      0.00
  -21    7    3     -2.43      0.00
  -20    7    3     -3.45      0.00
  -19    7    3      0.59      0.00
   19    7    3      2.26      0.00
   20    7    3      1.02      0.00
  -19    8    3      1.36      0.00
  -18    8    3      2.15      0.00
   17    8    3     -6.15      0.00
   18    8    3      0.08      0.00
   19    8    3      2.79      0.00
  -17    9    3     -2.67      0.00
  -16    9    3     -2.41      0.00
   15    9    3      2.69      0.00
   16    9    3     -0.36      0.00
   17    9    3     -0.49      0.00
  -15   10    3      0.26      0.00
  -14   10    3     -0.81      0.00
  -13   10    3     -3.25      0.00
   12   10    3      1.63      0.00
   13   10    3     -2.80      0.00
   14   10    3      0.30      0.00
   15   10    3      0.39      0.00
  -12   11    3     -0.14      0.00
  -11   11    3     -0.81      0.00
  -10   11    3      1.41      0.00
   -9   11    3      6.65      0.00
   -8   11    3     -0.65      0.00
    8   11    3      2.50      0.00
    9   11    3     -0.97      0.00
   10   11    3     -1.68      0.00
   11   11    3      3.12      0.00
   12   11    3     -1.20      0.00
   23    1    4      2.30      0.00
   23    2    4      1.00      0.00
  -23    3    4     -2.09      0.00
   23    3    4     -3.83      0.00
  -23    4    4     -0.61      0.00
   22    4    4      0.15      0.00
   23    4    4      0.16      0.00
  -23    5    4      2.81      0.00
  -22    5    4     -0.21      0.00
   21    5    4      4.24      0.00
   22    5    4     -2.01      0.00
  -22    6    4     -3.21      0.00
  -21    6    4     -2.43      0.00
   20    6    4      6.09      0.00
   21    6    4     -3.30      0.00
  -21    7    4      0.66      0.00
  -20    7    4      2.38      0.00
  -19    7    4      4.39      0.00
   19    7    4      6.70      0.00
   20    7    4     -1.44      0.00
  -19    8    4     -0.30      0.00
  -18    8    4     -3.16      0.00
   17    8    4     -3.08      0.00
   18    8    4      2.75      0.00
   19    8    4      0.31      0.00
  -17    9    4     -1.45      0.00
  -16    9    4      3.08      0.00
  -15    9    4      3.54      0.00
   15    9    4      1.35      0.00
   16    9    4     -1.72      0.00
   17    9    4     -1.01      0.00
  -15   10    4     -2.28      0.00
  -14   10    4     -0.94      0.00
  -13   10    4      2.09      0.00
   12   10    4      3.49      0.00
   13   10    4     -2.01      0.00
   14   10    4      0.38      0.00
  -12   11    4     -2.26      0.00
  -11   11    4     -0.04      0.00
  -10   11    4      0.77      0.00
   -9   11    4     -1.26      0.00
   -8   11    4     -6.21      0.00
    8   11    4     -1.16      0.00
    9   11    4     -0.84      0.00
   10   11    4      0.28      0.00
   11   11    4      2.02      0.00
   23    0    5     -3.86      0.00
   -4    1    5     24.39      0.00
   23    1    5     -0.37      0.00
   23    2    5      2.62      0.00
  -23    3    5     -2.68      0.00
   22    3    5      4.26      0.00
   23    3    5     -0.28      0.00
  -23    4    5     -2.55      0.00
   22    4    5     -2.54      0.00
   23    4    5     -1.11      0.00
  -23    5    5      0.36      0.00
  -22    5    5     -2.61      0.00
   21    5    5     -1.46      0.00
   22    5    5     -3.36      0.00
  -22    6    5      0.52      0.00
  -21    6    5      4.16      0.00
   20    6    5      1.38      0.00
   21    6    5     -3.27      0.00
  -21    7    5     -0.80      0.00
  -20    7    5     -2.71      0.00
  -19    7    5     -1.98      0.00
   18    7    5     -5.49      0.00
   19    7    5      1.68      0.00
   20    7    5     -2.59      0.00
  -19    8    5      0.46      0.00
  -18    8    5      0.57      0.00
   17    8    5     -3.56      0.00
   18    8    5      1.49      0.00
  -17    9    5     -0.92      0.00
  -16    9    5      0.25      0.00
  -15    9    5     -2.74      0.00
   15    9    5      2.56      0.00
   16    9    5      0.00      0.00
  -15   10    5     -2.27      0.00
  -14   10    5      2.90      0.00
  -13   10    5      0.74      0.00
  -12   10    5     -3.34      0.00
   12   10    5     -1.89      0.00
   13   10    5     -2.69      0.00
   14   10    5      1.80      0.00
  -12   11    5     -1.64      0.00
  -11   11    5      2.49      0.00
  -10   11    5      0.27      0.00
   -9   11    5     -0.30      0.00
   -8   11    5      1.21      0.00
    7   11    5     -0.59      0.00
    8   11    5      1.16      0.00
    9   11    5      0.82      0.00
   10   11    5     -0.37      0.00
   11   11    5      0.41      0.00
   -2    0    6     16.43      0.00
   23    1    6      3.34      0.00
   23    2    6      2.74      0.00
  -23    3    6     -4.98      0.00
   22    3    6      2.06      0.00
   23    3    6     -2.15      0.00
  -23    4    6      0.27      0.00
  -22    4    6      5.96      0.00
   22    4    6     -0.52      0.00
   23    4    6      1.55      0.00
  -23    5    6      1.52      0.00
  -22    5    6     -0.54      0.00
   21    5    6      1.26      0.00
   22    5    6      1.01      0.00
  -22    6    6      0.25      0.00
  -21    6    6     -1.83      0.00
   20    6    6      3.58      0.00
   21    6    6     -0.36      0.00
  -20    7    6      1.75      0.00
  -19    7    6      5.33      0.00
   18    7    6     -2.38      0.00
   19    7    6      4.70      0.00
   20    7    6     -0.27      0.00
  -19    8    6     -1.17      0.00
  -18    8    6     -2.64      0.00
  -17    8    6      0.36      0.00
   16    8    6      5.01      0.00
   17    8    6     -2.18      0.00
   18    8    6      1.95      0.00
  -17    9    6     -0.87      0.00
  -16    9    6      0.48      0.00
  -15    9    6      1.01      0.00
   14    9    6      1.95      0.00
   15    9    6      2.78      0.00
   16    9    6     -2.16      0.00
  -15   10    6      0.08      0.00
  -14   10    6      2.64      0.00
  -13   10    6     -3.27      0.00
  -12   10    6     -0.25      0.00
   11   10    6     -0.85      0.00
   12   10    6     -0.53      0.00
   13   10    6      0.14      0.00
   14   10    6      1.89      0.00
  -11   11    6      2.00      0.00
  -10   11    6     -3.10      0.00
   -9   11    6     -0.76      0.00
   -8   11    6     -0.54      0.00
   -7   11    6     -1.22      0.00
    6   11    6     -3.93      0.00
    7   11    6     -5.58      0.00
    8   11    6      1.36      0.00
    9   11    6      0.97      0.00
   10   11    6     -0.84      0.00
   23    0    7     -0.73      0.00
   23    1    7      2.32      0.00
  -23    2    7     -1.22      0.00
   22    2    7      2.70      0.00
   23    2    7      0.56      0.00
  -23    3    7      1.80      0.00
   22    3    7      4.10      0.00
   23    3    7     -1.58      0.00
  -23    4    7      0.43      0.00
  -22    4    7     -1.57      0.00
   21    4    7      3.63      0.00
   22    4    7     -1.10      0.00
  -23    5    7      0.66      0.00
  -22    5    7     -2.17      0.00
  -21    5    7      1.97      0.00
   20    5    7      1.28      0.00
   21    5    7     -0.67      0.00
  -22    6    7      0.29      0.00
  -21    6    7      0.01      0.00
  -20    6    7      2.25      0.00
   19    6    7     -1.40      0.00
   20    6    7      1.12      0.00
  -20    7    7     -0.18      0.00
  -19    7    7     -1.75      0.00
   18    7    7     -4.78      0.00
   19    7    7      2.00      0.00
  -19    8    7      0.03      0.00
  -18    8    7      1.19      0.00
  -17    8    7      5.22      0.00
   16    8    7     -1.44      0.00
   17    8    7     -4.19      0.00
   18    8    7      1.84      0.00
  -17    9    7     -1.34      0.00
  -16    9    7     -0.45      0.00
  -15    9    7      0.97      0.00
   14    9    7      0.22      0.00
   15    9    7     -0.20      0.00
   16    9    7     -1.58      0.00
  -14   10    7     -0.53      0.00
  -13   10    7     -3.06      0.00
  -12   10    7      3.06      0.00
   11   10    7     -0.09      0.00
   12   10    7      0.95      0.00
   13   10    7     -0.39      0.00
  -11   11    7      0.00      0.00
  -10   11    7     -2.55      0.00
   -9   11    7      3.99      0.00
   -8   11    7      2.05      0.00
   -7   11    7      0.05      0.00
    5   11    7      0.26      0.00
    6   11    7      1.51      0.00
    7   11    7      2.31      0.00
    8   11    7      4.46      0.00
    9   11    7     -1.04      0.00
   10   11    7     -2.12      0.00
   22    0    8     -2.68      0.00
   22    1    8     -0.06      0.00
   23    1    8      1.95      0.00
  -23    2    8      2.66      0.00
   22    2    8      3.05      0.00
   23    2    8     -0.98      0.00
  -23    3    8     -2.02      0.00
   22    3    8     -0.01      0.00
   23    3    8     -2.17      0.00
  -23    4    8     -0.30      0.00
  -22    4    8      1.42      0.00
   21    4    8      1.88      0.00
   22    4    8     -1.07      0.00
  -22    5    8     -1.61      0.00
  -21    5    8      1.74      0.00
   20    5    8      2.27      0.00
   21    5    8      1.42      0.00
  -21    6    8     -0.55      0.00
  -20    6    8      0.59      0.00
   19    6    8      0.39      0.00
   20    6    8      2.91      0.00
  -20    7    8      0.97      0.00
  -19    7    8      1.12      0.00
   17    7    8      2.49      0.00
   18    7    8     -0.36      0.00
   19    7    8      3.11      0.00
  -19    8    8     -0.63      0.00
  -18    8    8     -1.49      0.00
  -17    8    8     -1.01      0.00
   16    8    8      3.96      0.00
   17    8    8     -0.13      0.00
  -17    9    8     -0.31      0.00
  -16    9    8      1.84      0.00
  -15    9    8      2.24      0.00
   13    9    8     -2.77      0.00
   14    9    8     -1.29      0.00
   15    9    8      1.15      0.00
  -14   10    8      0.44      0.00
  -13   10    8      1.65      0.00
  -12   10    8      3.54      0.00
  -11   10    8     -2.75      0.00
   10   10    8     -5.63      0.00
   11   10    8      3.01      0.00
   12   10    8      1.23      0.00
   13   10    8     -1.43      0.00
  -11   11    8     -0.56      0.00
  -10   11    8     -0.72      0.00
   -9   11    8      2.58      0.00
   -8   11    8     -3.81      0.00
   -7   11    8     -2.70      0.00
   -6   11    8      0.58      0.00
    4   11    8     -4.00      0.00
    5   11    8      3.39      0.00
    6   11    8      0.01      0.00
    7   11    8     -3.07      0.00
    8   11    8     -1.03      0.00
    9   11    8     -2.14      0.00
  -23    0    9      1.79      0.00
   23    0    9      1.34      0.00
  -23    1    9      1.72      0.00
   22    1    9     -0.28      0.00
   23    1    9      0.28      0.00
  -23    2    9     -0.52      0.00
   22    2    9      0.63      0.00
   23    2    9     -0.97      0.00
  -23    3    9     -2.21      0.00
   21    3    9      1.90      0.00
   22    3    9      2.36      0.00
  -23    4    9      1.18      0.00
  -22    4    9      0.78      0.00
   20    4    9     -0.88      0.00
   21    4    9      5.68      0.00
   22    4    9     -1.04      0.00
  -22    5    9     -2.23      0.00
  -21    5    9      2.68      0.00
   20    5    9      5.50      0.00
   21    5    9     -1.00      0.00
  -21    6    9      2.06      0.00
  -20    6    9      0.74      0.00
   18    6    9     -2.18      0.00
   19    6    9      1.76      0.00
   20    6    9      0.04      0.00
  -20    7    9     -2.97      0.00
  -19    7    9     -1.80      0.00
  -18    7    9     -0.89      0.00
   17    7    9     -1.31      0.00
   18    7    9     -3.14      0.00
  -18    8    9      1.42      0.00
  -17    8    9      2.69      0.00
   15    8    9      2.34      0.00
   16    8    9      0.37      0.00
   17    8    9     -3.52      0.00
  -16    9    9     -0.65      0.00
  -15    9    9     -1.27      0.00
  -14    9    9     -3.83      0.00
   13    9    9     -4.09      0.00
   14    9    9      0.20      0.00
   15    9    9      1.86      0.00
  -14   10    9      1.53      0.00
  -13   10    9     -0.17      0.00
  -12   10    9     -2.63      0.00
  -11   10    9     -4.13      0.00
    9   10    9      3.75      0.00
   10   10    9      0.25      0.00
   11   10    9      2.83      0.00
   12   10    9     -1.14      0.00
  -10   11    9      0.84      0.00
   -9   11    9      1.48      0.00
   -8   11    9     -2.50      0.00
   -7   11    9      2.84      0.00
   -6   11    9      3.29      0.00
   -5   11    9     -1.63      0.00
   -4   11    9     -2.35      0.00
    3   11    9     -4.18      0.00
    4   11    9     -0.09      0.00
    5   11    9      4.42      0.00
    6   11    9     -0.98      0.00
    7   11    9     -0.67      0.00
    8   11    9      2.50      0.00
    9   11    9      0.07      0.00
   22    0   10     -1.17      0.00
  -23    1   10      1.56      0.00
   21    1   10      0.09      0.00
   22    1   10      0.41      0.00
  -23    2   10     -0.54      0.00
   21    2   10      1.27      0.00
   22    2   10      2.96      0.00
  -23    3   10      0.36      0.00
  -22    3   10      2.23      0.00
   21    3   10      2.45      0.00
   22    3   10     -0.99      0.00
  -23    4   10      0.91      0.00
  -22    4   10     -0.55      0.00
   20    4   10     -0.28      0.00
   21    4   10      0.91      0.00
  -22    5   10     -0.91      0.00
  -21    5   10      2.67      0.00
   19    5   10     -2.59      0.00
   20    5   10      2.32      0.00
  -21    6   10     -2.41      0.00
  -20    6   10     -2.84      0.00
   18    6   10     -2.89      0.00
   19    6   10      0.98      0.00
  -20    7   10      1.88      0.00
  -19    7   10      4.21      0.00
  -18    7   10      1.58      0.00
   17    7   10     -1.18      0.00
   18    7   10     -0.21      0.00
  -18    8   10     -1.96      0.00
  -17    8   10     -1.41      0.00
  -16    8   10     -2.95      0.00
   15    8   10      4.42      0.00
   16    8   10      0.10      0.00
  -16    9   10      0.52      0.00
  -15    9   10      2.05      0.00
  -14    9   10      0.38      0.00
   12    9   10      0.27      0.00
   13    9   10     -4.47      0.00
   14    9   10      1.93      0.00
  -13   10   10     -1.78      0.00
  -12   10   10     -0.46      0.00
  -11   10   10      3.79      0.00
  -10   10   10      5.02      0.00
    9   10   10      0.64      0.00
   10   10   10     -3.65      0.00
   11   10   10      0.51      0.00
   12   10   10     -0.59      0.00
  -10   11   10     -1.86      0.00
   -9   11   10     -0.57      0.00
   -8   11   10     -1.53      0.00
   -7   11   10      1.12      0.00
   -6   11   10     -1.19      0.00
   -5   11   10     -2.39      0.00
   -4   11   10      1.36      0.00
   -3   11   10      2.18      0.00
   -2   11   10     -4.02      0.00
   -1   11   10     -0.58      0.00
    0   11   10      1.64      0.00
    1   11   10     -3.85      0.00
    2   11   10     -2.24      0.00
    3   11   10      1.51      0.00
    4   11   10      2.30      0.00
    5   11   10      0.35      0.00
    6   11   10     -3.39      0.00
    7   11   10     -0.31      0.00
    8   11   10      1.38      0.00
  -23    0   11      5.46      0.00
   21    0   11      8.68      0.00
  -23    1   11     -1.30      0.00
   21    1   11      1.33      0.00
   22    1   11     -2.35      0.00
  -23    2   11     -1.99      0.00
   21    2   11     -5.07      0.00
   22    2   11     -0.27      0.00
  -23    3   11      0.10      0.00
  -22    3   11      1.80      0.00
   20    3   11     -2.61      0.00
   21    3   11      1.04      0.00
  -23    4   11     -0.12      0.00
  -22    4   11     -2.17      0.00
  -21    4   11     -1.03      0.00
   20    4   11      0.39      0.00
   21    4   11      1.29      0.00
  -22    5   11     -0.39      0.00
  -21    5   11      2.79      0.00
  -20    5   11     -2.60      0.00
   19    5   11     -2.05      0.00
   20    5   11      1.39      0.00
  -21    6   11     -1.48      0.00
  -20    6   11      1.87      0.00
  -19    6   11      3.69      0.00
   17    6   11      6.66      0.00
   18    6   11     -1.69      0.00
   19    6   11     -0.58      0.00
  -19    7   11     -2.55      0.00
  -18    7   11     -5.46      0.00
   16    7   11      2.88      0.00
   17    7   11     -2.08      0.00
   18    7   11     -1.58      0.00
  -18    8   11      1.75      0.00
  -17    8   11      3.62      0.00
  -16    8   11      1.24      0.00
   14    8   11     -0.76      0.00
   15    8   11      2.08      0.00
   16    8   11     -2.54      0.00
  -16    9   11     -0.40      0.00
  -15    9   11     -0.31      0.00
  -14    9   11     -3.54      0.00
  -13    9   11      0.49      0.00
   11    9   11      1.15      0.00
   12    9   11      4.42      0.00
   13    9   11     -1.09      0.00
   14    9   11      1.45      0.00
  -13   10   11      0.53      0.00
  -12   10   11      1.03      0.00
  -11   10   11      0.57      0.00
  -10   10   11     -3.98      0.00
   -9   10   11     -6.40      0.00
    8   10   11      2.41      0.00
    9   10   11     -0.45      0.00
   10   10   11     -1.11      0.00
   11   10   11      2.57      0.00
   -9   11   11      2.12      0.00
   -8   11   11      1.16      0.00
   -7   11   11      0.56      0.00
   -6   11   11     -0.40      0.00
   -5   11   11      0.75      0.00
   -4   11   11      1.73      0.00
   -3   11   11     -1.15      0.00
   -2   11   11     -1.82      0.00
   -1   11   11      4.28      0.00
    0   11   11      2.36      0.00
    1   11   11     -2.44      0.00
    2   11   11      1.84      0.00
    3   11   11      1.70      0.00
    4   11   11     -1.87      0.00
    5   11   11     -0.73      0.00
    6   11   11     -0.10      0.00
    7   11   11      1.27      0.00
   22    0   12     -5.02      0.00
  -23    1   12     -1.53      0.00
   21    1   12     -5.03      0.00
   22    1   12     -1.19      0.00
  -23    2   12     -0.21      0.00
  -22    2   12      2.11      0.00
   20    2   12      2.45      0.00
   21    2   12     -1.67      0.00
  -23    3   12     -0.42      0.00
  -22    3   12      0.88      0.00
   20    3   12     -2.59      0.00
   21    3   12      0.59      0.00
  -22    4   12      0.07      0.00
  -21    4   12      2.37      0.00
   19    4   12     -0.29      0.00
   20    4   12     -2.38      0.00
  -21    5   12      0.70      0.00
  -20    5   12     -4.84      0.00
   18    5   12     -0.14      0.00
   19    5   12     -4.78      0.00
  -20    6   12      1.30      0.00
  -19    6   12      0.03      0.00
   17    6   12     -2.91      0.00
   18    6   12     -4.91      0.00
  -19    7   12     -0.54      0.00
  -18    7   12      2.30      0.00
  -17    7   12      5.72      0.00
   15    7   12      1.27      0.00
   16    7   12     -1.11      0.00
   17    7   12     -1.67      0.00
  -17    8   12     -1.88      0.00
  -16    8   12     -5.00      0.00
  -15    8   12     -1.60      0.00
   13    8   12      0.84      0.00
   14    8   12     -1.38      0.00
   15    8   12      1.04      0.00
  -15    9   12      1.84      0.00
  -14    9   12      0.35      0.00
  -13    9   12      3.58      0.00
   11    9   12     -2.14      0.00
   12    9   12      0.52      0.00
   13    9   12     -2.38      0.00
  -12   10   12     -1.45      0.00
  -11   10   12     -0.18      0.00
  -10   10   12      0.51      0.00
   -9   10   12      3.79      0.00
   -8   10   12      6.29      0.00
    6   10   12      2.41      0.00
    7   10   12     -0.28      0.00
    8   10   12      0.28      0.00
    9   10   12     -1.31      0.00
   10   10   12      0.11      0.00
   -8   11   12     -1.78      0.00
   -7   11   12     -1.35      0.00
   -6   11   12      0.14      0.00
   -5   11   12     -0.20      0.00
   -4   11   12     -0.50      0.00
   -3   11   12     -0.95      0.00
   -2   11   12      0.46      0.00
   -1   11   12      1.13      0.00
    0   11   12     -3.42      0.00
    1   11   12     -3.11      0.00
    2   11   12      2.80      0.00
    3   11   12      0.58      0.00
    4   11   12     -1.57      0.00
    5   11   12      1.58      0.00
    6   11   12      0.56      0.00
  -23    0   13      1.05      0.00
   21    0   13      1.77      0.00
  -23    1   13     -0.25      0.00
  -22    1   13     -0.66      0.00
   20    1   13      5.59      0.00
   21    1   13     -0.86      0.00
  -23    2   13     -0.50      0.00
  -22    2   13      0.51      0.00
   20    2   13     -2.20      0.00
   21    2   13     -3.32      0.00
  -23    3   13     -0.11      0.00
  -22    3   13      1.51      0.00
  -21    3   13     -1.54      0.00
   19    3   13      0.72      0.00
   20    3   13     -4.55      0.00
  -22    4   13     -0.36      0.00
  -21    4   13     -1.26      0.00
   19    4   13     -3.10      0.00
   20    4   13     -0.18      0.00
  -21    5   13      0.40      0.00
  -20    5   13     -0.10      0.00
   18    5   13     -1.40      0.00
   19    5   13     -0.38      0.00
  -20    6   13      2.12      0.00
  -19    6   13     -1.12      0.00
  -18    6   13     -3.60      0.00
   16    6   13      0.70      0.00
   17    6   13     -0.12      0.00
   18    6   13      1.10      0.00
  -19    7   13     -2.01      0.00
  -18    7   13      0.58      0.00
  -17    7   13     -0.91      0.00
   15    7   13     -0.84      0.00
   16    7   13     -0.07      0.00
  -17    8   13     -0.90      0.00
  -16    8   13      1.55      0.00
  -15    8   13      5.57      0.00
   13    8   13      1.46      0.00
   14    8   13     -1.53      0.00
   15    8   13      1.01      0.00
  -15    9   13      0.32      0.00
  -14    9   13     -2.88      0.00
  -13    9   13     -0.82      0.00
  -12    9   13     -2.03      0.00
   10    9   13      0.43      0.00
   11    9   13      1.27      0.00
   12    9   13      1.18      0.00
  -11   10   13      1.97      0.00
  -10   10   13     -1.13      0.00
   -9   10   13     -2.01      0.00
   -8   10   13     -2.63      0.00
   -7   10   13     -4.88      0.00
    5   10   13      1.04      0.00
    6   10   13      2.81      0.00
    7   10   13     -2.54      0.00
    8   10   13      0.39      0.00
    9   10   13      0.14      0.00
   -6   11   13      1.68      0.00
   -5   11   13     -0.46      0.00
   -4   11   13     -0.23      0.00
   -3   11   13      0.54      0.00
   -2   11   13      0.87      0.00
   -1   11   13     -0.06      0.00
    0   11   13     -0.53      0.00
    1   11   13      1.83      0.00
    2   11   13      2.44      0.00
    3   11   13     -2.37      0.00
    4   11   13     -2.29      0.00
  -22    0   14     -1.16      0.00
   20    0   14      1.09      0.00
  -23    1   14      0.10      0.00
  -22    1   14      0.30      0.00
   20    1   14     -0.65      0.00
   21    1   14     -2.82      0.00
  -23    2   14      0.15      0.00
  -22    2   14      1.20      0.00
   19    2   14      1.53      0.00
   20    2   14     -0.22      0.00
  -22    3   14      0.27      0.00
  -21    3   14     -3.93      0.00
   19    3   14      0.97      0.00
   20    3   14     -0.83      0.00
  -22    4   14     -2.48      0.00
  -21    4   14      0.92      0.00
  -20    4   14      3.75      0.00
   18    4   14      3.15      0.00
   19    4   14     -0.11      0.00
  -21    5   14      1.83      0.00
  -20    5   14     -1.61      0.00
  -19    5   14     -0.75      0.00
   17    5   14      2.67      0.00
   18    5   14      1.16      0.00
  -20    6   14      0.05      0.00
  -19    6   14     -1.70      0.00
  -18    6   14      0.07      0.00
   16    6   14     -0.36      0.00
   17    6   14      0.40      0.00
  -18    7   14      2.86      0.00
  -17    7   14      0.28      0.00
  -16    7   14     -1.13      0.00
   14    7   14     -4.04      0.00
   15    7   14     -1.02      0.00
   16    7   14      1.63      0.00
  -16    8   14      0.57      0.00
  -15    8   14     -0.80      0.00
  -14    8   14     -5.11      0.00
   12    8   14      4.63      0.00
   13    8   14     -0.15      0.00
   14    8   14     -1.99      0.00
  -14    9   14     -0.50      0.00
  -13    9   14      3.63      0.00
  -12    9   14      1.33      0.00
  -11    9   14     -1.91      0.00
    9    9   14      0.04      0.00
   10    9   14     -3.08      0.00
   11    9   14     -0.26      0.00
   12    9   14      0.15      0.00
  -11   10   14      1.34      0.00
  -10   10   14     -1.01      0.00
   -9   10   14      1.29      0.00
   -8   10   14      2.52      0.00
   -7   10   14      1.37      0.00
   -6   10   14      2.31      0.00
   -5   10   14     -0.62      0.00
    2   10   14      0.39      0.00
    3   10   14     -5.03      0.00
    4   10   14     -6.09      0.00
    5   10   14      3.38      0.00
    6   10   14      1.49      0.00
    7   10   14     -3.25      0.00
    8   10   14      1.94      0.00
   -5   11   14     -1.07      0.00
   -4   11   14      0.14      0.00
   -3   11   14      0.52      0.00
   -2   11   14     -0.13      0.00
   -1   11   14     -1.09      0.00
    0   11   14     -0.13      0.00
    1   11   14      0.43      0.00
    2   11   14     -0.19      0.00
  -23    0   15      3.57      0.00
  -21    0   15     -3.42      0.00
   19    0   15     -3.09      0.00
  -23    1   15     -0.56      0.00
  -22    1   15     -3.82      0.00
  -21    1   15      0.42      0.00
   19    1   15      2.24      0.00
   20    1   15      3.04      0.00
  -22    2   15      1.17      0.00
  -21    2   15      0.86      0.00
   19    2   15      2.97      0.00
   20    2   15     -1.17      0.00
  -22    3   15     -0.72      0.00
  -21    3   15     -2.45      0.00
   18    3   15      5.83      0.00
   19    3   15     -0.12      0.00
  -21    4   15      2.56      0.00
  -20    4   15      0.70      0.00
   17    4   15      3.01      0.00
   18    4   15     -0.07      0.00
   19    4   15     -2.65      0.00
  -20    5   15     -2.68      0.00
  -19    5   15      1.88      0.00
   16    5   15     -4.09      0.00
   17    5   15      2.42      0.00
   18    5   15     -0.90      0.00
  -19    6   15      0.83      0.00
  -18    6   15      0.44      0.00
  -17    6   15     -0.10      0.00
   15    6   15     -7.22      0.00
   16    6   15      5.60      0.00
   17    6   15      1.69      0.00
  -18    7   15      0.22      0.00
  -17    7   15     -2.18      0.00
  -16    7   15     -1.33      0.00
   13    7   15     -0.55      0.00
   14    7   15     -7.03      0.00
   15    7   15      2.79      0.00
  -16    8   15      1.01      0.00
  -15    8   15      0.58      0.00
  -14    8   15      1.10      0.00
  -13    8   15      2.72      0.00
   11    8   15     -0.90      0.00
   12    8   15      2.21      0.00
   13    8   15     -1.92      0.00
  -13    9   15      0.32      0.00
  -12    9   15     -2.08      0.00
  -11    9   15     -1.51      0.00
  -10    9   15      4.94      0.00
    7    9   15     -2.43      0.00
    8    9   15      2.66      0.00
    9    9   15      4.85      0.00
   10    9   15     -1.37      0.00
   11    9   15      1.54      0.00
  -10   10   15     -1.32      0.00
   -9   10   15     -0.30      0.00
   -8   10   15     -0.74      0.00
   -7   10   15     -1.27      0.00
   -6   10   15     -0.43      0.00
   -5   10   15     -0.75      0.00
   -4   10   15      0.51      0.00
   -3   10   15      6.03      0.00
   -2   10   15     -2.10      0.00
   -1   10   15     -3.85      0.00
    0   10   15      3.31      0.00
    1   10   15      3.79      0.00
    2   10   15      0.83      0.00
    3   10   15      1.75      0.00
    4   10   15      2.00      0.00
    5   10   15      2.99      0.00
    6   10   15     -2.01      0.00
    7   10   15     -2.15      0.00
  -22    0   16     -3.66      0.00
   18    0   16      6.44      0.00
   20    0   16      0.76      0.00
  -22    1   16     -0.09      0.00
  -21    1   16      6.61      0.00
   18    1   16     -0.29      0.00
   19    1   16     -1.50      0.00
   20    1   16     -1.15      0.00
  -22    2   16      1.09      0.00
  -21    2   16     -1.00      0.00
   18    2   16     -0.60      0.00
   19    2   16      0.32      0.00
  -21    3   16     -0.95      0.00
  -20    3   16      3.75      0.00
   17    3   16     -4.24      0.00
   18    3   16      1.16      0.00
   19    3   16     -2.24      0.00
  -21    4   16      2.90      0.00
  -20    4   16     -0.52      0.00
  -19    4   16     -2.51      0.00
   17    4   16      3.85      0.00
   18    4   16      0.17      0.00
  -20    5   16     -4.99      0.00
  -19    5   16      1.63      0.00
  -18    5   16     -1.66      0.00
   16    5   16      2.81      0.00
   17    5   16      3.97      0.00
  -19    6   16      2.51      0.00
  -18    6   16     -0.87      0.00
  -17    6   16      0.66      0.00
   14    6   16     -2.04      0.00
   15    6   16     -0.55      0.00
   16    6   16      4.94      0.00
  -17    7   16     -0.20      0.00
  -16    7   16      1.41      0.00
  -15    7   16      2.64      0.00
   12    7   16      1.64      0.00
   13    7   16      0.60      0.00
   14    7   16     -0.62      0.00
  -15    8   16     -0.83      0.00
  -14    8   16     -1.16      0.00
  -13    8   16     -0.95      0.00
  -12    8   16     -0.27      0.00
   10    8   16      0.67      0.00
   11    8   16     -0.05      0.00
   12    8   16      0.59      0.00
  -12    9   16     -0.31      0.00
  -11    9   16      0.16      0.00
  -10    9   16      1.61      0.00
   -9    9   16     -6.01      0.00
   -8    9   16      0.88      0.00
    6    9   16     -4.11      0.00
    7    9   16     -6.39      0.00
    8    9   16      0.97      0.00
    9    9   16      0.09      0.00
   10    9   16     -3.86      0.00
   -8   10   16      0.92      0.00
   -7   10   16     -0.16      0.00
   -6   10   16     -0.11      0.00
   -5   10   16     -0.27      0.00
   -4   10   16     -0.21      0.00
   -3   10   16      0.16      0.00
   -2   10   16     -4.74      0.00
   -1   10   16      0.09      0.00
    0   10   16      3.41      0.00
    1   10   16     -3.28      0.00
    2   10   16     -4.97      0.00
    3   10   16     -0.36      0.00
    4   10   16     -1.34      0.00
    5   10   16     -0.15      0.00
    6   10   16     -0.55      0.00
  -21    0   17      2.56      0.00
   19    0   17     -5.72      0.00
  -22    1   17      0.14      0.00
  -21    1   17      0.25      0.00
  -20    1   17     -8.19      0.00
   18    1   17     -5.70      0.00
   19    1   17      0.54      0.00
  -21    2   17     -0.52      0.00
  -20    2   17      0.93      0.00
   17    2   17     -4.18      0.00
   18    2   17     -1.18      0.00
   19    2   17      1.73      0.00
  -21    3   17      0.25      0.00
  -20    3   17      2.35      0.00
  -19    3   17     -4.98      0.00
   17    3   17     -1.50      0.00
   18    3   17      3.09      0.00
  -20    4   17     -3.59      0.00
  -19    4   17     -2.43      0.00
   16    4   17     -2.34      0.00
   17    4   17      2.36      0.00
  -19    5   17      6.99      0.00
  -18    5   17      0.19      0.00
  -17    5   17     -0.15      0.00
   15    5   17     -0.54      0.00
   16    5   17      0.44      0.00
  -18    6   17     -4.36      0.00
  -17    6   17      1.02      0.00
  -16    6   17     -1.09      0.00
   13    6   17      1.32      0.00
   14    6   17      2.35      0.00
   15    6   17     -1.01      0.00
  -16    7   17     -0.53      0.00
  -15    7   17      0.04      0.00
  -14    7   17     -2.87      0.00
   11    7   17     -4.94      0.00
   12    7   17     -1.69      0.00
   13    7   17      1.20      0.00
   14    7   17     -1.53      0.00
  -14    8   17     -0.18      0.00
  -13    8   17      0.97      0.00
  -12    8   17      1.33      0.00
  -11    8   17     -1.44      0.00
    8    8   17     -1.38      0.00
    9    8   17      2.07      0.00
   10    8   17     -3.15      0.00
   11    8   17     -0.79      0.00
  -11    9   17      0.14      0.00
  -10    9   17      1.56      0.00
   -9    9   17     -1.75      0.00
   -8    9   17      5.06      0.00
   -7    9   17     -0.95      0.00
   -6    9   17     -2.56      0.00
    3    9   17      5.52      0.00
    4    9   17      3.38      0.00
    5    9   17     -0.06      0.00
    6    9   17      4.33      0.00
    7    9   17      2.23      0.00
    8    9   17      2.95      0.00
    9    9   17      0.50      0.00
   -7   10   17     -0.82      0.00
   -6   10   17      0.74      0.00
   -5   10   17      1.05      0.00
   -4   10   17      0.13      0.00
   -3   10   17      0.62      0.00
   -2   10   17     -0.08      0.00
   -1   10   17      2.90      0.00
    0   10   17      1.37      0.00
    1   10   17     -1.32      0.00
    2   10   17      2.34      0.00
    3   10   17      4.08      0.00
    4   10   17     -0.86      0.00
  -20    0   18      0.33      0.00
   18    0   18     -0.33      0.00
  -21    1   18      1.32      0.00
  -20    1   18     -0.13      0.00
   17    1   18      2.93      0.00
   18    1   18     -2.23      0.00
  -21    2   18     -0.07      0.00
  -20    2   18     -1.62      0.00
  -19    2   18     -0.35      0.00
   16    2   18      8.06      0.00
   17    2   18     -1.15      0.00
   18    2   18      0.77      0.00
  -20    3   18      0.43      0.00
  -19    3   18     -2.19      0.00
   16    3   18      0.93      0.00
   17    3   18     -4.41      0.00
  -20    4   18      0.49      0.00
  -19    4   18      2.75      0.00
  -18    4   18      5.20      0.00
   15    4   18      3.03      0.00
   16    4   18     -5.70      0.00
   17    4   18      1.11      0.00
  -19    5   18      0.81      0.00
  -18    5   18     -7.56      0.00
  -17    5   18     -3.35      0.00
   14    5   18      2.30      0.00
   15    5   18     -2.01      0.00
   16    5   18     -0.29      0.00
  -17    6   18      6.00      0.00
  -16    6   18      0.19      0.00
  -15    6   18      0.10      0.00
   12    6   18     -6.35      0.00
   13    6   18      2.14      0.00
   14    6   18      1.85      0.00
  -16    7   18     -1.10      0.00
  -15    7   18      1.02      0.00
  -14    7   18     -0.39      0.00
  -13    7   18      2.28      0.00
   10    7   18      3.35      0.00
   11    7   18     -2.94      0.00
   12    7   18      3.05      0.00
   13    7   18      3.35      0.00
  -13    8   18      0.44      0.00
  -12    8   18      0.32      0.00
  -11    8   18     -1.26      0.00
  -10    8   18      1.30      0.00
    7    8   18      1.44      0.00
    8    8   18     -0.91      0.00
    9    8   18      2.07      0.00
   10    8   18     -1.71      0.00
  -10    9   18      0.06      0.00
   -9    9   18     -1.76      0.00
   -8    9   18      1.61      0.00
   -7    9   18     -3.44      0.00
   -6    9   18      0.11      0.00
   -5    9   18      2.91      0.00
   -4    9   18     -0.12      0.00
   -3    9   18     -0.89      0.00
   -2    9   18     -0.22      0.00
   -1    9   18     -0.06      0.00
    0    9   18      0.72      0.00
    1    9   18     -0.55      0.00
    2    9   18     -0.74      0.00
    3    9   18      2.90      0.00
    4    9   18     -4.63      0.00
    5    9   18     -4.60      0.00
    6    9   18      0.82      0.00
    7    9   18     -2.36      0.00
   -4   10   18     -1.29      0.00
   -3   10   18     -0.15      0.00
   -2   10   18     -0.74      0.00
   -1   10   18     -0.14      0.00
    0   10   18     -1.74      0.00
    1   10   18     -2.19      0.00
  -21    0   19     -0.98      0.00
  -19    0   19     -1.60      0.00
   17    0   19      3.25      0.00
  -21    1   19      0.21      0.00
  -20    1   19     -1.31      0.00
  -19    1   19     -0.77      0.00
   16    1   19      1.39      0.00
   17    1   19      2.33      0.00
  -20    2   19     -0.62      0.00
  -19    2   19      3.33      0.00
   16    2   19      2.71      0.00
   17    2   19     -3.83      0.00
  -20    3   19      0.77      0.00
  -19    3   19     -0.10      0.00
  -18    3   19      0.43      0.00
   15    3   19      1.01      0.00
   16    3   19     -0.84      0.00
   17    3   19     -2.11      0.00
  -19    4   19     -1.87      0.00
  -18    4   19     -2.01      0.00
  -17    4   19     -5.52      0.00
   14    4   19     -0.98      0.00
   15    4   19      4.02      0.00
   16    4   19     -2.46      0.00
  -18    5   19      0.34      0.00
  -17    5   19      7.00      0.00
  -16    5   19      5.33      0.00
   13    5   19     -1.15      0.00
   14    5   19      5.64      0.00
   15    5   19     -1.12      0.00
  -16    6   19     -6.44      0.00
  -15    6   19     -1.27      0.00
  -14    6   19      1.69      0.00
   11    6   19      0.67      0.00
   12    6   19     -1.78      0.00
   13    6   19      3.22      0.00
  -15    7   19      1.45      0.00
  -14    7   19     -1.44      0.00
  -13    7   19      0.54      0.00
  -12    7   19     -0.85      0.00
    9    7   19      2.16      0.00
   10    7   19      2.68      0.00
   11    7   19     -3.22      0.00
   12    7   19      0.38      0.00
  -12    8   19     -0.82      0.00
  -11    8   19     -1.32      0.00
  -10    8   19      1.58      0.00
   -9    8   19     -0.50      0.00
   -8    8   19      1.15      0.00
    5    8   19     -5.78      0.00
    6    8   19      3.30      0.00
    7    8   19     -3.22      0.00
    8    8   19     -2.21      0.00
    9    8   19      2.39      0.00
   -9    9   19     -0.34      0.00
   -8    9   19      1.48      0.00
   -7    9   19     -0.89      0.00
   -6    9   19      2.21      0.00
   -5    9   19      0.45      0.00
   -4    9   19     -2.91      0.00
   -3    9   19      0.34      0.00
   -2    9   19      1.40      0.00
   -1    9   19     -0.05      0.00
    0    9   19      0.32      0.00
    1    9   19      0.31      0.00
    2    9   19     -0.78      0.00
    3    9   19      1.90      0.00
    4    9   19      0.07      0.00
    5    9   19      2.72      0.00
    6    9   19      3.06      0.00
  -20    0   20      0.87      0.00
  -18    0   20      2.67      0.00
   16    0   20     -2.50      0.00
  -20    1   20      0.43      0.00
  -19    1   20      1.27      0.00
  -18    1   20      0.80      0.00
   15    1   20     -3.06      0.00
   16    1   20      0.07      0.00
   17    1   20      0.13      0.00
  -20    2   20     -1.55      0.00
  -19    2   20      0.26      0.00
  -18    2   20     -4.36      0.00
   15    2   20     -0.33      0.00
   16    2   20      4.14      0.00
  -19    3   20     -0.25      0.00
  -18    3   20      0.06      0.00
  -17    3   20      2.24      0.00
   14    3   20     -0.25      0.00
   15    3   20      4.41      0.00
   16    3   20      0.98      0.00
  -18    4   20      2.88      0.00
  -17    4   20      0.96      0.00
  -16    4   20      3.30      0.00
   13    4   20     -1.32      0.00
   14    4   20      1.75      0.00
   15    4   20      1.50      0.00
  -17    5   20     -1.84      0.00
  -16    5   20     -5.01      0.00
  -15    5   20     -5.99      0.00
   12    5   20     -2.74      0.00
   13    5   20     -0.39      0.00
   14    5   20      1.23      0.00
  -16    6   20     -1.12      0.00
  -15    6   20      5.66      0.00
  -14    6   20      3.00      0.00
  -13    6   20     -3.63      0.00
   10    6   20      1.97      0.00
   11    6   20     -2.32      0.00
   12    6   20     -0.86      0.00
  -14    7   20     -1.88      0.00
  -13    7   20      0.90      0.00
  -12    7   20      0.60      0.00
  -11    7   20     -0.27      0.00
  -10    7   20      0.17      0.00
    7    7   20      3.12      0.00
    8    7   20     -2.08      0.00
    9    7   20      3.30      0.00
   10    7   20      0.32      0.00
  -11    8   20      0.20      0.00
  -10    8   20      1.88      0.00
   -9    8   20     -1.47      0.00
   -8    8   20     -0.24      0.00
   -7    8   20      0.20      0.00
   -6    8   20     -1.62      0.00
   -5    8   20      2.20      0.00
    2    8   20      2.11      0.00
    3    8   20      1.95      0.00
    4    8   20      2.30      0.00
    5    8   20     -1.65      0.00
    6    8   20      4.35      0.00
    7    8   20     -1.75      0.00
    8    8   20      1.14      0.00
   -7    9   20     -1.57      0.00
   -6    9   20      0.11      0.00
   -5    9   20     -0.54      0.00
   -4    9   20     -0.71      0.00
   -3    9   20      1.53      0.00
   -2    9   20      0.10      0.00
   -1    9   20     -1.13      0.00
    0    9   20     -0.61      0.00
    1    9   20     -0.24      0.00
    2    9   20     -0.68      0.00
    3    9   20      0.41      0.00
  -19    0   21     -0.96      0.00
   15    0   21      3.12      0.00
  -19    1   21     -1.02      0.00
  -18    1   21     -0.78      0.00
  -17    1   21     -0.14      0.00
   14    1   21      4.56      0.00
   15    1   21      1.91      0.00
   16    1   21      1.24      0.00
  -19    2   21      2.16      0.00
  -18    2   21      0.40      0.00
  -17    2   21      4.03      0.00
   14    2   21      3.58      0.00
   15    2   21     -1.62      0.00
  -18    3   21     -0.65      0.00
  -17    3   21      0.09      0.00
  -16    3   21     -4.07      0.00
   13    3   21      1.28      0.00
   14    3   21     -3.50      0.00
   15    3   21     -0.94      0.00
  -17    4   21     -3.04      0.00
  -16    4   21     -0.77      0.00
  -15    4   21      0.13      0.00
   12    4   21     -0.27      0.00
   13    4   21     -2.05      0.00
   14    4   21      0.18      0.00
  -16    5   21      3.47      0.00
  -15    5   21      3.07      0.00
  -14    5   21      4.40      0.00
   10    5   21     -1.84      0.00
   11    5   21      0.59      0.00
   12    5   21      0.11      0.00
   13    5   21      0.97      0.00
  -15    6   21      0.30      0.00
  -14    6   21     -3.92      0.00
  -13    6   21     -3.57      0.00
  -12    6   21      4.57      0.00
    8    6   21      0.38      0.00
    9    6   21     -2.70      0.00
   10    6   21      0.97      0.00
   11    6   21     -0.44      0.00
  -13    7   21      1.50      0.00
  -12    7   21     -0.09      0.00
  -11    7   21     -1.70      0.00
  -10    7   21      0.43      0.00
   -9    7   21      0.37      0.00
   -8    7   21     -4.21      0.00
    5    7   21     -2.19      0.00
    6    7   21      0.98      0.00
    7    7   21      2.79      0.00
    8    7   21     -2.78      0.00
    9    7   21      1.06      0.00
   -9    8   21     -1.97      0.00
   -8    8   21      0.66      0.00
   -7    8   21      1.13      0.00
   -6    8   21     -1.13      0.00
   -5    8   21      1.64      0.00
   -4    8   21     -2.07      0.00
   -3    8   21     -0.48      0.00
   -2    8   21     -1.94      0.00
   -1    8   21     -5.41      0.00
    0    8   21     -1.72      0.00
    1    8   21     -0.24      0.00
    2    8   21      1.92      0.00
    3    8   21     -2.11      0.00
    4    8   21     -1.33      0.00
    5    8   21     -2.02      0.00
    6    8   21      2.14      0.00
  -18    0   22      1.19      0.00
   14    0   22      1.40      0.00
  -18    1   22      1.04      0.00
  -17    1   22      0.41      0.00
  -16    1   22     -0.66      0.00
   13    1   22      1.58      0.00
   14    1   22      0.82      0.00
   15    1   22     -3.04      0.00
  -18    2   22     -2.30      0.00
  -17    2   22     -0.84      0.00
  -16    2   22     -3.11      0.00
   12    2   22     -1.07      0.00
   13    2   22     -0.59      0.00
   14    2   22     -1.57      0.00
  -17    3   22      1.27      0.00
  -16    3   22     -0.08      0.00
  -15    3   22      4.82      0.00
   12    3   22      0.14      0.00
   13    3   22      0.80      0.00
   14    3   22     -0.21      0.00
  -16    4   22      2.28      0.00
  -15    4   22      0.62      0.00
  -14    4   22     -3.00      0.00
   11    4   22      1.29      0.00
   12    4   22      1.51      0.00
   13    4   22     -0.51      0.00
  -15    5   22     -3.89      0.00
  -14    5   22     -1.24      0.00
  -13    5   22     -1.87      0.00
  -12    5   22      4.64      0.00
    9    5   22     -5.12      0.00
   10    5   22      1.23      0.00
   11    5   22      2.16      0.00
   12    5   22     -1.28      0.00
  -14    6   22      0.43      0.00
  -13    6   22      1.90      0.00
  -12    6   22      3.08      0.00
  -11    6   22     -4.30      0.00
  -10    6   22     -0.72      0.00
    6    6   22     -3.97      0.00
    7    6   22      1.16      0.00
    8    6   22     -2.44      0.00
    9    6   22     -0.70      0.00
   10    6   22      2.85      0.00
  -11    7   22     -0.70      0.00
  -10    7   22      2.14      0.00
   -9    7   22      0.40      0.00
   -8    7   22     -0.65      0.00
   -7    7   22      4.25      0.00
   -6    7   22      1.09      0.00
   -5    7   22      1.08      0.00
    1    7   22      7.20      0.00
    2    7   22     -0.51      0.00
    3    7   22     -2.81      0.00
    4    7   22     -0.34      0.00
    5    7   22      0.19      0.00
    6    7   22      0.64      0.00
    7    7   22      0.39      0.00
    8    7   22     -2.32      0.00
   -7    8   22      0.15      0.00
   -6    8   22     -1.46      0.00
   -5    8   22      1.76      0.00
   -4    8   22     -0.72      0.00
   -3    8   22      1.89      0.00
   -2    8   22      2.80      0.00
   -1    8   22      1.41      0.00
    0    8   22      3.34      0.00
    1    8   22      0.51      0.00
    2    8   22     -0.10      0.00
    3    8   22     -1.80      0.00
    4    8   22      1.57      0.00
  -17    0   23     -2.58      0.00
  -15    0   23     -1.60      0.00
   13    0   23      0.20      0.00
  -17    1   23     -0.01      0.00
  -16    1   23      1.12      0.00
  -15    1   23      0.46      0.00
   12    1   23     -3.49      0.00
   13    1   23     -0.58      0.00
   14    1   23      0.41      0.00
  -17    2   23      2.54      0.00
  -16    2   23      0.01      0.00
  -15    2   23      0.89      0.00
   11    2   23     -3.59      0.00
   12    2   23      1.90      0.00
   13    2   23      1.24      0.00
  -16    3   23     -1.79      0.00
  -15    3   23      1.10      0.00
  -14    3   23     -3.80      0.00
   10    3   23      0.67      0.00
   11    3   23      0.52      0.00
   12    3   23      2.01      0.00
   13    3   23     -0.54      0.00
  -15    4   23     -0.93      0.00
  -14    4   23     -1.38      0.00
  -13    4   23      4.05      0.00
    9    4   23      4.56      0.00
   10    4   23     -1.63      0.00
   11    4   23      2.42      0.00
   12    4   23     -0.26      0.00
  -14    5   23      3.15      0.00
  -13    5   23      0.58      0.00
  -12    5   23     -0.65      0.00
  -11    5   23     -3.61      0.00
    7    5   23     -2.91      0.00
    8    5   23      4.93      0.00
    9    5   23     -1.12      0.00
   10    5   23      1.86      0.00
  -12    6   23     -0.40      0.00
  -11    6   23     -1.22      0.00
  -10    6   23      3.44      0.00
   -9    6   23      2.48      0.00
   -8    6   23     -0.49      0.00
    4    6   23      2.16      0.00
    5    6   23      3.43      0.00
    6    6   23     -3.02      0.00
    7    6   23      2.72      0.00
    8    6   23      0.05      0.00
   -9    7   23     -1.69      0.00
   -8    7   23     -1.43      0.00
   -7    7   23      0.27      0.00
   -6    7   23     -3.13      0.00
   -5    7   23     -1.34      0.00
   -4    7   23      0.95      0.00
   -3    7   23      0.19      0.00
   -2    7   23      1.51      0.00
   -1    7   23     -1.22      0.00
    0    7   23     -1.36      0.00
    1    7   23     -0.67      0.00
    2    7   23     -4.90      0.00
    3    7   23      0.81      0.00
    4    7   23      3.30      0.00
    5    7   23     -0.20      0.00
    6    7   23     -0.29      0.00
   -4    8   23     -1.93      0.00
   -3    8   23     -1.28      0.00
   -2    8   23     -1.42      0.00
   -1    8   23     -2.22      0.00
    0    8   23     -0.31      0.00
  -16    0   24      2.80      0.00
  -14    0   24     -1.05      0.00
   10    0   24     -7.20      0.00
   12    0   24     -4.28      0.00
  -16    1   24     -0.65      0.00
  -15    1   24     -2.13      0.00
  -14    1   24     -0.12      0.00
   10    1   24      2.92      0.00
   11    1   24      0.97      0.00
   12    1   24      1.61      0.00
  -16    2   24     -2.31      0.00
  -15    2   24      0.60      0.00
  -14    2   24      1.55      0.00
  -13    2   24     -1.66      0.00
   10    2   24      5.07      0.00
   11    2   24     -1.00      0.00
   12    2   24      0.78      0.00
  -15    3   24      1.90      0.00
  -14    3   24     -2.17      0.00
  -13    3   24      1.61      0.00
    9    3   24      4.03      0.00
   10    3   24     -2.19      0.00
   11    3   24     -1.63      0.00
  -14    4   24     -0.27      0.00
  -13    4   24      2.04      0.00
  -12    4   24     -3.03      0.00
  -11    4   24     -0.29      0.00
    7    4   24     -0.45      0.00
    8    4   24      1.81      0.00
    9    4   24      0.68      0.00
   10    4   24     -3.84      0.00
  -13    5   24     -1.32      0.00
  -12    5   24     -0.26      0.00
  -11    5   24      1.59      0.00
  -10    5   24      2.51      0.00
   -9    5   24      2.03      0.00
    5    5   24      1.86      0.00
    6    5   24     -1.73      0.00
    7    5   24     -0.85      0.00
    8    5   24      2.89      0.00
    9    5   24     -3.14      0.00
  -11    6   24     -0.46      0.00
  -10    6   24     -0.45      0.00
   -9    6   24     -2.73      0.00
   -8    6   24     -2.74      0.00
   -7    6   24     -1.04      0.00
   -6    6   24     -0.40      0.00
   -5    6   24     -5.00      0.00
   -4    6   24      1.71      0.00
   -3    6   24     -1.45      0.00
   -2    6   24     -3.55      0.00
   -1    6   24     -3.65      0.00
    0    6   24     -5.15      0.00
    1    6   24      1.39      0.00
    2    6   24     -0.15      0.00
    3    6   24      1.43      0.00
    4    6   24      1.29      0.00
    5    6   24     -1.64      0.00
    6    6   24     -2.57      0.00
    7    6   24      2.66      0.00
   -7    7   24      1.81      0.00
   -6    7   24      0.68      0.00
   -5    7   24      1.32      0.00
   -4    7   24      0.60      0.00
   -3    7   24     -1.11      0.00
   -2    7   24      0.76      0.00
   -1    7   24     -0.11      0.00
    0    7   24      0.78      0.00
    1    7   24      2.21      0.00
    2    7   24     -0.04      0.00
    3    7   24      1.99      0.00
  -15    0   25     -2.16      0.00
  -13    0   25      4.14      0.00
    9    0   25      3.61      0.00
   11    0   25      5.27      0.00
  -15    1   25      0.78      0.00
  -14    1   25      2.54      0.00
  -13    1   25     -0.24      0.00
  -12    1   25     -1.70      0.00
    8    1   25      4.94      0.00
    9    1   25     -0.71      0.00
   10    1   25      1.80      0.00
   11    1   25     -2.01      0.00
  -15    2   25      1.58      0.00
  -14    2   25     -0.77      0.00
  -13    2   25     -3.77      0.00
  -12    2   25      2.15      0.00
    8    2   25     -1.02      0.00
    9    2   25     -2.09      0.00
   10    2   25     -0.90      0.00
   11    2   25     -2.53      0.00
  -14    3   25     -1.71      0.00
  -13    3   25      3.23      0.00
  -12    3   25      1.26      0.00
  -11    3   25     -1.06      0.00
    7    3   25     -0.34      0.00
    8    3   25     -1.54      0.00
    9    3   25      0.75      0.00
   10    3   25     -1.32      0.00
  -13    4   25      0.85      0.00
  -12    4   25     -3.04      0.00
  -11    4   25      0.99      0.00
  -10    4   25      0.11      0.00
   -9    4   25     -2.64      0.00
    5    4   25      1.90      0.00
    6    4   25     -1.60      0.00
    7    4   25     -1.89      0.00
    8    4   25      0.62      0.00
    9    4   25      0.15      0.00
  -11    5   25      0.47      0.00
  -10    5   25     -1.49      0.00
   -9    5   25     -1.50      0.00
   -8    5   25     -0.85      0.00
   -7    5   25      2.91      0.00
   -6    5   25      2.02      0.00
   -5    5   25     -2.25      0.00
   -4    5   25     -0.84      0.00
    0    5   25      3.60      0.00
    1    5   25      2.59      0.00
    2    5   25      4.50      0.00
    3    5   25     -4.03      0.00
    4    5   25     -0.03      0.00
    5    5   25     -0.48      0.00
    6    5   25     -0.85      0.00
    7    5   25      0.80      0.00
   -8    6   25      2.21      0.00
   -7    6   25      1.74      0.00
   -6    6   25      1.52      0.00
   -5    6   25     -0.38      0.00
   -4    6   25      3.75      0.00
   -3    6   25      0.05      0.00
   -2    6   25      0.59      0.00
   -1    6   25      3.86      0.00
    0    6   25      1.37      0.00
    1    6   25      2.82      0.00
    2    6   25     -2.21      0.00
    3    6   25     -1.51      0.00
    4    6   25     -0.19      0.00
  -14    0   26      0.16      0.00
  -12    0   26     -4.72      0.00
    6    0   26      3.79      0.00
    8    0   26      1.45      0.00
   10    0   26     -4.65      0.00
  -14    1   26     -0.31      0.00
  -13    1   26     -1.00      0.00
  -12    1   26      0.23      0.00
  -11    1   26      3.62      0.00
  -10    1   26      1.83      0.00
    6    1   26     -0.86      0.00
    7    1   26     -0.59      0.00
    8    1   26     -0.21      0.00
    9    1   26     -3.96      0.00
   10    1   26      1.70      0.00
  -13    2   26      0.00      0.00
  -12    2   26      3.65      0.00
  -11    2   26     -1.63      0.00
  -10    2   26      1.47      0.00
    5    2   26     -1.25      0.00
    6    2   26     -1.42      0.00
    7    2   26      1.01      0.00
    8    2   26     -1.23      0.00
    9    2   26      1.09      0.00
  -13    3   26      0.72      0.00
  -12    3   26     -2.67      0.00
  -11    3   26     -2.95      0.00
  -10    3   26      1.08      0.00
   -9    3   26     -4.53      0.00
   -8    3   26     -2.78      0.00
    4    3   26     -0.99      0.00
    5    3   26     -2.67      0.00
    6    3   26      0.97      0.00
    7    3   26     -1.64      0.00
    8    3   26     -0.19      0.00
  -11    4   26      2.81      0.00
  -10    4   26      1.07      0.00
   -9    4   26      0.22      0.00
   -8    4   26      2.61      0.00
   -7    4   26      4.52      0.00
   -6    4   26      1.24      0.00
   -5    4   26     -1.24      0.00
   -4    4   26     -0.88      0.00
   -1    4   26     -2.32      0.00
    0    4   26      7.99      0.00
    1    4   26      0.58      0.00
    2    4   26     -2.81      0.00
    3    4   26     -0.29      0.00
    4    4   26     -1.78      0.00
    5    4   26      2.97      0.00
    6    4   26     -0.51      0.00
    7    4   26      0.30      0.00
   -9    5   26      0.42      0.00
   -8    5   26      0.29      0.00
   -7    5   26      0.18      0.00
   -6    5   26     -2.02      0.00
   -5    5   26     -1.24      0.00
   -4    5   26      1.17      0.00
   -3    5   26      1.81      0.00
   -2    5   26     -3.40      0.00
   -1    5   26      2.06      0.00
    0    5   26      1.46      0.00
    1    5   26     -4.55      0.00
    2    5   26     -0.37      0.00
    3    5   26     -2.34      0.00
    4    5   26      2.44      0.00
    5    5   26      0.88      0.00
   -5    6   26     -1.50      0.00
   -4    6   26      0.27      0.00
   -3    6   26     -2.17      0.00
   -2    6   26     -1.24      0.00
   -1    6   26      0.18      0.00
    0    6   26     -2.38      0.00
    1    6   26      0.59      0.00
  -13    0   27      0.72      0.00
  -11    0   27      4.29      0.00
   -9    0   27      0.52      0.00
    3    0   27      1.85      0.00
    5    0   27      3.88      0.00
    7    0   27     -3.50      0.00
  -12    1   27     -0.15      0.00
  -11    1   27     -0.78      0.00
  -10    1   27     -4.34      0.00
   -9    1   27     -1.54      0.00
   -8    1   27     -3.50      0.00
   -7    1   27     -0.99      0.00
    3    1   27     -2.22      0.00
    4    1   27      0.51      0.00
    5    1   27      0.34      0.00
    6    1   27     -4.05      0.00
    7    1   27      0.88      0.00
    8    1   27      2.16      0.00
  -12    2   27      0.04      0.00
  -11    2   27     -2.30      0.00
  -10    2   27      1.60      0.00
   -9    2   27      1.76      0.00
   -8    2   27      0.23      0.00
   -7    2   27      4.10      0.00
   -6    2   27      2.10      0.00
    2    2   27     -0.84      0.00
    3    2   27     -2.66      0.00
    4    2   27      2.71      0.00
    5    2   27     -2.88      0.00
    6    2   27      0.22      0.00
    7    2   27      1.82      0.00
  -11    3   27      1.98      0.00
  -10    3   27      2.88      0.00
   -9    3   27     -1.64      0.00
   -8    3   27      1.41      0.00
   -7    3   27      1.73      0.00
   -6    3   27     -1.64      0.00
   -5    3   27     -2.74      0.00
   -4    3   27      0.88      0.00
   -3    3   27      1.46      0.00
   -2    3   27      1.69      0.00
   -1    3   27     -0.74      0.00
    0    3   27      0.91      0.00
    1    3   27      1.09      0.00
    2    3   27     -5.63      0.00
    3    3   27      2.45      0.00
    4    3   27      0.94      0.00
    5    3   27     -0.49      0.00
    6    3   27      2.82      0.00
   -9    4   27     -1.64      0.00
   -8    4   27      0.36      0.00
   -7    4   27     -1.53      0.00
   -6    4   27     -2.89      0.00
   -5    4   27     -0.03      0.00
   -4    4   27      1.31      0.00
   -3    4   27      0.38      0.00
   -2    4   27     -3.16      0.00
   -1    4   27     -1.79      0.00
    0    4   27      2.63      0.00
    1    4   27     -3.82      0.00
    2    4   27     -0.49      0.00
    3    4   27      3.07      0.00
    4    4   27     -1.07      0.00
    5    4   27      1.30      0.00
   -6    5   27      0.24      0.00
   -5    5   27      1.22      0.00
   -4    5   27      0.18      0.00
   -3    5   27     -0.75      0.00
   -2    5   27     -1.34      0.00
   -1    5   27      2.67      0.00
    0    5   27      0.53      0.00
    1    5   27     -1.67      0.00
    0    0    0      0.00      0.00
# SQUEEZE RESULTS (Version = 120716)
# Note: Data are Listed for all Voids in the P1 Unit Cell
# i.e. Centre of Gravity, Solvent Accessible Volume,
# Recovered number of Electrons in the Void and
# Details about the Squeezed Material
loop_
  _platon_squeeze_void_nr
  _platon_squeeze_void_average_x
  _platon_squeeze_void_average_y
  _platon_squeeze_void_average_z
  _platon_squeeze_void_volume
  _platon_squeeze_void_count_electrons
  _platon_squeeze_void_content
   1  0.211  0.500  0.289       638       258 ' '
   2  0.250  0.356  0.750        17         0 ' '
   3  0.750  0.643  0.250        16         0 ' '
# Missing Reflections Below sin(th)/lambda = 0.25
loop_
  _platon_missing_refln_index_h
  _platon_missing_refln_index_k
  _platon_missing_refln_index_l
  _platon_missing_refln_theta
    0    1    0     2.104
   -1    0    1     1.313
    1    0    1     1.444
    0    0    2     1.791
    2    0    2     2.888
    4    0    2     4.726
   -4    1    5     6.217
   -2    0    6     5.585
_platon_squeeze_void_probe_radius                  1.20
_platon_squeeze_details
)
TITL 15nova_0m in P 2/n
CELL   19.4810    9.6790   22.8500     90.00     95.49     90.00
SPGR P2/n
# Solvent Accessible Volume =       672
# Electrons Found in S.A.V. =       257
# Note: Atoms in Void as Cxxx and Qxxx all others
C101 0.367 0.246 0.041 !      24.68 eA-3
C102 0.250 0.312 0.252 !      22.24 eA-3
C103 0.290 0.098 0.176 !      12.87 eA-3
C104 0.509 0.312 0.014 !      12.24 eA-3
C105 0.531 0.720 0.039 !       8.20 eA-3
C106 0.250 0.125 0.254 !       5.63 eA-3
C107 0.912 0.654 0.485 !       4.45 eA-3
C108 0.424 0.280 0.040 !       1.50 eA-3
C109 0.402 0.334 0.021 !       1.28 eA-3
Q110 0.317 0.216 0.016 !       1.16 eA-3
C111 0.399 0.256 0.954 !       1.10 eA-3
C112 0.212 0.275 0.272 !       1.10 eA-3
C113 0.242 0.057 0.292 !       1.09 eA-3
Q114 0.580 0.781 0.968 !       1.09 eA-3
C115 0.754 0.733 0.702 !       1.04 eA-3
Q116 0.130 0.284 0.414 !       1.00 eA-3
Q117 0.277 0.375 0.208 !       0.99 eA-3
C118 0.217 1.001 0.311 !       0.92 eA-3
Q119 0.609 0.649 0.939 !       0.91 eA-3
Q120 0.958 0.285 0.524 !       0.89 eA-3
C121 0.111 0.158 0.486 !       0.87 eA-3
Q122 0.283 0.438 0.239 !       0.82 eA-3
C123 0.829 0.776 0.569 !       0.80 eA-3
C124 0.008 0.592 0.485 !       0.78 eA-3
Q125 0.589 0.652 0.064 !       0.78 eA-3
Q126 0.346 0.350 0.070 !       0.78 eA-3
C127 0.437 0.187 0.980 !       0.77 eA-3
Q128 1.004 0.811 0.531 !       0.74 eA-3
Q129 0.680 0.714 0.952 !       0.74 eA-3
Q130 0.956 0.319 0.196 !       0.73 eA-3
C131 0.700 0.814 0.794 !       0.72 eA-3
Q132 0.158 0.155 0.305 !       0.69 eA-3
C133 0.172 0.155 0.455 !       0.69 eA-3
Q134 0.173 0.133 0.283 !       0.69 eA-3
Q135 0.336 0.129 0.156 !       0.67 eA-3
C136 0.252 0.182 0.321 !       0.65 eA-3
C137 0.558 0.350 0.004 !       0.65 eA-3
Q138 0.340 0.033 0.182 !       0.65 eA-3
Q139 0.118 0.184 0.424 !       0.65 eA-3
Q140 0.622 0.375 0.086 !       0.64 eA-3
Q141 0.448 0.467 0.007 !       0.64 eA-3
C142 0.264 0.438 0.264 !       0.63 eA-3
Q143 0.062 0.408 0.445 !       0.62 eA-3
C144 0.538 0.439 0.014 !       0.62 eA-3
C145 0.357 0.124 0.034 !       0.61 eA-3
C146 0.632 0.690 0.037 !       0.61 eA-3
Q147 0.890 0.340 0.131 !       0.61 eA-3
Q148 0.455 0.617 0.642 !       0.60 eA-3
Q149 0.032 0.289 0.461 !       0.60 eA-3
C150 0.516 0.505 0.017 !       0.60 eA-3
Q151 0.362 0.371 0.053 !       0.60 eA-3
C152 0.689 0.785 0.839 !       0.59 eA-3
Q153 0.689 0.468 0.198 !       0.59 eA-3
Q154 0.106 0.396 0.561 !       0.58 eA-3
Q155 0.192 0.997 0.356 !       0.57 eA-3
Q156 0.278 0.248 0.984 !       0.57 eA-3
C157 0.757 0.843 0.856 !       0.57 eA-3
Q158 0.011 0.382 0.433 !       0.57 eA-3
C159 0.253 0.098 0.132 !       0.57 eA-3
Q160 0.465 0.877 0.165 !       0.56 eA-3
Q161 0.197 0.290 0.198 !       0.56 eA-3
Q162 0.091 0.531 0.506 !       0.56 eA-3
Q163 0.531 0.646 0.082 !       0.56 eA-3
C164 0.217 0.093 0.373 !       0.54 eA-3
Q165 0.312 0.905 0.203 !       0.54 eA-3
Q166 0.862 0.722 0.412 !       0.54 eA-3
Q167 0.716 0.685 0.829 !       0.54 eA-3
Q168 0.658 0.554 0.735 !       0.53 eA-3
Q169 0.763 0.497 0.783 !       0.53 eA-3
C170 0.531 0.735 0.095 !       0.53 eA-3
Q171 0.081 0.030 0.134 !       0.52 eA-3
Q172 0.482 0.838 0.641 !       0.51 eA-3
Q173 0.420 0.599 0.231 !       0.51 eA-3
Q174 0.611 0.909 0.595 !       0.51 eA-3
)
;
_shelx_fab_checksum              33986
loop_
_space_group_symop_operation_xyz
'x, y, z'
'-x+1/2, y, -z+1/2'
'-x, -y, -z'
'x-1/2, -y, z-1/2'
loop_
_atom_site_label
_atom_site_type_symbol
_atom_site_fract_x
_atom_site_fract_y
_atom_site_fract_z
_atom_site_U_iso_or_equiv
_atom_site_adp_type
_atom_site_occupancy
_atom_site_site_symmetry_order
_atom_site_calc_flag
_atom_site_refinement_flags_posn
_atom_site_refinement_flags_adp
_atom_site_refinement_flags_occupancy
_atom_site_disorder_assembly
_atom_site_disorder_group
Mn1 Mn 0.92838(2) 0.33130(5) 0.16269(2) 0.02144(13) Uani 1 1 d . . . . .
O1 O 0.84394(12) 0.4544(2) 0.19202(11) 0.0263(5) Uani 1 1 d D . . . .
H1 H 0.8378(19) 0.438(4) 0.2269(16) 0.039 Uiso 1 1 d . U . . .
H2 H 0.8086(13) 0.455(4) 0.1681(13) 0.039 Uiso 1 1 d D U . . .
Cl1 Cl 1.05130(5) 0.07306(9) 0.14970(4) 0.0402(3) Uani 1 1 d . . . . .
O2 O 1.01087(12) 0.1913(2) 0.12639(10) 0.0322(6) Uani 1 1 d . . . . .
O3 O 1.09987(14) 0.1185(4) 0.19630(15) 0.0673(9) Uani 1 1 d . . . . .
O4 O 1.08578(14) 0.0153(3) 0.10294(13) 0.0547(8) Uani 1 1 d . . . . .
O5 O 1.00518(14) -0.0260(3) 0.17119(13) 0.0515(8) Uani 1 1 d . . . . .
N1 N 0.85846(13) 0.2130(3) 0.11530(11) 0.0210(6) Uani 1 1 d . . . . .
N2 N 0.93422(13) 0.4543(3) 0.09370(12) 0.0240(6) Uani 1 1 d . . . . .
N3 N 1.00241(13) 0.4386(3) 0.20819(12) 0.0255(7) Uani 1 1 d . . . . .
N4 N 0.92482(13) 0.2021(3) 0.23066(11) 0.0205(6) Uani 1 1 d . . . . .
C1 C 0.81718(16) 0.1158(3) 0.13455(13) 0.0210(7) Uani 1 1 d . . . . .
C2 C 0.77482(16) 0.0518(3) 0.08668(14) 0.0240(8) Uani 1 1 d . . . . .
C3 C 0.79257(17) 0.1134(3) 0.03683(14) 0.0258(8) Uani 1 1 d . . . . .
C4 C 0.84201(17) 0.2193(3) 0.05399(14) 0.0247(8) Uani 1 1 d . . . . .
C5 C 0.86324(17) 0.3223(4) 0.01981(14) 0.0280(8) Uani 1 1 d . . . . .
H5A H 0.8503 0.3148 -0.0212 0.034 Uiso 1 1 calc R U . . .
C6 C 0.90219(17) 0.4385(3) 0.03839(15) 0.0270(8) Uani 1 1 d . . . . .
C7 C 0.91232(18) 0.5578(4) 0.00306(15) 0.0300(9) Uani 1 1 d . . . . .
C8 C 0.95167(18) 0.6471(4) 0.03785(15) 0.0298(9) Uani 1 1 d . . . . .
C9 C 0.96565(17) 0.5833(3) 0.09444(15) 0.0280(8) Uani 1 1 d . . . . .
C10 C 1.00891(17) 0.6326(3) 0.14062(15) 0.0277(8) Uani 1 1 d . . . . .
H10A H 1.0264 0.7235 0.1367 0.033 Uiso 1 1 calc R U . . .
C11 C 1.02963(16) 0.5637(3) 0.19214(15) 0.0243(8) Uani 1 1 d . . . . .
C12 C 1.08228(17) 0.6070(3) 0.23629(16) 0.0297(8) Uani 1 1 d . . . . .
C13 C 1.08721(17) 0.5074(3) 0.27909(16) 0.0290(8) Uani 1 1 d . . . . .
C14 C 1.03730(17) 0.4050(3) 0.26056(16) 0.0292(8) Uani 1 1 d . . . . .
C15 C 1.02534(18) 0.2824(4) 0.29204(16) 0.0340(9) Uani 1 1 d . . . . .
H15A H 1.0554 0.2650 0.3265 0.041 Uiso 1 1 calc R U . . .
C16 C 0.97528(17) 0.1876(4) 0.27787(15) 0.0286(8) Uani 1 1 d . . . . .
C17 C 0.96275(18) 0.0613(4) 0.30916(15) 0.0312(8) Uani 1 1 d . . . . .
C18 C 0.90454(16) 0.0044(3) 0.28186(14) 0.0226(7) Uani 1 1 d . . . . .
C19 C 0.88120(15) 0.0970(3) 0.23511(13) 0.0185(7) Uani 1 1 d . . . . .
C20 C 0.81682(16) 0.0881(3) 0.19710(13) 0.0193(7) Uani 1 1 d . . . . .
C21 C 0.72576(18) -0.0658(4) 0.09049(14) 0.0301(8) Uani 1 1 d . . . . .
H21A H 0.7018 -0.0826 0.0510 0.036 Uiso 1 1 calc R U . . .
H21B H 0.6905 -0.0391 0.1168 0.036 Uiso 1 1 calc R U . . .
C22 C 0.7597(2) -0.1996(4) 0.11302(16) 0.0365(9) Uani 1 1 d . . . . .
H22A H 0.7245 -0.2714 0.1147 0.055 Uiso 1 1 calc R U . . .
H22B H 0.7830 -0.1846 0.1525 0.055 Uiso 1 1 calc R U . . .
H22C H 0.7936 -0.2289 0.0864 0.055 Uiso 1 1 calc R U . . .
C23 C 0.76462(19) 0.0872(4) -0.02555(14) 0.0361(9) Uani 1 1 d . . . . .
H23A H 0.7499 -0.0105 -0.0297 0.043 Uiso 1 1 calc R U . . .
H23B H 0.8016 0.1026 -0.0517 0.043 Uiso 1 1 calc R U . . .
C24 C 0.7040(3) 0.1802(5) -0.04450(19) 0.0730(16) Uani 1 1 d . . . . .
H24A H 0.6892 0.1641 -0.0861 0.110 Uiso 1 1 calc R U . . .
H24B H 0.7179 0.2770 -0.0388 0.110 Uiso 1 1 calc R U . . .
H24C H 0.6659 0.1597 -0.0209 0.110 Uiso 1 1 calc R U . . .
C25 C 0.88235(18) 0.5761(4) -0.05894(16) 0.0385(10) Uani 1 1 d . . . . .
H25A H 0.8847 0.4871 -0.0800 0.046 Uiso 1 1 calc R U . . .
H25B H 0.9103 0.6443 -0.0786 0.046 Uiso 1 1 calc R U . . .
C26 C 0.8075(2) 0.6252(5) -0.0632(2) 0.0546(12) Uani 1 1 d . . . . .
H26A H 0.7902 0.6365 -0.1046 0.082 Uiso 1 1 calc R U . . .
H26B H 0.8049 0.7139 -0.0428 0.082 Uiso 1 1 calc R U . . .
H26C H 0.7793 0.5567 -0.0449 0.082 Uiso 1 1 calc R U . . .
C27 C 0.97549(19) 0.7891(4) 0.02262(17) 0.0366(10) Uani 1 1 d . . . . .
H27A H 0.9824 0.7924 -0.0197 0.044 Uiso 1 1 calc R U . . .
H27B H 1.0204 0.8084 0.0452 0.044 Uiso 1 1 calc R U . . .
C28 C 0.9239(2) 0.9002(4) 0.03612(18) 0.0453(11) Uani 1 1 d . . . . .
H28A H 0.9416 0.9911 0.0262 0.068 Uiso 1 1 calc R U . . .
H28B H 0.9171 0.8976 0.0781 0.068 Uiso 1 1 calc R U . . .
H28C H 0.8798 0.8832 0.0128 0.068 Uiso 1 1 calc R U . . .
C29 C 1.12489(18) 0.7365(3) 0.23389(17) 0.0345(9) Uani 1 1 d . . . . .
H29A H 1.1485 0.7551 0.2734 0.041 Uiso 1 1 calc R U . . .
H29B H 1.0939 0.8155 0.2231 0.041 Uiso 1 1 calc R U . . .
C30 C 1.1788(2) 0.7260(4) 0.18960(19) 0.0476(11) Uani 1 1 d . . . . .
H30A H 1.2064 0.8108 0.1909 0.071 Uiso 1 1 calc R U . . .
H30B H 1.1555 0.7136 0.1500 0.071 Uiso 1 1 calc R U . . .
H30C H 1.2090 0.6467 0.1996 0.071 Uiso 1 1 calc R U . . .
C31 C 1.13019(19) 0.5079(4) 0.33636(17) 0.0376(9) Uani 1 1 d . . . . .
H31A H 1.1720 0.5644 0.3330 0.045 Uiso 1 1 calc R U . . .
H31B H 1.1451 0.4123 0.3465 0.045 Uiso 1 1 calc R U . . .
C32 C 1.0906(2) 0.5659(4) 0.38514(19) 0.0497(11) Uani 1 1 d . . . . .
H32A H 1.1205 0.5666 0.4222 0.075 Uiso 1 1 calc R U . . .
H32B H 1.0501 0.5081 0.3895 0.075 Uiso 1 1 calc R U . . .
H32C H 1.0757 0.6604 0.3751 0.075 Uiso 1 1 calc R U . . .
C33 C 1.0082(2) 0.0086(5) 0.3604(2) 0.0549(13) Uani 1 1 d . . . . .
H33A H 1.0538 0.0455 0.3585 0.066 Uiso 0.6211 1 d . U P A 1
H33B H 1.0120 -0.0908 0.3565 0.066 Uiso 0.6211 1 d . U P A 1
C34 C 0.9882(4) 0.0343(11) 0.4134(3) 0.082(3) Uani 0.621(7) 1 d . . P A 1
H34D H 1.0181 -0.0157 0.4432 0.124 Uiso 0.621(7) 1 calc R U P A 1
H34E H 0.9404 0.0039 0.4147 0.124 Uiso 0.621(7) 1 calc R U P A 1
H34F H 0.9914 0.1337 0.4214 0.124 Uiso 0.621(7) 1 calc R U P A 1
H33C H 0.9862 -0.0723 0.3747 0.099 Uiso 0.3789 1 d . U P A 2
H33D H 1.0092 0.0763 0.3908 0.099 Uiso 0.3789 1 d . U P A 2
C34A C 1.0705(5) -0.0278(10) 0.3554(4) 0.033(3) Uiso 0.379(7) 1 d . . P A 2
H34A H 1.0940 -0.0466 0.3944 0.049 Uiso 0.379(7) 1 calc R U P A 2
H34B H 1.0945 0.0467 0.3367 0.049 Uiso 0.379(7) 1 calc R U P A 2
H34C H 1.0707 -0.1114 0.3312 0.049 Uiso 0.379(7) 1 calc R U P A 2
C35 C 0.87766(17) -0.1385(3) 0.29126(14) 0.0231(7) Uani 1 1 d . . . . .
H35A H 0.8275 -0.1411 0.2794 0.028 Uiso 1 1 calc R U . . .
H35B H 0.8850 -0.1622 0.3335 0.028 Uiso 1 1 calc R U . . .
C36 C 0.9139(2) -0.2446(4) 0.25570(17) 0.0381(9) Uani 1 1 d . . . . .
H36A H 0.8966 -0.3372 0.2635 0.057 Uiso 1 1 calc R U . . .
H36B H 0.9637 -0.2411 0.2670 0.057 Uiso 1 1 calc R U . . .
H36C H 0.9048 -0.2238 0.2137 0.057 Uiso 1 1 calc R U . . .
C37 C 0.75481(16) 0.0746(3) 0.21959(13) 0.0196(7) Uani 1 1 d . . . . .
H37A H 0.7150 0.0645 0.1925 0.023 Uiso 1 1 calc R U . . .
Cl2 Cl 0.83347(4) 0.38931(9) 0.36272(4) 0.0314(2) Uani 1 1 d . . . . .
O6 O 0.88777(15) 0.4864(4) 0.36744(14) 0.0689(10) Uani 1 1 d . . . . .
O7 O 0.77627(14) 0.4381(3) 0.39216(11) 0.0431(7) Uani 1 1 d . . . . .
O8 O 0.80929(14) 0.3691(3) 0.30205(10) 0.0462(7) Uani 1 1 d . . . . .
O9 O 0.85520(15) 0.2583(3) 0.38613(14) 0.0627(9) Uani 1 1 d . . . . .
loop_
_atom_site_aniso_label
_atom_site_aniso_U_11
_atom_site_aniso_U_22
_atom_site_aniso_U_33
_atom_site_aniso_U_23
_atom_site_aniso_U_13
_atom_site_aniso_U_12
Mn1 0.0204(3) 0.0176(3) 0.0272(3) 0.0109(2) 0.0070(2) 0.0049(2)
O1 0.0248(14) 0.0248(13) 0.0293(14) 0.0044(11) 0.0034(11) 0.0055(11)
Cl1 0.0333(5) 0.0297(5) 0.0606(6) 0.0223(5) 0.0207(5) 0.0169(4)
O2 0.0325(14) 0.0202(13) 0.0469(15) 0.0194(11) 0.0192(11) 0.0149(10)
O3 0.0318(17) 0.085(2) 0.083(2) 0.0113(19) -0.0059(16) 0.0186(16)
O4 0.0487(18) 0.0434(17) 0.078(2) 0.0238(15) 0.0392(16) 0.0271(14)
O5 0.0562(19) 0.0261(14) 0.078(2) 0.0270(14) 0.0357(16) 0.0126(13)
N1 0.0211(15) 0.0197(14) 0.0234(15) 0.0075(12) 0.0080(12) 0.0074(12)
N2 0.0230(15) 0.0202(15) 0.0303(16) 0.0127(12) 0.0102(12) 0.0088(12)
N3 0.0183(15) 0.0207(15) 0.0383(17) 0.0137(13) 0.0075(13) 0.0059(12)
N4 0.0188(15) 0.0181(15) 0.0246(14) 0.0096(12) 0.0022(11) 0.0009(11)
C1 0.0183(17) 0.0220(17) 0.0234(17) 0.0025(14) 0.0051(13) 0.0079(14)
C2 0.0240(19) 0.0247(18) 0.0238(18) -0.0002(15) 0.0053(14) 0.0099(15)
C3 0.029(2) 0.0256(18) 0.0240(18) 0.0030(15) 0.0074(15) 0.0145(16)
C4 0.027(2) 0.0247(18) 0.0234(18) 0.0053(15) 0.0088(14) 0.0150(15)
C5 0.034(2) 0.029(2) 0.0226(18) 0.0106(16) 0.0118(15) 0.0165(17)
C6 0.0264(19) 0.0256(19) 0.031(2) 0.0160(16) 0.0127(15) 0.0124(16)
C7 0.027(2) 0.031(2) 0.035(2) 0.0180(17) 0.0170(16) 0.0162(17)
C8 0.029(2) 0.026(2) 0.038(2) 0.0199(17) 0.0209(16) 0.0156(16)
C9 0.0253(19) 0.0212(18) 0.040(2) 0.0136(16) 0.0179(16) 0.0113(15)
C10 0.0252(19) 0.0151(17) 0.045(2) 0.0117(16) 0.0156(17) 0.0077(14)
C11 0.0177(18) 0.0153(16) 0.042(2) 0.0106(15) 0.0136(15) 0.0064(14)
C12 0.024(2) 0.0191(18) 0.048(2) 0.0103(17) 0.0140(17) 0.0049(15)
C13 0.0208(19) 0.0198(18) 0.047(2) 0.0119(16) 0.0056(16) 0.0027(15)
C14 0.0181(18) 0.0238(19) 0.045(2) 0.0104(17) 0.0003(16) -0.0010(15)
C15 0.025(2) 0.032(2) 0.043(2) 0.0177(18) -0.0076(16) -0.0021(16)
C16 0.0235(19) 0.0273(19) 0.034(2) 0.0123(16) -0.0009(15) -0.0070(15)
C17 0.027(2) 0.0274(19) 0.037(2) 0.0170(16) -0.0042(16) -0.0042(16)
C18 0.0210(18) 0.0212(18) 0.0260(18) 0.0056(14) 0.0040(14) 0.0007(14)
C19 0.0172(17) 0.0184(17) 0.0210(17) 0.0037(14) 0.0075(13) 0.0030(13)
C20 0.0219(18) 0.0144(16) 0.0224(17) 0.0022(13) 0.0063(13) 0.0046(13)
C21 0.037(2) 0.035(2) 0.0191(17) -0.0068(15) 0.0030(15) -0.0031(17)
C22 0.047(2) 0.029(2) 0.036(2) -0.0004(17) 0.0133(18) -0.0031(17)
C23 0.047(2) 0.040(2) 0.0214(18) 0.0036(17) 0.0034(16) 0.0154(19)
C24 0.085(4) 0.091(4) 0.038(3) -0.007(3) -0.023(2) 0.049(3)
C25 0.038(2) 0.041(2) 0.039(2) 0.0223(18) 0.0171(18) 0.0132(18)
C26 0.045(3) 0.057(3) 0.062(3) 0.025(2) 0.006(2) 0.024(2)
C27 0.039(2) 0.027(2) 0.047(2) 0.0222(17) 0.0223(18) 0.0149(17)
C28 0.043(2) 0.030(2) 0.067(3) 0.023(2) 0.027(2) 0.0195(18)
C29 0.031(2) 0.0164(18) 0.057(2) 0.0108(17) 0.0070(18) -0.0021(15)
C30 0.037(2) 0.036(2) 0.072(3) 0.007(2) 0.019(2) -0.0141(19)
C31 0.034(2) 0.0194(19) 0.057(3) 0.0117(18) -0.0062(19) -0.0101(16)
C32 0.057(3) 0.028(2) 0.062(3) -0.005(2) -0.004(2) -0.008(2)
C33 0.047(3) 0.050(3) 0.062(3) 0.040(2) -0.024(2) -0.026(2)
C34 0.077(6) 0.130(9) 0.038(5) 0.006(5) -0.006(4) 0.038(6)
C35 0.0221(18) 0.0210(18) 0.0265(18) 0.0069(14) 0.0036(14) -0.0006(14)
C36 0.039(2) 0.028(2) 0.049(2) 0.0037(18) 0.0152(19) 0.0008(17)
C37 0.0222(18) 0.0121(16) 0.0242(16) -0.0021(13) 0.0009(14) 0.0007(13)
Cl2 0.0291(5) 0.0333(5) 0.0311(5) 0.0038(4) -0.0010(4) -0.0063(4)
O6 0.051(2) 0.082(2) 0.072(2) 0.0007(18) -0.0013(16) -0.0429(18)
O7 0.0493(17) 0.0441(17) 0.0374(15) -0.0102(13) 0.0113(13) -0.0022(13)
O8 0.0493(17) 0.0600(19) 0.0295(14) -0.0017(13) 0.0043(12) -0.0104(14)
O9 0.051(2) 0.053(2) 0.083(2) 0.0276(17) -0.0002(16) 0.0136(15)
loop_
_atom_type_symbol
_atom_type_description
_atom_type_scat_dispersion_real
_atom_type_scat_dispersion_imag
_atom_type_scat_source
C C 0.0033 0.0016 'International Tables Vol C Tables 4.2.6.8 and 6.1.1.4'
H H 0.0000 0.0000 'International Tables Vol C Tables 4.2.6.8 and 6.1.1.4'
N N 0.0061 0.0033 'International Tables Vol C Tables 4.2.6.8 and 6.1.1.4'
O O 0.0106 0.0060 'International Tables Vol C Tables 4.2.6.8 and 6.1.1.4'
Cl Cl 0.1484 0.1585 'International Tables Vol C Tables 4.2.6.8 and 6.1.1.4'
Mn Mn 0.3368 0.7283 'International Tables Vol C Tables 4.2.6.8 and 6.1.1.4'
loop_
_geom_angle_atom_site_label_1
_geom_angle_atom_site_label_2
_geom_angle_atom_site_label_3
_geom_angle
_geom_angle_site_symmetry_1
_geom_angle_site_symmetry_3
N2 Mn1 N3 90.48(11) . .
N2 Mn1 N4 177.74(11) . .
N3 Mn1 N4 89.86(11) . .
N2 Mn1 N1 90.06(11) . .
N3 Mn1 N1 175.98(10) . .
N4 Mn1 N1 89.44(11) . .
N2 Mn1 O1 91.06(10) . .
N3 Mn1 O1 94.84(10) . .
N4 Mn1 O1 91.14(10) . .
N1 Mn1 O1 89.13(10) . .
N2 Mn1 O2 88.40(9) . .
N3 Mn1 O2 89.97(10) . .
N4 Mn1 O2 89.37(9) . .
N1 Mn1 O2 86.07(10) . .
O1 Mn1 O2 175.17(9) . .
Mn1 O1 H1 112(3) . .
Mn1 O1 H2 113(3) . .
H1 O1 H2 116(4) . .
O3 Cl1 O4 110.70(19) . .
O3 Cl1 O5 110.10(19) . .
O4 Cl1 O5 110.45(17) . .
O3 Cl1 O2 109.11(18) . .
O4 Cl1 O2 108.03(15) . .
O5 Cl1 O2 108.38(15) . .
Cl1 O2 Mn1 134.14(13) . .
C1 N1 C4 105.7(3) . .
C1 N1 Mn1 128.3(2) . .
C4 N1 Mn1 126.0(2) . .
C6 N2 C9 105.9(3) . .
C6 N2 Mn1 127.8(2) . .
C9 N2 Mn1 125.9(2) . .
C14 N3 C11 105.7(3) . .
C14 N3 Mn1 127.8(2) . .
C11 N3 Mn1 126.5(2) . .
C19 N4 C16 105.7(2) . .
C19 N4 Mn1 127.2(2) . .
C16 N4 Mn1 126.1(2) . .
N1 C1 C2 111.7(3) . .
N1 C1 C20 120.8(3) . .
C2 C1 C20 127.5(3) . .
C3 C2 C1 105.9(3) . .
C3 C2 C21 126.7(3) . .
C1 C2 C21 127.2(3) . .
C2 C3 C4 107.6(3) . .
C2 C3 C23 128.6(3) . .
C4 C3 C23 123.7(3) . .
C5 C4 N1 123.6(3) . .
C5 C4 C3 127.0(3) . .
N1 C4 C3 108.9(3) . .
C4 C5 C6 127.0(3) . .
C4 C5 H5A 116.5 . .
C6 C5 H5A 116.5 . .
N2 C6 C5 123.9(3) . .
N2 C6 C7 110.9(3) . .
C5 C6 C7 125.2(3) . .
C8 C7 C6 106.4(3) . .
C8 C7 C25 128.9(3) . .
C6 C7 C25 124.7(4) . .
C7 C8 C9 107.5(3) . .
C7 C8 C27 128.0(3) . .
C9 C8 C27 124.5(4) . .
C10 C9 N2 124.0(3) . .
C10 C9 C8 126.4(3) . .
N2 C9 C8 109.3(3) . .
C9 C10 C11 126.6(3) . .
C9 C10 H10A 116.7 . .
C11 C10 H10A 116.7 . .
C10 C11 N3 124.1(3) . .
C10 C11 C12 126.3(3) . .
N3 C11 C12 109.6(3) . .
C13 C12 C11 107.1(3) . .
C13 C12 C29 127.6(3) . .
C11 C12 C29 125.3(3) . .
C12 C13 C14 106.1(3) . .
C12 C13 C31 128.5(3) . .
C14 C13 C31 125.1(3) . .
N3 C14 C15 123.7(3) . .
N3 C14 C13 111.4(3) . .
C15 C14 C13 124.9(3) . .
C16 C15 C14 126.5(3) . .
C16 C15 H15A 116.8 . .
C14 C15 H15A 116.8 . .
C15 C16 N4 123.6(3) . .
C15 C16 C17 127.2(3) . .
N4 C16 C17 109.1(3) . .
C18 C17 C16 106.7(3) . .
C18 C17 C33 129.1(3) . .
C16 C17 C33 124.2(3) . .
C17 C18 C19 106.3(3) . .
C17 C18 C35 126.5(3) . .
C19 C18 C35 126.3(3) . .
N4 C19 C18 111.9(3) . .
N4 C19 C20 121.1(3) . .
C18 C19 C20 126.9(3) . .
C37 C20 C1 118.4(3) . .
C37 C20 C19 121.6(3) . .
C1 C20 C19 119.3(3) . .
C2 C21 C22 114.1(3) . .
C2 C21 H21A 108.7 . .
C22 C21 H21A 108.7 . .
C2 C21 H21B 108.7 . .
C22 C21 H21B 108.7 . .
H21A C21 H21B 107.6 . .
C21 C22 H22A 109.5 . .
C21 C22 H22B 109.5 . .
H22A C22 H22B 109.5 . .
C21 C22 H22C 109.5 . .
H22A C22 H22C 109.5 . .
H22B C22 H22C 109.5 . .
C3 C23 C24 111.9(3) . .
C3 C23 H23A 109.2 . .
C24 C23 H23A 109.2 . .
C3 C23 H23B 109.2 . .
C24 C23 H23B 109.2 . .
H23A C23 H23B 107.9 . .
C23 C24 H24A 109.5 . .
C23 C24 H24B 109.5 . .
H24A C24 H24B 109.5 . .
C23 C24 H24C 109.5 . .
H24A C24 H24C 109.5 . .
H24B C24 H24C 109.5 . .
C7 C25 C26 112.5(3) . .
C7 C25 H25A 109.1 . .
C26 C25 H25A 109.1 . .
C7 C25 H25B 109.1 . .
C26 C25 H25B 109.1 . .
H25A C25 H25B 107.8 . .
C25 C26 H26A 109.5 . .
C25 C26 H26B 109.5 . .
H26A C26 H26B 109.5 . .
C25 C26 H26C 109.5 . .
H26A C26 H26C 109.5 . .
H26B C26 H26C 109.5 . .
C8 C27 C28 112.0(3) . .
C8 C27 H27A 109.2 . .
C28 C27 H27A 109.2 . .
C8 C27 H27B 109.2 . .
C28 C27 H27B 109.2 . .
H27A C27 H27B 107.9 . .
C27 C28 H28A 109.5 . .
C27 C28 H28B 109.5 . .
H28A C28 H28B 109.5 . .
C27 C28 H28C 109.5 . .
H28A C28 H28C 109.5 . .
H28B C28 H28C 109.5 . .
C12 C29 C30 112.6(3) . .
C12 C29 H29A 109.1 . .
C30 C29 H29A 109.1 . .
C12 C29 H29B 109.1 . .
C30 C29 H29B 109.1 . .
H29A C29 H29B 107.8 . .
C29 C30 H30A 109.5 . .
C29 C30 H30B 109.5 . .
H30A C30 H30B 109.5 . .
C29 C30 H30C 109.5 . .
H30A C30 H30C 109.5 . .
H30B C30 H30C 109.5 . .
C13 C31 C32 111.3(3) . .
C13 C31 H31A 109.4 . .
C32 C31 H31A 109.4 . .
C13 C31 H31B 109.4 . .
C32 C31 H31B 109.4 . .
H31A C31 H31B 108.0 . .
C31 C32 H32A 109.5 . .
C31 C32 H32B 109.5 . .
H32A C32 H32B 109.5 . .
C31 C32 H32C 109.5 . .
H32A C32 H32C 109.5 . .
H32B C32 H32C 109.5 . .
C34A C33 C17 121.4(6) . .
C34 C33 C17 116.7(5) . .
C34 C33 H33A 108.8 . .
C17 C33 H33A 108.7 . .
C34 C33 H33B 107.6 . .
C17 C33 H33B 108.2 . .
H33A C33 H33B 106.4 . .
C34A C33 H33C 105.2 . .
C17 C33 H33C 107.2 . .
C34A C33 H33D 107.4 . .
C17 C33 H33D 107.9 . .
H33C C33 H33D 106.9 . .
C33 C34 H34D 109.5 . .
C33 C34 H34E 109.5 . .
H34D C34 H34E 109.5 . .
C33 C34 H34F 109.5 . .
H34D C34 H34F 109.5 . .
H34E C34 H34F 109.5 . .
C33 C34A H34A 109.5 . .
C33 C34A H34B 109.5 . .
H34A C34A H34B 109.5 . .
C33 C34A H34C 109.5 . .
H34A C34A H34C 109.5 . .
H34B C34A H34C 109.5 . .
C18 C35 C36 111.0(3) . .
C18 C35 H35A 109.4 . .
C36 C35 H35A 109.4 . .
C18 C35 H35B 109.4 . .
C36 C35 H35B 109.4 . .
H35A C35 H35B 108.0 . .
C35 C36 H36A 109.5 . .
C35 C36 H36B 109.5 . .
H36A C36 H36B 109.5 . .
C35 C36 H36C 109.5 . .
H36A C36 H36C 109.5 . .
H36B C36 H36C 109.5 . .
C20 C37 C37 125.0(4) . 2_655
C20 C37 H37A 117.5 . .
C37 C37 H37A 117.5 2_655 .
O6 Cl2 O9 111.7(2) . .
O6 Cl2 O8 109.83(18) . .
O9 Cl2 O8 107.45(19) . .
O6 Cl2 O7 110.79(19) . .
O9 Cl2 O7 109.45(17) . .
O8 Cl2 O7 107.45(16) . .
loop_
_geom_bond_atom_site_label_1
_geom_bond_atom_site_label_2
_geom_bond_distance
_geom_bond_site_symmetry_2
Mn1 N2 1.987(3) .
Mn1 N3 1.988(3) .
Mn1 N4 2.000(2) .
Mn1 N1 2.014(3) .
Mn1 O1 2.188(2) .
Mn1 O2 2.316(2) .
O1 H1 0.83(4) .
O1 H2 0.837(18) .
Cl1 O3 1.425(3) .
Cl1 O4 1.429(3) .
Cl1 O5 1.433(3) .
Cl1 O2 1.460(2) .
N1 C1 1.339(4) .
N1 C4 1.408(4) .
N2 C6 1.363(4) .
N2 C9 1.391(4) .
N3 C14 1.358(4) .
N3 C11 1.386(4) .
N4 C19 1.336(4) .
N4 C16 1.395(4) .
C1 C2 1.445(5) .
C1 C20 1.455(4) .
C2 C3 1.359(4) .
C2 C21 1.494(5) .
C3 C4 1.435(5) .
C3 C23 1.498(5) .
C4 C5 1.355(4) .
C5 C6 1.400(5) .
C5 H5A 0.9500 .
C6 C7 1.433(4) .
C7 C8 1.360(5) .
C7 C25 1.490(5) .
C8 C9 1.435(5) .
C8 C27 1.502(5) .
C9 C10 1.372(5) .
C10 C11 1.379(5) .
C10 H10A 0.9500 .
C11 C12 1.431(5) .
C12 C13 1.370(5) .
C12 C29 1.508(5) .
C13 C14 1.424(5) .
C13 C31 1.484(5) .
C14 C15 1.419(5) .
C15 C16 1.356(5) .
C15 H15A 0.9500 .
C16 C17 1.449(4) .
C17 C18 1.358(5) .
C17 C33 1.488(5) .
C18 C19 1.435(4) .
C18 C35 1.502(4) .
C19 C20 1.458(4) .
C20 C37 1.364(4) .
C21 C22 1.521(5) .
C21 H21A 0.9900 .
C21 H21B 0.9900 .
C22 H22A 0.9800 .
C22 H22B 0.9800 .
C22 H22C 0.9800 .
C23 C24 1.514(5) .
C23 H23A 0.9900 .
C23 H23B 0.9900 .
C24 H24A 0.9800 .
C24 H24B 0.9800 .
C24 H24C 0.9800 .
C25 C26 1.528(5) .
C25 H25A 0.9900 .
C25 H25B 0.9900 .
C26 H26A 0.9800 .
C26 H26B 0.9800 .
C26 H26C 0.9800 .
C27 C28 1.523(5) .
C27 H27A 0.9900 .
C27 H27B 0.9900 .
C28 H28A 0.9800 .
C28 H28B 0.9800 .
C28 H28C 0.9800 .
C29 C30 1.530(5) .
C29 H29A 0.9900 .
C29 H29B 0.9900 .
C30 H30A 0.9800 .
C30 H30B 0.9800 .
C30 H30C 0.9800 .
C31 C32 1.523(5) .
C31 H31A 0.9900 .
C31 H31B 0.9900 .
C32 H32A 0.9800 .
C32 H32B 0.9800 .
C32 H32C 0.9800 .
C33 C34A 1.280(10) .
C33 C34 1.331(8) .
C33 H33A 0.9623 .
C33 H33B 0.9697 .
C33 H33C 0.9645 .
C33 H33D 0.9534 .
C34 H34D 0.9800 .
C34 H34E 0.9800 .
C34 H34F 0.9800 .
C34A H34A 0.9800 .
C34A H34B 0.9800 .
C34A H34C 0.9800 .
C35 C36 1.524(5) .
C35 H35A 0.9900 .
C35 H35B 0.9900 .
C36 H36A 0.9800 .
C36 H36B 0.9800 .
C36 H36C 0.9800 .
C37 C37 1.420(6) 2_655
C37 H37A 0.9500 .
Cl2 O6 1.411(3) .
Cl2 O9 1.424(3) .
Cl2 O8 1.434(3) .
Cl2 O7 1.435(3) .
loop_
_geom_hbond_atom_site_label_D
_geom_hbond_atom_site_label_H
_geom_hbond_atom_site_label_A
_geom_hbond_distance_DH
_geom_hbond_distance_HA
_geom_hbond_distance_DA
_geom_hbond_angle_DHA
_geom_hbond_site_symmetry_A
O1 H1 O8 0.83(4) 1.97(4) 2.790(3) 168(4) .
O1 H1 O8 0.83(4) 1.97(4) 2.790(3) 168(4) .
O1 H2 O7 0.837(18) 2.055(19) 2.889(4) 175(4) 2_655
O1 H2 O7 0.837(18) 2.055(19) 2.889(4) 175(4) 2_655
loop_
_geom_torsion_atom_site_label_1
_geom_torsion_atom_site_label_2
_geom_torsion_atom_site_label_3
_geom_torsion_atom_site_label_4
_geom_torsion
_geom_torsion_site_symmetry_4
O3 Cl1 O2 Mn1 -69.1(3) .
O4 Cl1 O2 Mn1 170.5(2) .
O5 Cl1 O2 Mn1 50.8(3) .
C4 N1 C1 C2 2.4(3) .
Mn1 N1 C1 C2 -179.0(2) .
C4 N1 C1 C20 -175.7(3) .
Mn1 N1 C1 C20 2.8(4) .
N1 C1 C2 C3 0.6(4) .
C20 C1 C2 C3 178.6(3) .
N1 C1 C2 C21 176.1(3) .
C20 C1 C2 C21 -6.0(5) .
C1 C2 C3 C4 -3.4(3) .
C21 C2 C3 C4 -178.8(3) .
C1 C2 C3 C23 -179.8(3) .
C21 C2 C3 C23 4.7(5) .
C1 N1 C4 C5 167.2(3) .
Mn1 N1 C4 C5 -11.4(4) .
C1 N1 C4 C3 -4.5(3) .
Mn1 N1 C4 C3 176.9(2) .
C2 C3 C4 C5 -166.4(3) .
C23 C3 C4 C5 10.3(5) .
C2 C3 C4 N1 5.0(3) .
C23 C3 C4 N1 -178.3(3) .
N1 C4 C5 C6 -1.8(5) .
C3 C4 C5 C6 168.3(3) .
C9 N2 C6 C5 -178.8(3) .
Mn1 N2 C6 C5 -5.8(4) .
C9 N2 C6 C7 -0.4(3) .
Mn1 N2 C6 C7 172.6(2) .
C4 C5 C6 N2 11.0(5) .
C4 C5 C6 C7 -167.2(3) .
N2 C6 C7 C8 0.3(4) .
C5 C6 C7 C8 178.7(3) .
N2 C6 C7 C25 -178.0(3) .
C5 C6 C7 C25 0.4(5) .
C6 C7 C8 C9 -0.1(4) .
C25 C7 C8 C9 178.1(3) .
C6 C7 C8 C27 -178.2(3) .
C25 C7 C8 C27 -0.1(6) .
C6 N2 C9 C10 -173.4(3) .
Mn1 N2 C9 C10 13.5(4) .
C6 N2 C9 C8 0.3(3) .
Mn1 N2 C9 C8 -172.8(2) .
C7 C8 C9 C10 173.4(3) .
C27 C8 C9 C10 -8.4(5) .
C7 C8 C9 N2 -0.1(4) .
C27 C8 C9 N2 178.1(3) .
N2 C9 C10 C11 1.8(5) .
C8 C9 C10 C11 -170.8(3) .
C9 C10 C11 N3 -8.6(5) .
C9 C10 C11 C12 170.2(3) .
C14 N3 C11 C10 178.7(3) .
Mn1 N3 C11 C10 -0.6(4) .
C14 N3 C11 C12 -0.2(3) .
Mn1 N3 C11 C12 -179.6(2) .
C10 C11 C12 C13 -178.7(3) .
N3 C11 C12 C13 0.3(4) .
C10 C11 C12 C29 -0.3(5) .
N3 C11 C12 C29 178.6(3) .
C11 C12 C13 C14 -0.2(4) .
C29 C12 C13 C14 -178.5(3) .
C11 C12 C13 C31 -174.9(3) .
C29 C12 C13 C31 6.8(6) .
C11 N3 C14 C15 -179.4(3) .
Mn1 N3 C14 C15 -0.1(5) .
C11 N3 C14 C13 0.1(4) .
Mn1 N3 C14 C13 179.4(2) .
C12 C13 C14 N3 0.1(4) .
C31 C13 C14 N3 175.0(3) .
C12 C13 C14 C15 179.6(3) .
C31 C13 C14 C15 -5.5(6) .
N3 C14 C15 C16 -5.5(6) .
C13 C14 C15 C16 175.1(4) .
C14 C15 C16 N4 -3.7(6) .
C14 C15 C16 C17 179.3(4) .
C19 N4 C16 C15 -173.3(3) .
Mn1 N4 C16 C15 17.5(5) .
C19 N4 C16 C17 4.1(4) .
Mn1 N4 C16 C17 -165.1(2) .
C15 C16 C17 C18 175.5(4) .
N4 C16 C17 C18 -1.8(4) .
C15 C16 C17 C33 -5.7(6) .
N4 C16 C17 C33 177.0(4) .
C16 C17 C18 C19 -1.1(4) .
C33 C17 C18 C19 -179.9(4) .
C16 C17 C18 C35 168.4(3) .
C33 C17 C18 C35 -10.3(6) .
C16 N4 C19 C18 -5.0(3) .
Mn1 N4 C19 C18 164.1(2) .
C16 N4 C19 C20 172.4(3) .
Mn1 N4 C19 C20 -18.5(4) .
C17 C18 C19 N4 3.9(4) .
C35 C18 C19 N4 -165.7(3) .
C17 C18 C19 C20 -173.2(3) .
C35 C18 C19 C20 17.2(5) .
N1 C1 C20 C37 134.4(3) .
C2 C1 C20 C37 -43.4(5) .
N1 C1 C20 C19 -36.1(4) .
C2 C1 C20 C19 146.1(3) .
N4 C19 C20 C37 -125.5(3) .
C18 C19 C20 C37 51.4(5) .
N4 C19 C20 C1 44.7(4) .
C18 C19 C20 C1 -138.4(3) .
C3 C2 C21 C22 112.1(4) .
C1 C2 C21 C22 -62.4(4) .
C2 C3 C23 C24 91.1(5) .
C4 C3 C23 C24 -84.8(5) .
C8 C7 C25 C26 -96.4(4) .
C6 C7 C25 C26 81.4(4) .
C7 C8 C27 C28 89.3(4) .
C9 C8 C27 C28 -88.6(4) .
C13 C12 C29 C30 104.7(4) .
C11 C12 C29 C30 -73.3(4) .
C12 C13 C31 C32 92.4(4) .
C14 C13 C31 C32 -81.4(4) .
C18 C17 C33 C34A 114.7(7) .
C16 C17 C33 C34A -63.9(8) .
C18 C17 C33 C34 -82.3(7) .
C16 C17 C33 C34 99.1(7) .
C17 C18 C35 C36 -82.0(4) .
C19 C18 C35 C36 85.6(4) .
C1 C20 C37 C37 -167.03(19) 2_655
C19 C20 C37 C37 3.2(4) 2_655
