#------------------------------------------------------------------------------
#$Date: 2019-01-11 01:25:39 +0200 (Fri, 11 Jan 2019) $
#$Revision: 212906 $
#$URL: file:///home/coder/svn-repositories/cod/cif/7/12/27/7122796.cif $
#------------------------------------------------------------------------------
#
# This file is available in the Crystallography Open Database (COD),
# http://www.crystallography.net/
#
# All data on this site have been placed in the public domain by the
# contributors.
#
data_7122796
loop_
_publ_author_name
'Kumar, Amit'
'Sil, Debangsu'
'Usman, Mohammad'
'Rath, Sankar Prasad'
_publ_section_title
;
 Dimanganese(III) porphyrin dication diradical and its transformation to a
 \m-hydroxo porphyrin-oxophlorin heterodimer
;
_journal_name_full               'Chemical Communications'
_journal_paper_doi               10.1039/C8CC09366K
_journal_year                    2019
_chemical_formula_sum            'C74 H88 Cl2 Mn2 N8'
_chemical_formula_weight         1270.30
_chemical_name_systematic
;
 ?
;
_space_group_crystal_system      triclinic
_space_group_IT_number           2
_space_group_name_Hall           '-P 1'
_space_group_name_H-M_alt        'P -1'
_symmetry_space_group_name_Hall  '-P 1'
_symmetry_space_group_name_H-M   'P -1'
_atom_sites_solution_hydrogens   geom
_audit_creation_method           SHELXL-2014
_audit_update_record
;
2018-10-24 deposited with the CCDC.
2019-01-07 downloaded from the CCDC.
;
_cell_angle_alpha                97.286(4)
_cell_angle_beta                 101.380(4)
_cell_angle_gamma                106.260(4)
_cell_formula_units_Z            1
_cell_length_a                   12.2256(19)
_cell_length_b                   13.0137(19)
_cell_length_c                   13.2500(19)
_cell_measurement_reflns_used    999
_cell_measurement_temperature    100(2)
_cell_measurement_theta_max      27.0
_cell_measurement_theta_min      2.5
_cell_volume                     1946.5(5)
_computing_cell_refinement       'Bruker SAINT'
_computing_data_collection       'Bruker APEX'
_computing_data_reduction        'Bruker SAINT'
_computing_molecular_graphics    'SHELXL 5.1, XP (Sheldrick, 1994)'
_computing_publication_material  SHELXL-97
_computing_structure_refinement  'SHELXL-2014 (Sheldrick, 2014)'
_computing_structure_solution    'SHELXS-97 (Sheldrick, 2008)'
_diffrn_ambient_temperature      100(2)
_diffrn_measured_fraction_theta_full 0.997
_diffrn_measured_fraction_theta_max 0.997
_diffrn_measurement_device_type  'Bruker SMART APEX'
_diffrn_measurement_method       \w
_diffrn_radiation_type           MoK\a
_diffrn_radiation_wavelength     0.71073
_diffrn_reflns_av_R_equivalents  0.0694
_diffrn_reflns_av_unetI/netI     0.0796
_diffrn_reflns_Laue_measured_fraction_full 0.997
_diffrn_reflns_Laue_measured_fraction_max 0.997
_diffrn_reflns_limit_h_max       14
_diffrn_reflns_limit_h_min       -14
_diffrn_reflns_limit_k_max       15
_diffrn_reflns_limit_k_min       -15
_diffrn_reflns_limit_l_max       16
_diffrn_reflns_limit_l_min       -16
_diffrn_reflns_number            24030
_diffrn_reflns_point_group_measured_fraction_full 0.997
_diffrn_reflns_point_group_measured_fraction_max 0.997
_diffrn_reflns_theta_full        25.242
_diffrn_reflns_theta_max         25.497
_diffrn_reflns_theta_min         2.506
_diffrn_source                   'fine-focus sealed tube'
_exptl_absorpt_coefficient_mu    0.435
_exptl_absorpt_correction_T_max  0.950
_exptl_absorpt_correction_T_min  0.920
_exptl_absorpt_correction_type   multi-scan
_exptl_absorpt_process_details   'SADABS 2.05 (Sheldrick, 2002)'
_exptl_crystal_colour            'dark red'
_exptl_crystal_density_diffrn    1.084
_exptl_crystal_description       block
_exptl_crystal_F_000             672
_exptl_crystal_size_max          0.220
_exptl_crystal_size_mid          0.160
_exptl_crystal_size_min          0.120
_refine_diff_density_max         0.926
_refine_diff_density_min         -0.592
_refine_diff_density_rms         0.093
_refine_ls_extinction_method     none
_refine_ls_goodness_of_fit_ref   1.038
_refine_ls_hydrogen_treatment    constr
_refine_ls_matrix_type           full
_refine_ls_number_parameters     398
_refine_ls_number_reflns         7219
_refine_ls_number_restraints     0
_refine_ls_restrained_S_all      1.038
_refine_ls_R_factor_all          0.0988
_refine_ls_R_factor_gt           0.0650
_refine_ls_shift/su_max          0.000
_refine_ls_shift/su_mean         0.000
_refine_ls_structure_factor_coef Fsqd
_refine_ls_weighting_details
'w=1/[\s^2^(Fo^2^)+(0.0801P)^2^+3.8204P] where P=(Fo^2^+2Fc^2^)/3'
_refine_ls_weighting_scheme      calc
_refine_ls_wR_factor_gt          0.1605
_refine_ls_wR_factor_ref         0.1792
_reflns_Friedel_coverage         0.000
_reflns_number_gt                5078
_reflns_number_total             7219
_reflns_threshold_expression     'I > 2\s(I)'
_cod_data_source_file            c8cc09366k2.cif
_cod_data_source_block           shelx
_cod_database_code               7122796
_shelx_space_group_comment
;
The symmetry employed for this shelxl refinement is uniquely defined
by the following loop, which should always be used as a source of
symmetry information in preference to the above space-group names.
They are only intended as comments.
;
_shelx_estimated_absorpt_t_min   0.910
_shelx_estimated_absorpt_t_max   0.950
_shelxl_version_number           2014-3
_shelx_res_file
;
TITL 6octb_0m in P-1
CELL  0.71073  12.2256  13.0137  13.2500   97.286  101.380  106.260
ZERR     1.00   0.0019   0.0019   0.0019    0.004    0.004    0.004
LATT   1
SFAC  C    H    N   MN   CL
UNIT  74   88   8   2    2
MERG   2
OMIT    -3.00  51.00
OMIT    -1   1   0
OMIT     2   1   0
OMIT     2  -2   2
OMIT     0   2   2
omit -2 1 2
omit -1 -5 4
FMAP   2
PLAN   10
acta 51
TEMP -173.0
size 0.22 0.16 0.12 ! red block
L.S. 12
ABIN
ACTA
WGHT    0.080100    3.820400
FVAR       0.09850   0.86136   0.72715
MN1   4    0.900605    0.018940    0.157009    11.00000    0.01475    0.01720 =
         0.01670    0.00692    0.00216    0.00360
CL1   5    0.806622    0.132750    0.247221    11.00000    0.04263    0.03240 =
         0.02915    0.00662    0.00889    0.01234
N1    3    0.760052   -0.112148    0.131366    11.00000    0.01548    0.01844 =
         0.01918    0.00740    0.00480    0.00419
N2    3    0.979684   -0.033107    0.277752    11.00000    0.01898    0.01893 =
         0.01965    0.00504    0.00338    0.00500
N3    3    1.057018    0.124745    0.161782    11.00000    0.01467    0.01929 =
         0.01859    0.00246    0.00043    0.00312
N4    3    0.837029    0.045958    0.016250    11.00000    0.01487    0.01890 =
         0.01711    0.00581    0.00513    0.00680
C1    1    0.650348   -0.122248    0.071320    11.00000    0.01577    0.01659 =
         0.01835    0.00108    0.00457    0.00465
C2    1    0.564406   -0.216903    0.088194    11.00000    0.01698    0.02389 =
         0.02087    0.00367    0.00492    0.00311
C3    1    0.623106   -0.263474    0.156731    11.00000    0.02081    0.02331 =
         0.02186    0.00740    0.00979    0.00428
C4    1    0.743989   -0.194949    0.187786    11.00000    0.02004    0.02283 =
         0.02070    0.00838    0.00736    0.00982
C5    1    0.828653   -0.203446    0.269393    11.00000    0.02813    0.01620 =
         0.02131    0.00700    0.00922    0.00609
AFIX  43
H5    2    0.811266   -0.268975    0.296112    11.00000   -1.20000
AFIX   0
C6    1    0.935117   -0.126633    0.315465    11.00000    0.02304    0.02476 =
         0.01676    0.00701    0.00624    0.01143
C7    1    1.012569   -0.126344    0.412196    11.00000    0.02646    0.02806 =
         0.01992    0.00905    0.00673    0.01552
C8    1    1.102935   -0.030586    0.435469    11.00000    0.02647    0.02666 =
         0.01805    0.00498    0.00308    0.01110
C9    1    1.083957    0.025502    0.349682    11.00000    0.02134    0.02469 =
         0.02039    0.00236    0.00285    0.01061
C10   1    1.160336    0.119511    0.336924    11.00000    0.02029    0.01824 =
         0.02333   -0.00160   -0.00271    0.00421
AFIX  43
H10   2    1.225392    0.157553    0.394401    11.00000   -1.20000
AFIX   0
C11   1    1.150605    0.163833    0.247005    11.00000    0.02049    0.01860 =
         0.02277    0.00413    0.00194    0.00850
C12   1    1.240873    0.250589    0.225742    11.00000    0.01893    0.01996 =
         0.03065    0.00444    0.00468    0.00765
C13   1    1.202965    0.261029    0.125273    11.00000    0.01801    0.01743 =
         0.02840    0.00246    0.00471    0.00861
C14   1    1.086481    0.182714    0.086260    11.00000    0.01890    0.01505 =
         0.02240    0.00207    0.00836    0.00467
C15   1    1.012290    0.174298   -0.009523    11.00000    0.02084    0.01875 =
         0.02030    0.00681    0.01093    0.00764
AFIX  43
H15   2    1.044931    0.213112   -0.058239    11.00000   -1.20000
AFIX   0
C16   1    0.894280    0.114100   -0.040747    11.00000    0.02018    0.01799 =
         0.01861    0.00664    0.00754    0.00944
C17   1    0.812147    0.122596   -0.130561    11.00000    0.02248    0.01917 =
         0.01997    0.00437    0.00705    0.01203
C18   1    0.703268    0.064220   -0.125261    11.00000    0.02258    0.01503 =
         0.02540    0.00638    0.00722    0.00991
C19   1    0.719024    0.015800   -0.032083    11.00000    0.01607    0.01791 =
         0.01816    0.00315    0.00309    0.00839
C20   1    0.630285   -0.053642    0.002376    11.00000    0.01524    0.02093 =
         0.01935    0.00403    0.00335    0.00737
C21   1    0.436081   -0.264236    0.030817    11.00000    0.01553    0.02284 =
         0.03681    0.00861    0.00597    0.00441
AFIX  23
H21A  2    0.401033   -0.204414    0.027221    11.00000   -1.20000
H21B  2    0.394397   -0.314508    0.071010    11.00000   -1.20000
AFIX   0
C22   1    0.418074   -0.325644   -0.079816    11.00000    0.02078    0.03308 =
         0.03931   -0.00086   -0.00018    0.00435
AFIX 137
H22A  2    0.334150   -0.351346   -0.114822    11.00000   -1.50000
H22B  2    0.447367   -0.388259   -0.076529    11.00000   -1.50000
H22C  2    0.461101   -0.276896   -0.119387    11.00000   -1.50000
AFIX   0
C23   1    0.575229   -0.363015    0.199515    11.00000    0.02884    0.02164 =
         0.03197    0.01001    0.00423    0.00210
AFIX  23
H23A  2    0.636097   -0.399483    0.213908    11.00000   -1.20000
H23B  2    0.507050   -0.414460    0.145961    11.00000   -1.20000
AFIX   0
C24   1    0.536582   -0.336693    0.301079    11.00000    0.03999    0.04729 =
         0.05049    0.02664    0.02194    0.00309
AFIX 137
H24A  2    0.506311   -0.404278    0.326089    11.00000   -1.50000
H24B  2    0.474814   -0.302306    0.286894    11.00000   -1.50000
H24C  2    0.604051   -0.286762    0.354824    11.00000   -1.50000
AFIX   0
C25   1    0.992811   -0.216526    0.473713    11.00000    0.02766    0.03081 =
         0.02076    0.01179    0.00452    0.00876
AFIX  23
H25A  2    0.909326   -0.240379    0.476539    11.00000   -1.20000
H25B  2    1.041350   -0.188332    0.546535    11.00000   -1.20000
AFIX   0
C26   1    1.023625   -0.313905    0.425938    11.00000    0.04886    0.03803 =
         0.04256    0.02184    0.00899    0.01745
AFIX 137
H26A  2    1.012107   -0.369432    0.469735    11.00000   -1.50000
H26B  2    1.105908   -0.290494    0.422027    11.00000   -1.50000
H26C  2    0.972745   -0.344624    0.355223    11.00000   -1.50000
AFIX   0
C27   1    1.206941    0.011352    0.527502    11.00000    0.03214    0.03389 =
         0.01646    0.00852   -0.00371    0.00958
AFIX  23
H27A  2    1.184879   -0.018439    0.588371    11.00000   -1.20000
H27B  2    1.227676    0.091742    0.545595    11.00000   -1.20000
AFIX   0
C28   1    1.315111   -0.017677    0.509377    11.00000    0.03716    0.04704 =
         0.03441    0.00817   -0.00552    0.01931
AFIX 137
H28A  2    1.381652    0.018468    0.570008    11.00000   -1.50000
H28B  2    1.334378    0.006750    0.446209    11.00000   -1.50000
H28C  2    1.298732   -0.096880    0.500279    11.00000   -1.50000
AFIX   0
C29   1    1.354003    0.316759    0.305054    11.00000    0.02079    0.02456 =
         0.03572    0.00578   -0.00065    0.00074
AFIX  23
H29A  2    1.388595    0.266398    0.340197    11.00000   -1.20000
H29B  2    1.410322    0.355602    0.267565    11.00000   -1.20000
AFIX   0
C30   1    1.338384    0.398736    0.387175    11.00000    0.03902    0.02650 =
         0.03771   -0.00459   -0.00285   -0.00417
AFIX 137
H30A  2    1.414575    0.438395    0.435958    11.00000   -1.50000
H30B  2    1.284052    0.360904    0.425796    11.00000   -1.50000
H30C  2    1.306344    0.450346    0.353301    11.00000   -1.50000
AFIX   0
C31   1    1.262243    0.340682    0.066694    11.00000    0.02172    0.02538 =
         0.03035    0.00606    0.00622    0.00464
AFIX  23
H31A  2    1.239385    0.307021   -0.008780    11.00000   -1.20000
H31B  2    1.348345    0.357441    0.091384    11.00000   -1.20000
AFIX   0
C32   1    1.231869    0.447022    0.079792    11.00000    0.04087    0.02387 =
         0.05540    0.01744    0.01738    0.00817
AFIX 137
H32A  2    1.274426    0.496758    0.040717    11.00000   -1.50000
H32B  2    1.254575    0.481041    0.154324    11.00000   -1.50000
H32C  2    1.147127    0.431460    0.052735    11.00000   -1.50000
AFIX   0
C33   1    0.842834    0.191150   -0.210132    11.00000    0.02216    0.02776 =
         0.01781    0.01057    0.00586    0.00829
AFIX  23
H33A  2    0.795718    0.150935   -0.280979    11.00000   -1.20000
H33B  2    0.926862    0.204719   -0.209303    11.00000   -1.20000
AFIX   0
C34   1    0.819590    0.300277   -0.187785    11.00000    0.04847    0.02794 =
         0.03918    0.01775    0.01861    0.01668
AFIX 137
H34A  2    0.841717    0.343345   -0.240328    11.00000   -1.50000
H34B  2    0.866232    0.340315   -0.117726    11.00000   -1.50000
H34C  2    0.735922    0.287116   -0.190977    11.00000   -1.50000
AFIX   0
C35   1    0.592113    0.041666   -0.207855    11.00000    0.02027    0.02882 =
         0.02006    0.00981   -0.00049    0.01002
AFIX  23
H35A  2    0.605032    0.093382   -0.256306    11.00000   -1.20000
H35B  2    0.529868    0.053290   -0.174332    11.00000   -1.20000
AFIX   0
C36   1    0.551785   -0.074618   -0.269841    11.00000    0.03453    0.03376 =
         0.02679    0.00541   -0.00142    0.01066
AFIX 137
H36A  2    0.478557   -0.087154   -0.322698    11.00000   -1.50000
H36B  2    0.538439   -0.125941   -0.222066    11.00000   -1.50000
H36C  2    0.612383   -0.085660   -0.304684    11.00000   -1.50000
AFIX   0
C37   1    0.510637   -0.041471   -0.026405    11.00000    0.01417    0.02607 =
         0.02326    0.00907    0.00170    0.00601
AFIX  43
H37A  2    0.450827   -0.092299   -0.081603    11.00000   -1.20000

AFIX   0
HKLF    4

REM  6octb_0m in P-1
REM R1 =  0.0650 for    5078 Fo > 4sig(Fo)  and  0.0988 for all    7219 data
REM    398 parameters refined using      0 restraints

END

WGHT      0.0803      3.8188

REM Highest difference peak  0.926,  deepest hole -0.592,  1-sigma level  0.093
Q1    1   0.8986  0.1535  0.2518  11.00000  0.05    0.93
Q2    1   0.7682  0.2022  0.2536  11.00000  0.05    0.88
Q3    1   0.9086 -0.0403  0.1436  11.00000  0.05    0.63
Q4    1   0.9163  0.0205  0.2196  11.00000  0.05    0.53
Q5    1   0.8425  0.0596  0.2282  11.00000  0.05    0.52
Q6    1   0.8402 -0.0061  0.1617  11.00000  0.05    0.48
Q7    1   0.8716  0.2675  0.2521  11.00000  0.05    0.48
Q8    1   0.9654  0.0405  0.1513  11.00000  0.05    0.48
Q9    1   0.7547 -0.1615  0.1477  11.00000  0.05    0.44
Q10   1   0.7160  0.1209  0.2600  11.00000  0.05    0.44
;
_shelx_res_checksum              65771
_shelx_fab_file
;
    2    0    0      4.04      0.00
    3    0    0     68.83      0.00
    4    0    0     -2.73      0.00
    5    0    0    -19.92      0.00
    6    0    0     -5.92      0.00
    7    0    0    -20.36      0.00
    8    0    0     -7.21      0.00
    9    0    0     -3.79      0.00
   10    0    0     -2.80      0.00
   11    0    0      4.06      0.00
   12    0    0      0.29      0.00
   13    0    0      2.23      0.00
  -14    1    0     -2.62      0.00
  -13    1    0     -1.81      0.00
  -12    1    0     -3.52      0.00
  -11    1    0     -0.55      0.00
  -10    1    0      5.75      0.00
   -9    1    0      1.99      0.00
   -8    1    0     20.66      0.00
   -7    1    0     17.25      0.00
   -6    1    0      7.35      0.00
   -5    1    0     37.17      0.00
   -4    1    0    -25.17      0.00
   -3    1    0    -51.98      0.00
   -2    1    0     24.51      0.00
    1    1    0      2.62      0.00
    3    1    0    -38.63      0.00
    4    1    0     10.44      0.00
    5    1    0      4.27      0.00
    6    1    0     13.95      0.00
    7    1    0      8.66      0.00
    8    1    0     -1.27      0.00
    9    1    0      4.82      0.00
   10    1    0     -5.00      0.00
   11    1    0     -3.25      0.00
   12    1    0     -0.31      0.00
   13    1    0     -1.43      0.00
  -14    2    0      2.01      0.00
  -13    2    0      3.23      0.00
  -12    2    0      5.45      0.00
  -11    2    0     -6.31      0.00
  -10    2    0     -1.45      0.00
   -9    2    0     -6.09      0.00
   -8    2    0    -27.54      0.00
   -7    2    0     -5.46      0.00
   -6    2    0    -23.67      0.00
   -5    2    0    -32.27      0.00
   -4    2    0     39.04      0.00
   -3    2    0      2.80      0.00
   -2    2    0     -9.57      0.00
   -1    2    0    104.75      0.00
    0    2    0     42.95      0.00
    1    2    0      1.59      0.00
    2    2    0     31.75      0.00
    3    2    0      2.83      0.00
    4    2    0      2.61      0.00
    5    2    0     -7.93      0.00
    6    2    0    -14.10      0.00
    7    2    0      7.73      0.00
    8    2    0      0.89      0.00
    9    2    0      0.64      0.00
   10    2    0     11.25      0.00
   11    2    0      1.90      0.00
   12    2    0      1.48      0.00
   13    2    0      0.76      0.00
  -14    3    0     -0.77      0.00
  -13    3    0     -7.27      0.00
  -12    3    0      0.68      0.00
  -11    3    0      7.86      0.00
  -10    3    0     -3.89      0.00
   -9    3    0     15.82      0.00
   -8    3    0     19.31      0.00
   -7    3    0      2.97      0.00
   -6    3    0     37.01      0.00
   -5    3    0     10.94      0.00
   -4    3    0    -20.41      0.00
   -3    3    0     25.70      0.00
   -2    3    0    -13.98      0.00
   -1    3    0    -38.58      0.00
    0    3    0      0.52      0.00
    1    3    0    -13.24      0.00
    2    3    0      6.43      0.00
    3    3    0      2.78      0.00
    4    3    0     -9.24      0.00
    5    3    0     19.96      0.00
    6    3    0      0.80      0.00
    7    3    0    -14.65      0.00
    8    3    0      1.78      0.00
    9    3    0    -11.07      0.00
   10    3    0    -11.74      0.00
   11    3    0     -1.33      0.00
   12    3    0     -3.16      0.00
  -14    4    0      2.79      0.00
  -13    4    0      6.57      0.00
  -12    4    0     -8.12      0.00
  -11    4    0     -1.00      0.00
  -10    4    0      1.46      0.00
   -9    4    0    -19.43      0.00
   -8    4    0     -5.36      0.00
   -7    4    0    -13.26      0.00
   -6    4    0    -30.86      0.00
   -5    4    0      2.28      0.00
   -4    4    0     -8.22      0.00
   -3    4    0    -16.73      0.00
   -2    4    0      8.38      0.00
   -1    4    0    -11.39      0.00
    0    4    0      8.81      0.00
    1    4    0     -2.23      0.00
    2    4    0    -31.63      0.00
    3    4    0     11.41      0.00
    4    4    0     -2.23      0.00
    5    4    0    -20.95      0.00
    6    4    0     14.07      0.00
    7    4    0      9.07      0.00
    8    4    0      2.10      0.00
    9    4    0     17.29      0.00
   10    4    0      7.09      0.00
   11    4    0      2.74      0.00
   12    4    0      3.56      0.00
  -14    5    0     -5.59      0.00
  -13    5    0     -0.36      0.00
  -12    5    0      6.33      0.00
  -11    5    0     -5.04      0.00
  -10    5    0      5.67      0.00
   -9    5    0     10.56      0.00
   -8    5    0      1.33      0.00
   -7    5    0     19.60      0.00
   -6    5    0     10.99      0.00
   -5    5    0      2.88      0.00
   -4    5    0     16.93      0.00
   -3    5    0     -3.61      0.00
   -2    5    0     15.88      0.00
   -1    5    0     14.36      0.00
    0    5    0    -19.96      0.00
    1    5    0     31.76      0.00
    2    5    0     24.83      0.00
    3    5    0    -16.43      0.00
    4    5    0     17.13      0.00
    5    5    0      8.54      0.00
    6    5    0    -16.27      0.00
    7    5    0     -2.39      0.00
    8    5    0     -9.59      0.00
    9    5    0    -13.50      0.00
   10    5    0     -2.80      0.00
   11    5    0     -4.80      0.00
  -14    6    0      4.40      0.00
  -13    6    0     -2.34      0.00
  -12    6    0      0.37      0.00
  -11    6    0      3.32      0.00
  -10    6    0     -6.41      0.00
   -9    6    0      0.25      0.00
   -8    6    0     -6.01      0.00
   -7    6    0     -9.26      0.00
   -6    6    0      2.93      0.00
   -5    6    0    -13.97      0.00
   -4    6    0     -0.03      0.00
   -3    6    0      7.82      0.00
   -2    6    0    -32.00      0.00
   -1    6    0      7.61      0.00
    0    6    0      7.56      0.00
    1    6    0    -44.66      0.00
    2    6    0     -5.33      0.00
    3    6    0      5.47      0.00
    4    6    0    -19.84      0.00
    5    6    0      2.93      0.00
    6    6    0      7.65      0.00
    7    6    0      2.76      0.00
    8    6    0     11.38      0.00
    9    6    0      4.73      0.00
   10    6    0      3.00      0.00
  -14    7    0     -1.95      0.00
  -13    7    0      0.58      0.00
  -12    7    0     -2.23      0.00
  -11    7    0      1.15      0.00
  -10    7    0     -0.11      0.00
   -9    7    0     -2.44      0.00
   -8    7    0      6.29      0.00
   -7    7    0     -8.90      0.00
   -6    7    0     -0.32      0.00
   -5    7    0     11.40      0.00
   -4    7    0    -21.33      0.00
   -3    7    0      7.37      0.00
   -2    7    0     23.96      0.00
   -1    7    0    -21.85      0.00
    0    7    0     14.66      0.00
    1    7    0     33.58      0.00
    2    7    0     -4.02      0.00
    3    7    0      8.28      0.00
    4    7    0     11.57      0.00
    5    7    0     -3.13      0.00
    6    7    0      0.16      0.00
    7    7    0     -6.76      0.00
    8    7    0     -5.26      0.00
    9    7    0     -0.76      0.00
   10    7    0     -3.82      0.00
  -14    8    0      0.98      0.00
  -13    8    0     -0.27      0.00
  -12    8    0     -0.56      0.00
  -11    8    0     -2.00      0.00
  -10    8    0      5.68      0.00
   -9    8    0     -2.10      0.00
   -8    8    0      2.79      0.00
   -7    8    0     15.96      0.00
   -6    8    0     -7.73      0.00
   -5    8    0      6.27      0.00
   -4    8    0     23.26      0.00
   -3    8    0    -19.75      0.00
   -2    8    0     -1.08      0.00
   -1    8    0     15.87      0.00
    0    8    0    -24.85      0.00
    1    8    0    -14.26      0.00
    2    8    0     -1.69      0.00
    3    8    0    -12.03      0.00
    4    8    0     -4.28      0.00
    5    8    0     -4.49      0.00
    6    8    0     -0.08      0.00
    7    8    0      6.56      0.00
    8    8    0     -0.85      0.00
    9    8    0      1.97      0.00
  -13    9    0      0.97      0.00
  -12    9    0      3.21      0.00
  -11    9    0     -1.07      0.00
  -10    9    0     -4.54      0.00
   -9    9    0      5.02      0.00
   -8    9    0    -12.09      0.00
   -7    9    0     -8.51      0.00
   -6    9    0      6.60      0.00
   -5    9    0    -20.87      0.00
   -4    9    0     -8.60      0.00
   -3    9    0     13.86      0.00
   -2    9    0    -13.93      0.00
   -1    9    0     -0.42      0.00
    0    9    0     17.06      0.00
    1    9    0      5.30      0.00
    2    9    0     10.63      0.00
    3    9    0      5.86      0.00
    4    9    0      5.38      0.00
    5    9    0      9.15      0.00
    6    9    0     -4.24      0.00
    7    9    0     -1.11      0.00
    8    9    0      1.21      0.00
  -13   10    0     -0.74      0.00
  -12   10    0     -3.25      0.00
  -11   10    0      3.95      0.00
   -9   10    0     -2.04      0.00
   -8   10    0     12.53      0.00
   -7   10    0     -1.60      0.00
   -6   10    0      3.48      0.00
   -5   10    0     19.91      0.00
   -4   10    0     -3.10      0.00
   -3   10    0      1.32      0.00
   -2   10    0     10.79      0.00
   -1   10    0     -6.62      0.00
    0   10    0     -3.92      0.00
    1   10    0     -9.80      0.00
    2   10    0     -9.35      0.00
    3   10    0      0.26      0.00
    4   10    0    -10.76      0.00
    5   10    0     -4.76      0.00
    6   10    0      3.94      0.00
    7   10    0     -2.04      0.00
  -13   11    0      0.59      0.00
  -12   11    0      0.78      0.00
  -11   11    0     -2.20      0.00
  -10   11    0      5.81      0.00
   -8   11    0     -5.07      0.00
   -7   11    0      4.04      0.00
   -6   11    0    -12.11      0.00
   -5   11    0     -8.15      0.00
   -4   11    0      1.84      0.00
   -3   11    0     -8.76      0.00
   -2   11    0      0.43      0.00
   -1   11    0      0.17      0.00
    0   11    0      0.99      0.00
    1   11    0     13.18      0.00
    2   11    0     -0.16      0.00
    3   11    0      0.04      0.00
    4   11    0     10.76      0.00
    5   11    0     -1.27      0.00
    6   11    0     -0.65      0.00
  -12   12    0      0.96      0.00
  -11   12    0     -1.98      0.00
  -10   12    0     -3.51      0.00
   -9   12    0      3.39      0.00
   -8   12    0     -2.69      0.00
   -7   12    0      2.13      0.00
   -6   12    0      9.67      0.00
   -5   12    0     -0.80      0.00
   -4   12    0      5.94      0.00
   -3   12    0      2.90      0.00
   -2   12    0     -3.45      0.00
   -1   12    0      6.79      0.00
    0   12    0     -5.26      0.00
    1   12    0     -7.39      0.00
    2   12    0      7.00      0.00
    3   12    0     -3.57      0.00
    4   12    0     -4.57      0.00
    5   12    0      2.04      0.00
  -11   13    0      2.91      0.00
  -10   13    0     -0.37      0.00
   -9   13    0      0.87      0.00
   -8   13    0      2.90      0.00
   -7   13    0     -6.54      0.00
   -5   13    0     -0.37      0.00
   -4   13    0     -7.81      0.00
   -3   13    0      5.04      0.00
   -2   13    0     -2.16      0.00
   -1   13    0     -6.35      0.00
    0   13    0      6.81      0.00
    1   13    0     -1.78      0.00
    2   13    0     -5.21      0.00
    3   13    0      3.78      0.00
  -10   14    0      0.79      0.00
   -9   14    0     -3.68      0.00
   -8   14    0      2.09      0.00
   -7   14    0      2.05      0.00
   -6   14    0     -5.44      0.00
   -5   14    0      5.38      0.00
   -4   14    0      2.02      0.00
   -3   14    0     -4.64      0.00
   -2   14    0      6.74      0.00
   -1   14    0      1.83      0.00
    0   14    0     -3.10      0.00
    1   14    0      5.05      0.00
    2   14    0      0.09      0.00
   -8   15    0     -2.92      0.00
   -7   15    0      3.62      0.00
   -6   15    0      2.37      0.00
   -5   15    0     -5.39      0.00
   -4   15    0      2.29      0.00
   -3   15    0     -0.66      0.00
   -2   15    0     -5.49      0.00
   -1   15    0      1.27      0.00
    0  -15    1      0.46      0.00
    1  -15    1     -1.35      0.00
    2  -15    1      3.54      0.00
    3  -15    1     -2.20      0.00
    4  -15    1     -1.41      0.00
    5  -15    1      5.48      0.00
    6  -15    1     -3.06      0.00
    7  -15    1     -0.95      0.00
    8  -15    1      4.65      0.00
   -2  -14    1      1.14      0.00
   -1  -14    1     -2.33      0.00
    0  -14    1      4.41      0.00
    1  -14    1     -2.85      0.00
    2  -14    1     -4.16      0.00
    3  -14    1      5.50      0.00
    4  -14    1     -5.17      0.00
    5  -14    1     -4.91      0.00
    6  -14    1      6.06      0.00
    7  -14    1     -5.01      0.00
    8  -14    1     -2.87      0.00
    9  -14    1      2.76      0.00
   10  -14    1     -2.03      0.00
   -4  -13    1     -3.27      0.00
   -3  -13    1     -4.90      0.00
   -2  -13    1      2.34      0.00
   -1  -13    1     -2.79      0.00
    0  -13    1     -6.09      0.00
    1  -13    1      8.66      0.00
    2  -13    1     -0.17      0.00
    3  -13    1     -3.66      0.00
    4  -13    1     10.91      0.00
    5  -13    1     -1.52      0.00
    6  -13    1     -1.78      0.00
    7  -13    1      7.81      0.00
    8  -13    1     -2.83      0.00
    9  -13    1      0.78      0.00
   10  -13    1      2.98      0.00
   11  -13    1     -1.38      0.00
   -5  -12    1      1.80      0.00
   -4  -12    1      8.24      0.00
   -3  -12    1      3.54      0.00
   -2  -12    1     -3.99      0.00
   -1  -12    1     10.56      0.00
    0  -12    1      1.08      0.00
    1  -12    1     -9.32      0.00
    2  -12    1      5.85      0.00
    3  -12    1     -3.35      0.00
    4  -12    1     -6.91      0.00
    5  -12    1      4.96      0.00
    6  -12    1     -6.12      0.00
    7  -12    1     -1.53      0.00
    8  -12    1      3.04      0.00
    9  -12    1     -5.95      0.00
   10  -12    1     -1.01      0.00
   11  -12    1      0.01      0.00
   12  -12    1     -1.21      0.00
   -6  -11    1      0.56      0.00
   -5  -11    1     -3.53      0.00
   -4  -11    1    -11.93      0.00
   -3  -11    1      3.69      0.00
   -2  -11    1     -0.07      0.00
   -1  -11    1    -12.42      0.00
    0  -11    1      5.49      0.00
    1  -11    1      2.33      0.00
    2  -11    1     -5.29      0.00
    3  -11    1      6.01      0.00
    4  -11    1     -3.83      0.00
    5  -11    1      0.66      0.00
    6  -11    1      5.94      0.00
    7  -11    1     -5.98      0.00
    8  -11    1      4.47      0.00
    9  -11    1      5.70      0.00
   10  -11    1     -1.45      0.00
   11  -11    1      3.41      0.00
   12  -11    1      0.17      0.00
   -7  -10    1      0.77      0.00
   -6  -10    1     -2.90      0.00
   -5  -10    1      8.04      0.00
   -4  -10    1      7.21      0.00
   -3  -10    1     -9.11      0.00
   -2  -10    1      5.58      0.00
   -1  -10    1      6.13      0.00
    0  -10    1     -5.03      0.00
    1  -10    1      4.96      0.00
    2  -10    1     -1.46      0.00
    3  -10    1      4.56      0.00
    4  -10    1      8.58      0.00
    5  -10    1     -7.84      0.00
    6  -10    1      5.83      0.00
    7  -10    1      4.47      0.00
    8  -10    1    -10.56      0.00
    9  -10    1      1.53      0.00
   10  -10    1     -0.87      0.00
   11  -10    1     -5.22      0.00
   12  -10    1      1.68      0.00
   13  -10    1     -1.62      0.00
   -8   -9    1     -2.01      0.00
   -7   -9    1      0.91      0.00
   -6   -9    1      3.44      0.00
   -5   -9    1    -10.26      0.00
   -4   -9    1      2.67      0.00
   -3   -9    1      7.51      0.00
   -2   -9    1     -5.30      0.00
   -1   -9    1      1.13      0.00
    0   -9    1     -4.66      0.00
    1   -9    1     -0.35      0.00
    2   -9    1      0.19      0.00
    3   -9    1    -21.77      0.00
    4   -9    1     -0.95      0.00
    5   -9    1      2.32      0.00
    6   -9    1    -18.81      0.00
    7   -9    1      4.10      0.00
    8   -9    1      5.75      0.00
    9   -9    1     -7.70      0.00
   10   -9    1      7.17      0.00
   11   -9    1      2.76      0.00
   12   -9    1     -0.55      0.00
   13   -9    1      3.64      0.00
   -9   -8    1     -1.14      0.00
   -8   -8    1      3.90      0.00
   -7   -8    1     -5.90      0.00
   -6   -8    1      0.95      0.00
   -5   -8    1      5.11      0.00
   -4   -8    1     -7.86      0.00
   -3   -8    1     -3.21      0.00
   -2   -8    1     -4.29      0.00
   -1   -8    1      2.78      0.00
    0   -8    1      8.38      0.00
    1   -8    1    -12.27      0.00
    2   -8    1     17.90      0.00
    3   -8    1     28.02      0.00
    4   -8    1     -8.34      0.00
    5   -8    1     18.43      0.00
    6   -8    1     20.81      0.00
    7   -8    1     -8.48      0.00
    8   -8    1      8.10      0.00
    9   -8    1      4.59      0.00
   10   -8    1     -9.48      0.00
   11   -8    1      0.33      0.00
   12   -8    1     -3.20      0.00
   13   -8    1     -4.29      0.00
  -10   -7    1      4.34      0.00
   -9   -7    1     -2.12      0.00
   -8   -7    1     -0.04      0.00
   -7   -7    1      5.52      0.00
   -6   -7    1     -3.72      0.00
   -5   -7    1      2.97      0.00
   -4   -7    1      4.14      0.00
   -3   -7    1      8.52      0.00
   -2   -7    1     13.52      0.00
   -1   -7    1    -14.13      0.00
    0   -7    1      7.48      0.00
    1   -7    1     15.47      0.00
    2   -7    1    -41.06      0.00
    3   -7    1    -14.37      0.00
    4   -7    1      1.63      0.00
    5   -7    1    -37.24      0.00
    6   -7    1    -10.56      0.00
    7   -7    1     -0.37      0.00
    8   -7    1    -16.65      0.00
    9   -7    1      3.38      0.00
   10   -7    1      4.54      0.00
   11   -7    1      0.32      0.00
   12   -7    1      5.38      0.00
   13   -7    1      2.38      0.00
   14   -7    1      1.08      0.00
  -11   -6    1     -3.64      0.00
  -10   -6    1     -1.91      0.00
   -9   -6    1      2.78      0.00
   -8   -6    1     -3.36      0.00
   -7   -6    1      1.79      0.00
   -6   -6    1     -0.66      0.00
   -5   -6    1     -4.53      0.00
   -4   -6    1     -0.04      0.00
   -3   -6    1    -27.14      0.00
   -2   -6    1    -10.52      0.00
   -1   -6    1     13.82      0.00
    0   -6    1    -35.39      0.00
    1   -6    1      0.85      0.00
    2   -6    1     43.99      0.00
    3   -6    1     -4.65      0.00
    4   -6    1     19.86      0.00
    5   -6    1     33.97      0.00
    6   -6    1      2.31      0.00
    7   -6    1     15.42      0.00
    8   -6    1     10.68      0.00
    9   -6    1     -5.01      0.00
   10   -6    1      1.26      0.00
   11   -6    1     -4.30      0.00
   12   -6    1     -2.85      0.00
   13   -6    1     -0.19      0.00
   14   -6    1     -2.84      0.00
  -11   -5    1      3.07      0.00
  -10   -5    1     -3.72      0.00
   -9   -5    1      0.33      0.00
   -8   -5    1     -2.65      0.00
   -7   -5    1     -6.81      0.00
   -6   -5    1      7.87      0.00
   -5   -5    1     -4.13      0.00
   -4   -5    1      9.65      0.00
   -3   -5    1     44.55      0.00
   -2   -5    1     -1.22      0.00
   -1   -5    1     11.26      0.00
    0   -5    1     50.52      0.00
    1   -5    1    -19.94      0.00
    2   -5    1    -16.55      0.00
    3   -5    1      6.36      0.00
    4   -5    1    -31.18      0.00
    5   -5    1    -13.10      0.00
    6   -5    1     -8.51      0.00
    7   -5    1    -18.23      0.00
    8   -5    1      0.91      0.00
    9   -5    1     -1.87      0.00
   10   -5    1      0.59      0.00
   11   -5    1      5.92      0.00
   12   -5    1     -2.76      0.00
   13   -5    1      2.64      0.00
   14   -5    1      2.92      0.00
  -12   -4    1     -2.97      0.00
  -11   -4    1      3.29      0.00
  -10   -4    1      5.39      0.00
   -9   -4    1      0.35      0.00
   -8   -4    1     14.47      0.00
   -7   -4    1      2.18      0.00
   -6   -4    1     -6.67      0.00
   -5   -4    1     11.89      0.00
   -4   -4    1    -32.63      0.00
   -3   -4    1    -43.84      0.00
   -2   -4    1      1.13      0.00
   -1   -4    1    -47.35      0.00
    0   -4    1    -40.88      0.00
    1   -4    1      9.35      0.00
    2   -4    1    -15.23      0.00
    3   -4    1      8.99      0.00
    4   -4    1     15.30      0.00
    5   -4    1     -0.03      0.00
    6   -4    1     19.69      0.00
    7   -4    1      3.28      0.00
    8   -4    1     -3.37      0.00
    9   -4    1      6.45      0.00
   10   -4    1     -8.25      0.00
   11   -4    1     -0.48      0.00
   12   -4    1      4.05      0.00
   13   -4    1     -6.41      0.00
   14   -4    1      0.82      0.00
  -12   -3    1      0.89      0.00
  -11   -3    1     -9.29      0.00
  -10   -3    1     -3.09      0.00
   -9   -3    1     -9.11      0.00
   -8   -3    1    -19.24      0.00
   -7   -3    1      5.80      0.00
   -6   -3    1     -5.15      0.00
   -5   -3    1     -4.76      0.00
   -4   -3    1     49.56      0.00
   -3   -3    1     29.91      0.00
   -2   -3    1     23.21      0.00
   -1   -3    1     59.98      0.00
    0   -3    1     30.53      0.00
    1   -3    1     31.80      0.00
    2   -3    1     12.17      0.00
    3   -3    1    -16.87      0.00
    4   -3    1     14.90      0.00
    5   -3    1     -7.99      0.00
    6   -3    1    -16.14      0.00
    7   -3    1     14.77      0.00
    8   -3    1     -4.05      0.00
    9   -3    1      0.50      0.00
   10   -3    1     10.26      0.00
   11   -3    1     -6.56      0.00
   12   -3    1      0.70      0.00
   13   -3    1      3.90      0.00
   14   -3    1     -2.86      0.00
  -13   -2    1     -2.19      0.00
  -12   -2    1      4.22      0.00
  -11   -2    1      9.66      0.00
  -10   -2    1      2.98      0.00
   -9   -2    1     19.10      0.00
   -8   -2    1     11.97      0.00
   -7   -2    1     -4.66      0.00
   -6   -2    1     14.18      0.00
   -5   -2    1    -12.96      0.00
   -4   -2    1    -44.29      0.00
   -3   -2    1    -27.35      0.00
   -2   -2    1    -45.05      0.00
   -1   -2    1    -36.33      0.00
    0   -2    1    -48.50      0.00
    1   -2    1    -53.08      0.00
    2   -2    1     30.82      0.00
    3   -2    1     -5.48      0.00
    4   -2    1    -28.95      0.00
    5   -2    1     22.80      0.00
    6   -2    1     -6.83      0.00
    7   -2    1    -18.80      0.00
    8   -2    1      6.67      0.00
    9   -2    1    -11.65      0.00
   10   -2    1     -3.90      0.00
   11   -2    1      6.98      0.00
   12   -2    1     -2.87      0.00
   13   -2    1      1.64      0.00
   14   -2    1      1.76      0.00
  -13   -1    1      0.84      0.00
  -12   -1    1     -8.13      0.00
  -11   -1    1     -5.81      0.00
  -10   -1    1     -7.72      0.00
   -9   -1    1    -19.99      0.00
   -8   -1    1     -2.95      0.00
   -7   -1    1     -4.84      0.00
   -6   -1    1     -9.41      0.00
   -5   -1    1     21.37      0.00
   -4   -1    1     26.90      0.00
   -3   -1    1     39.80      0.00
   -2   -1    1     24.21      0.00
   -1   -1    1      4.30      0.00
    1   -1    1      1.44      0.00
    2   -1    1    -60.66      0.00
    3   -1    1     42.92      0.00
    4   -1    1     11.69      0.00
    5   -1    1    -18.96      0.00
    6   -1    1     30.32      0.00
    7   -1    1     10.81      0.00
    8   -1    1      3.25      0.00
    9   -1    1     15.29      0.00
   10   -1    1     -1.92      0.00
   11   -1    1     -2.71      0.00
   12   -1    1     -0.98      0.00
   13   -1    1     -3.41      0.00
  -13    0    1      2.16      0.00
  -12    0    1      7.83      0.00
  -11    0    1      2.62      0.00
  -10    0    1     12.90      0.00
   -9    0    1     11.27      0.00
   -8    0    1      2.10      0.00
   -7    0    1     10.03      0.00
   -6    0    1     -3.59      0.00
   -5    0    1     -9.20      0.00
   -4    0    1    -20.42      0.00
   -3    0    1    -36.70      0.00
   -2    0    1     37.71      0.00
    1    0    1     86.45      0.00
    2    0    1     34.67      0.00
    3    0    1    -50.89      0.00
    4    0    1     13.70      0.00
    5    0    1     -6.53      0.00
    6    0    1    -33.97      0.00
    7    0    1     -7.46      0.00
    8    0    1    -16.05      0.00
    9    0    1    -11.15      0.00
   10    0    1      1.50      0.00
   11    0    1      0.60      0.00
   12    0    1      4.14      0.00
   13    0    1      2.73      0.00
  -14    1    1      0.52      0.00
  -13    1    1     -4.67      0.00
  -12    1    1     -3.08      0.00
  -11    1    1     -5.16      0.00
  -10    1    1    -11.24      0.00
   -9    1    1     -1.82      0.00
   -8    1    1     -7.30      0.00
   -7    1    1     -1.75      0.00
   -6    1    1      7.35      0.00
   -5    1    1     -9.09      0.00
   -4    1    1     27.09      0.00
   -3    1    1     -4.38      0.00
   -2    1    1    -82.76      0.00
   -1    1    1     29.56      0.00
    0    1    1    -10.42      0.00
    1    1    1   -114.02      0.00
    2    1    1      8.31      0.00
    3    1    1     20.83      0.00
    4    1    1    -14.08      0.00
    5    1    1     27.10      0.00
    6    1    1     22.76      0.00
    7    1    1     14.94      0.00
    8    1    1     20.31      0.00
    9    1    1      5.44      0.00
   10    1    1      2.82      0.00
   11    1    1     -1.44      0.00
   12    1    1     -3.55      0.00
   13    1    1     -2.33      0.00
  -14    2    1      1.75      0.00
  -13    2    1      3.01      0.00
  -12    2    1      0.91      0.00
  -11    2    1      9.85      0.00
  -10    2    1      1.52      0.00
   -9    2    1     -0.23      0.00
   -8    2    1      7.89      0.00
   -7    2    1    -13.09      0.00
   -6    2    1      5.54      0.00
   -5    2    1     10.05      0.00
   -4    2    1    -25.45      0.00
   -3    2    1     56.45      0.00
   -2    2    1     66.93      0.00
   -1    2    1    -21.41      0.00
    0    2    1     77.73      0.00
    1    2    1     70.85      0.00
    2    2    1    -14.54      0.00
    3    2    1      6.85      0.00
    4    2    1     -6.90      0.00
    5    2    1    -23.96      0.00
    6    2    1    -15.50      0.00
    7    2    1    -24.18      0.00
    8    2    1    -13.13      0.00
    9    2    1     -4.07      0.00
   10    2    1     -5.43      0.00
   11    2    1      2.52      0.00
   12    2    1      2.50      0.00
  -14    3    1     -2.86      0.00
  -13    3    1      1.45      0.00
  -12    3    1     -6.15      0.00
  -11    3    1     -6.60      0.00
  -10    3    1      8.03      0.00
   -9    3    1     -4.43      0.00
   -8    3    1      3.43      0.00
   -7    3    1     16.67      0.00
   -6    3    1    -17.93      0.00
   -5    3    1      6.14      0.00
   -4    3    1      5.07      0.00
   -3    3    1    -70.44      0.00
   -2    3    1    -26.21      0.00
   -1    3    1    -17.24      0.00
    0    3    1    -74.80      0.00
    1    3    1    -27.26      0.00
    2    3    1     -8.55      0.00
    3    3    1     -3.23      0.00
    4    3    1     18.42      0.00
    5    3    1      8.09      0.00
    6    3    1     19.44      0.00
    7    3    1     22.61      0.00
    8    3    1      2.11      0.00
    9    3    1      6.92      0.00
   10    3    1      3.13      0.00
   11    3    1     -3.87      0.00
   12    3    1     -1.49      0.00
  -14    4    1      0.13      0.00
  -13    4    1     -1.05      0.00
  -12    4    1     10.01      0.00
  -11    4    1     -4.58      0.00
  -10    4    1     -8.03      0.00
   -9    4    1      5.11      0.00
   -8    4    1    -17.54      0.00
   -7    4    1     -6.63      0.00
   -6    4    1     11.93      0.00
   -5    4    1    -18.41      0.00
   -4    4    1     15.85      0.00
   -3    4    1     43.23      0.00
   -2    4    1     10.73      0.00
   -1    4    1     38.04      0.00
    0    4    1     35.59      0.00
    1    4    1     21.52      0.00
    2    4    1     21.66      0.00
    3    4    1    -15.71      0.00
    4    4    1     -7.61      0.00
    5    4    1      0.12      0.00
    6    4    1    -24.55      0.00
    7    4    1     -8.48      0.00
    8    4    1      2.20      0.00
    9    4    1     -7.35      0.00
   10    4    1      3.04      0.00
   11    4    1      4.07      0.00
  -14    5    1      2.69      0.00
  -13    5    1     -4.04      0.00
  -12    5    1     -4.94      0.00
  -11    5    1     11.93      0.00
  -10    5    1      1.05      0.00
   -9    5    1      3.59      0.00
   -8    5    1     20.43      0.00
   -7    5    1     -0.94      0.00
   -6    5    1      6.25      0.00
   -5    5    1     14.63      0.00
   -4    5    1    -17.88      0.00
   -3    5    1    -11.54      0.00
   -2    5    1    -19.52      0.00
   -1    5    1    -25.90      0.00
    0    5    1     -9.46      0.00
    1    5    1    -35.92      0.00
    2    5    1     -9.37      0.00
    3    5    1     21.04      0.00
    4    5    1     -9.99      0.00
    5    5    1      4.41      0.00
    6    5    1     18.31      0.00
    7    5    1     -5.02      0.00
    8    5    1      0.09      0.00
    9    5    1      1.56      0.00
   10    5    1     -7.57      0.00
   11    5    1     -1.49      0.00
  -14    6    1     -1.17      0.00
  -13    6    1      6.17      0.00
  -12    6    1     -2.73      0.00
  -11    6    1     -9.19      0.00
  -10    6    1      1.91      0.00
   -9    6    1    -12.30      0.00
   -8    6    1    -12.69      0.00
   -7    6    1     -3.85      0.00
   -6    6    1    -16.65      0.00
   -5    6    1     -2.77      0.00
   -4    6    1      1.42      0.00
   -3    6    1      1.80      0.00
   -2    6    1     26.70      0.00
   -1    6    1     -1.28      0.00
    0    6    1     11.14      0.00
    1    6    1     38.69      0.00
    2    6    1    -10.42      0.00
    3    6    1     -8.05      0.00
    4    6    1     15.83      0.00
    5    6    1     -9.95      0.00
    6    6    1     -4.09      0.00
    7    6    1      7.49      0.00
    8    6    1     -1.36      0.00
    9    6    1      6.07      0.00
   10    6    1      5.40      0.00
  -14    7    1     -1.77      0.00
  -13    7    1     -4.20      0.00
  -12    7    1      5.40      0.00
  -11    7    1      2.94      0.00
  -10    7    1      1.74      0.00
   -9    7    1     11.51      0.00
   -8    7    1      5.32      0.00
   -7    7    1     13.51      0.00
   -6    7    1      9.73      0.00
   -5    7    1      0.10      0.00
   -4    7    1     15.46      0.00
   -3    7    1    -12.56      0.00
   -2    7    1    -14.72      0.00
   -1    7    1     17.42      0.00
    0    7    1    -24.23      0.00
    1    7    1    -21.83      0.00
    2    7    1     17.15      0.00
    3    7    1     -7.60      0.00
    4    7    1     -8.58      0.00
    5    7    1      7.31      0.00
    6    7    1     -5.54      0.00
    7    7    1     -2.15      0.00
    8    7    1     -2.58      0.00
    9    7    1     -7.43      0.00
  -14    8    1      2.46      0.00
  -13    8    1      1.61      0.00
  -12    8    1     -3.98      0.00
  -11    8    1     -0.45      0.00
  -10    8    1     -5.51      0.00
   -9    8    1     -2.92      0.00
   -8    8    1     -5.78      0.00
   -7    8    1    -14.17      0.00
   -6    8    1      2.53      0.00
   -5    8    1    -10.55      0.00
   -4    8    1    -13.99      0.00
   -3    8    1     21.23      0.00
   -2    8    1     -7.58      0.00
   -1    8    1    -11.87      0.00
    0    8    1     27.06      0.00
    1    8    1      0.71      0.00
    2    8    1     -8.30      0.00
    3    8    1     11.11      0.00
    4    8    1     -0.21      0.00
    5    8    1      0.70      0.00
    6    8    1      4.61      0.00
    7    8    1     -0.31      0.00
    8    8    1      6.53      0.00
    9    8    1      2.94      0.00
  -14    9    1     -1.52      0.00
  -13    9    1      0.68      0.00
  -12    9    1      1.39      0.00
  -11    9    1      2.35      0.00
  -10    9    1      3.78      0.00
   -9    9    1     -3.72      0.00
   -8    9    1     10.20      0.00
   -7    9    1      4.31      0.00
   -6    9    1     -4.62      0.00
   -5    9    1     19.04      0.00
   -4    9    1     -1.47      0.00
   -3    9    1    -13.86      0.00
   -2    9    1     19.23      0.00
   -1    9    1     -2.61      0.00
    0    9    1    -14.47      0.00
    1    9    1      7.65      0.00
    2    9    1     -1.88      0.00
    3    9    1     -2.62      0.00
    4    9    1      1.13      0.00
    5    9    1     -5.20      0.00
    6    9    1      0.87      0.00
    7    9    1     -3.39      0.00
    8    9    1     -4.65      0.00
  -13   10    1     -1.37      0.00
  -12   10    1      0.23      0.00
  -11   10    1     -4.87      0.00
  -10   10    1      2.59      0.00
   -9   10    1      1.74      0.00
   -8   10    1    -10.08      0.00
   -7   10    1      5.69      0.00
   -6   10    1     -3.05      0.00
   -5   10    1    -14.32      0.00
   -4   10    1     12.32      0.00
   -3   10    1     -1.05      0.00
   -2   10    1    -13.82      0.00
   -1   10    1      7.69      0.00
    0   10    1     -1.10      0.00
    1   10    1     -2.74      0.00
    2   10    1     -0.02      0.00
    3   10    1     -4.95      0.00
    4   10    1      4.03      0.00
    5   10    1      1.51      0.00
    6   10    1     -0.94      0.00
    7   10    1      4.83      0.00
  -13   11    1     -0.02      0.00
  -12   11    1      0.98      0.00
  -11   11    1      2.93      0.00
  -10   11    1     -5.93      0.00
   -9   11    1      4.28      0.00
   -8   11    1      3.50      0.00
   -7   11    1     -7.61      0.00
   -6   11    1      9.61      0.00
   -5   11    1      1.29      0.00
   -4   11    1     -9.64      0.00
   -3   11    1      8.66      0.00
   -2   11    1      2.66      0.00
   -1   11    1      0.80      0.00
    0   11    1      5.24      0.00
    1   11    1     -0.64      0.00
    2   11    1      8.39      0.00
    3   11    1      3.03      0.00
    4   11    1     -5.33      0.00
    5   11    1      2.83      0.00
    6   11    1     -1.79      0.00
  -12   12    1     -2.16      0.00
  -11   12    1      1.70      0.00
  -10   12    1      2.48      0.00
   -9   12    1     -5.66      0.00
   -8   12    1      3.72      0.00
   -7   12    1      1.34      0.00
   -6   12    1     -6.20      0.00
   -5   12    1      6.66      0.00
   -4   12    1     -0.05      0.00
   -3   12    1     -4.00      0.00
   -2   12    1     -0.69      0.00
   -1   12    1     -8.68      0.00
    0   12    1     -0.92      0.00
    1   12    1     -2.76      0.00
    2   12    1    -10.38      0.00
    3   12    1      2.47      0.00
    4   12    1      0.96      0.00
  -11   13    1     -2.43      0.00
  -10   13    1      1.83      0.00
   -9   13    1      1.15      0.00
   -8   13    1     -3.71      0.00
   -7   13    1      3.23      0.00
   -6   13    1     -2.41      0.00
   -5   13    1     -3.01      0.00
   -4   13    1      3.92      0.00
   -3   13    1     -2.36      0.00
   -2   13    1      6.12      0.00
   -1   13    1      6.82      0.00
    0   13    1     -2.45      0.00
    1   13    1      5.96      0.00
    2   13    1      4.71      0.00
    3   13    1     -2.87      0.00
  -10   14    1     -1.55      0.00
   -9   14    1      2.13      0.00
   -8   14    1     -1.29      0.00
   -7   14    1     -0.15      0.00
   -6   14    1      4.49      0.00
   -5   14    1     -3.80      0.00
   -4   14    1      0.05      0.00
   -3   14    1      1.45      0.00
   -2   14    1     -7.58      0.00
   -1   14    1     -0.33      0.00
    0   14    1      2.14      0.00
    1   14    1     -4.55      0.00
   -7   15    1     -3.10      0.00
   -6   15    1     -0.26      0.00
   -5   15    1      4.14      0.00
   -4   15    1     -2.93      0.00
   -3   15    1      1.93      0.00
   -2   15    1      3.27      0.00
    0  -15    2     -0.73      0.00
    1  -15    2      1.34      0.00
    2  -15    2     -1.46      0.00
    3  -15    2      1.86      0.00
    4  -15    2     -1.00      0.00
    5  -15    2     -4.90      0.00
    6  -15    2      2.61      0.00
    7  -15    2     -2.59      0.00
    8  -15    2     -5.62      0.00
   -2  -14    2     -1.37      0.00
   -1  -14    2      1.62      0.00
    0  -14    2     -3.49      0.00
    1  -14    2      1.39      0.00
    2  -14    2     -0.20      0.00
    3  -14    2     -5.67      0.00
    4  -14    2      5.34      0.00
    5  -14    2      1.90      0.00
    6  -14    2     -4.66      0.00
    7  -14    2      8.78      0.00
    8  -14    2      3.17      0.00
    9  -14    2     -1.35      0.00
   -4  -13    2     -0.30      0.00
   -3  -13    2      0.79      0.00
   -2  -13    2     -2.04      0.00
   -1  -13    2      3.22      0.00
    0  -13    2      4.89      0.00
    1  -13    2     -4.32      0.00
    2  -13    2      7.77      0.00
    3  -13    2      6.49      0.00
    4  -13    2     -7.35      0.00
    5  -13    2      6.10      0.00
    6  -13    2      0.28      0.00
    7  -13    2    -10.08      0.00
    8  -13    2      2.52      0.00
    9  -13    2     -3.49      0.00
   10  -13    2     -5.38      0.00
   11  -13    2      0.36      0.00
   -5  -12    2      0.18      0.00
   -4  -12    2     -0.41      0.00
   -3  -12    2      3.21      0.00
   -2  -12    2      3.96      0.00
   -1  -12    2    -10.59      0.00
    0  -12    2     -0.20      0.00
    1  -12    2      1.25      0.00
    2  -12    2    -16.78      0.00
    3  -12    2     -2.55      0.00
    4  -12    2      1.03      0.00
    5  -12    2    -10.69      0.00
    6  -12    2      6.23      0.00
    7  -12    2      2.14      0.00
    8  -12    2     -2.37      0.00
    9  -12    2      9.63      0.00
   10  -12    2      3.43      0.00
   11  -12    2     -0.43      0.00
   -7  -11    2     -1.70      0.00
   -6  -11    2     -2.54      0.00
   -5  -11    2     -2.06      0.00
   -3  -11    2    -12.17      0.00
   -2  -11    2      0.57      0.00
   -1  -11    2     11.99      0.00
    0  -11    2     -5.12      0.00
    1  -11    2      8.60      0.00
    2  -11    2     18.65      0.00
    3  -11    2      0.66      0.00
    4  -11    2     10.51      0.00
    5  -11    2      6.49      0.00
    6  -11    2     -4.52      0.00
    7  -11    2      6.45      0.00
    8  -11    2     -4.76      0.00
    9  -11    2     -8.21      0.00
   10  -11    2      0.66      0.00
   11  -11    2     -2.60      0.00
   12  -11    2     -1.20      0.00
   -8  -10    2      0.38      0.00
   -7  -10    2      1.91      0.00
   -6  -10    2      7.48      0.00
   -5  -10    2      0.35      0.00
   -4  -10    2      6.76      0.00
   -3  -10    2     17.10      0.00
   -2  -10    2     -7.58      0.00
   -1  -10    2     -6.21      0.00
    0  -10    2      4.00      0.00
    1  -10    2    -17.42      0.00
    2  -10    2    -11.91      0.00
    3  -10    2     -8.79      0.00
    4  -10    2    -14.97      0.00
    5  -10    2      0.20      0.00
    6  -10    2     -7.47      0.00
    7  -10    2     -5.01      0.00
    8  -10    2      8.67      0.00
    9  -10    2     -1.72      0.00
   10  -10    2      1.03      0.00
   11  -10    2      4.98      0.00
   12  -10    2     -1.42      0.00
   13  -10    2      1.33      0.00
   -9   -9    2     -0.70      0.00
   -8   -9    2      1.50      0.00
   -7   -9    2     -6.25      0.00
   -6   -9    2     -9.24      0.00
   -5   -9    2      1.62      0.00
   -4   -9    2    -16.40      0.00
   -3   -9    2    -13.22      0.00
   -2   -9    2     10.44      0.00
   -1   -9    2     -1.24      0.00
    0   -9    2      4.45      0.00
    1   -9    2     13.05      0.00
    2   -9    2      9.35      0.00
    3   -9    2     20.13      0.00
    4   -9    2      4.53      0.00
    5   -9    2      3.45      0.00
    6   -9    2     16.84      0.00
    7   -9    2     -4.68      0.00
    8   -9    2     -1.17      0.00
    9   -9    2      8.30      0.00
   10   -9    2     -7.46      0.00
   11   -9    2     -0.05      0.00
   12   -9    2      3.01      0.00
   13   -9    2     -1.83      0.00
   -9   -8    2     -0.63      0.00
   -8   -8    2     -2.00      0.00
   -7   -8    2     12.70      0.00
   -6   -8    2      3.72      0.00
   -5   -8    2      2.58      0.00
   -4   -8    2     21.43      0.00
   -3   -8    2      4.75      0.00
   -2   -8    2     -3.57      0.00
   -1   -8    2      0.34      0.00
    0   -8    2     -6.26      0.00
    1   -8    2      0.67      0.00
    2   -8    2    -19.36      0.00
    3   -8    2    -16.11      0.00
    4   -8    2     10.46      0.00
    5   -8    2    -17.11      0.00
    6   -8    2    -10.27      0.00
    7   -8    2     10.93      0.00
    8   -8    2    -11.73      0.00
    9   -8    2     -3.07      0.00
   10   -8    2      6.88      0.00
   11   -8    2     -7.68      0.00
   12   -8    2     -1.58      0.00
   13   -8    2      0.17      0.00
  -10   -7    2     -1.61      0.00
   -9   -7    2      5.04      0.00
   -8   -7    2     -2.88      0.00
   -7   -7    2    -12.28      0.00
   -6   -7    2      1.00      0.00
   -5   -7    2    -11.51      0.00
   -4   -7    2    -17.09      0.00
   -3   -7    2     -5.17      0.00
   -2   -7    2     -4.78      0.00
   -1   -7    2      7.73      0.00
    0   -7    2     -9.65      0.00
    1   -7    2     -5.47      0.00
    2   -7    2     29.46      0.00
    3   -7    2    -10.14      0.00
    4   -7    2    -12.18      0.00
    5   -7    2     22.88      0.00
    6   -7    2     -9.65      0.00
    7   -7    2     -5.31      0.00
    8   -7    2     15.67      0.00
    9   -7    2     -5.13      0.00
   10   -7    2      2.63      0.00
   11   -7    2      9.45      0.00
   12   -7    2      0.77      0.00
   13   -7    2      2.77      0.00
  -11   -6    2     -1.60      0.00
  -10   -6    2     -2.31      0.00
   -9   -6    2     -6.15      0.00
   -8   -6    2      7.93      0.00
   -7   -6    2      4.90      0.00
   -6   -6    2      3.34      0.00
   -5   -6    2     14.90      0.00
   -4   -6    2     10.55      0.00
   -3   -6    2     18.16      0.00
   -2   -6    2     -1.23      0.00
   -1   -6    2     -7.47      0.00
    0   -6    2     33.04      0.00
    1   -6    2     -7.46      0.00
    2   -6    2    -16.93      0.00
    3   -6    2     38.83      0.00
    4   -6    2      0.36      0.00
    5   -6    2     -6.32      0.00
    6   -6    2     24.32      0.00
    7   -6    2     -6.05      0.00
    8   -6    2     -6.67      0.00
    9   -6    2      4.71      0.00
   10   -6    2    -10.48      0.00
   11   -6    2     -6.04      0.00
   12   -6    2     -3.16      0.00
   13   -6    2     -4.77      0.00
   14   -6    2     -1.72      0.00
  -12   -5    2      4.06      0.00
  -11   -5    2      2.70      0.00
  -10   -5    2      7.48      0.00
   -9   -5    2      0.45      0.00
   -8   -5    2     -5.46      0.00
   -7   -5    2     -1.40      0.00
   -6   -5    2    -12.26      0.00
   -5   -5    2     -6.07      0.00
   -4   -5    2    -14.89      0.00
   -3   -5    2    -24.82      0.00
   -2   -5    2     20.51      0.00
   -1   -5    2    -11.51      0.00
    0   -5    2    -39.24      0.00
    1   -5    2     21.73      0.00
    2   -5    2    -19.61      0.00
    3   -5    2    -43.14      0.00
    4   -5    2      3.61      0.00
    5   -5    2    -22.03      0.00
    6   -5    2    -19.89      0.00
    7   -5    2      7.64      0.00
    8   -5    2     -4.45      0.00
    9   -5    2      3.37      0.00
   10   -5    2      9.75      0.00
   11   -5    2      4.50      0.00
   12   -5    2      7.30      0.00
   13   -5    2      3.06      0.00
   14   -5    2      2.06      0.00
  -12   -4    2     -3.20      0.00
  -11   -4    2     -6.94      0.00
  -10   -4    2     -5.35      0.00
   -9   -4    2      4.78      0.00
   -8   -4    2     -1.57      0.00
   -7   -4    2      8.85      0.00
   -6   -4    2     11.46      0.00
   -5   -4    2     -5.44      0.00
   -4   -4    2     26.72      0.00
   -3   -4    2      7.28      0.00
   -2   -4    2    -32.55      0.00
   -1   -4    2     33.03      0.00
    0   -4    2     17.49      0.00
    1   -4    2    -13.56      0.00
    2   -4    2     46.85      0.00
    3   -4    2     26.03      0.00
    4   -4    2     15.05      0.00
    5   -4    2     35.26      0.00
    6   -4    2      7.22      0.00
    7   -4    2      5.39      0.00
    8   -4    2      5.62      0.00
    9   -4    2     -9.35      0.00
   10   -4    2     -4.01      0.00
   11   -4    2     -8.59      0.00
   12   -4    2     -7.81      0.00
   13   -4    2     -0.01      0.00
   14   -4    2     -3.85      0.00
  -13   -3    2      2.50      0.00
  -12   -3    2      3.54      0.00
  -11   -3    2      8.91      0.00
  -10   -3    2     -3.60      0.00
   -9   -3    2     -2.30      0.00
   -8   -3    2      1.84      0.00
   -7   -3    2    -18.57      0.00
   -6   -3    2      3.71      0.00
   -5   -3    2      6.52      0.00
   -4   -3    2    -27.06      0.00
   -3   -3    2     26.32      0.00
   -2   -3    2     27.95      0.00
   -1   -3    2    -24.63      0.00
    0   -3    2      9.95      0.00
    1   -3    2     -9.23      0.00
    2   -3    2    -35.69      0.00
    3   -3    2    -18.85      0.00
    4   -3    2    -41.28      0.00
    5   -3    2    -23.20      0.00
    6   -3    2     -7.72      0.00
    7   -3    2    -19.57      0.00
    8   -3    2      3.66      0.00
    9   -3    2      5.31      0.00
   10   -3    2      2.02      0.00
   11   -3    2     13.42      0.00
   12   -3    2      2.87      0.00
   13   -3    2      0.61      0.00
  -13   -2    2     -0.89      0.00
  -12   -2    2     -6.37      0.00
  -11   -2    2     -3.12      0.00
  -10   -2    2      9.62      0.00
   -9   -2    2     -3.65      0.00
   -8   -2    2      8.46      0.00
   -7   -2    2     15.71      0.00
   -6   -2    2    -19.90      0.00
   -5   -2    2      0.77      0.00
   -4   -2    2      4.97      0.00
   -3   -2    2    -51.35      0.00
   -2   -2    2    -29.83      0.00
   -1   -2    2    -14.52      0.00
    0   -2    2    -16.02      0.00
    1   -2    2     11.70      0.00
    3   -2    2     40.27      0.00
    4   -2    2     45.57      0.00
    5   -2    2      4.26      0.00
    6   -2    2     24.43      0.00
    7   -2    2     17.44      0.00
    8   -2    2    -10.05      0.00
    9   -2    2      4.00      0.00
   10   -2    2     -6.26      0.00
   11   -2    2    -11.78      0.00
   12   -2    2      1.60      0.00
   13   -2    2     -2.54      0.00
  -13   -1    2      1.07      0.00
  -12   -1    2      6.52      0.00
  -11   -1    2     -6.79      0.00
  -10   -1    2     -6.89      0.00
   -9   -1    2      2.47      0.00
   -8   -1    2    -18.24      0.00
   -7   -1    2     -0.61      0.00
   -6   -1    2     22.72      0.00
   -5   -1    2     -1.85      0.00
   -4   -1    2     26.65      0.00
   -3   -1    2     59.56      0.00
   -2   -1    2     55.69      0.00
   -1   -1    2     46.00      0.00
    0   -1    2      0.95      0.00
    1   -1    2     25.56      0.00
    2   -1    2      7.86      0.00
    3   -1    2    -67.40      0.00
    4   -1    2    -19.63      0.00
    5   -1    2     -2.36      0.00
    6   -1    2    -36.19      0.00
    7   -1    2     -0.79      0.00
    8   -1    2      4.43      0.00
    9   -1    2     -7.08      0.00
   10   -1    2     10.52      0.00
   11   -1    2      4.27      0.00
   12   -1    2     -1.99      0.00
   13   -1    2      1.47      0.00
  -14    0    2      0.81      0.00
  -13    0    2     -2.74      0.00
  -12    0    2     -1.26      0.00
  -11    0    2     11.93      0.00
  -10    0    2      0.99      0.00
   -9    0    2      7.32      0.00
   -8    0    2     16.56      0.00
   -7    0    2    -11.54      0.00
   -6    0    2    -13.18      0.00
   -5    0    2    -12.24      0.00
   -4    0    2    -42.59      0.00
   -3    0    2    -61.34      0.00
   -2    0    2    -86.36      0.00
   -1    0    2    -31.38      0.00
    0    0    2      0.99      0.00
    1    0    2    -68.06      0.00
    2    0    2     25.06      0.00
    3    0    2     62.06      0.00
    4    0    2    -10.70      0.00
    5    0    2     17.14      0.00
    6    0    2     24.95      0.00
    7    0    2    -10.94      0.00
    8    0    2      4.59      0.00
    9    0    2      1.24      0.00
   10    0    2     -8.88      0.00
   11    0    2      2.22      0.00
   12    0    2      1.53      0.00
   13    0    2      0.99      0.00
  -14    1    2     -1.10      0.00
  -13    1    2      3.19      0.00
  -12    1    2     -6.27      0.00
  -11    1    2     -7.75      0.00
  -10    1    2     -2.09      0.00
   -9    1    2    -15.45      0.00
   -8    1    2     -6.06      0.00
   -7    1    2      8.71      0.00
   -6    1    2      7.46      0.00
   -5    1    2     28.69      0.00
   -4    1    2     31.94      0.00
   -3    1    2     66.23      0.00
   -2    1    2     83.16      0.00
   -1    1    2    -15.63      0.00
    0    1    2     31.03      0.00
    1    1    2     61.25      0.00
    2    1    2    -58.14      0.00
    3    1    2    -23.96      0.00
    4    1    2     16.55      0.00
    5    1    2    -24.25      0.00
    6    1    2     -1.42      0.00
    7    1    2      8.97      0.00
    8    1    2     -5.20      0.00
    9    1    2      6.58      0.00
   10    1    2      2.40      0.00
   11    1    2     -3.40      0.00
   12    1    2     -2.19      0.00
  -14    2    2     -0.40      0.00
  -13    2    2      0.42      0.00
  -12    2    2      8.27      0.00
  -11    2    2      1.91      0.00
  -10    2    2     10.46      0.00
   -9    2    2     13.05      0.00
   -8    2    2     -0.98      0.00
   -7    2    2      3.44      0.00
   -6    2    2    -15.36      0.00
   -5    2    2    -24.04      0.00
   -4    2    2    -12.13      0.00
   -3    2    2    -69.56      0.00
   -2    2    2    -33.20      0.00
   -1    2    2     35.47      0.00
    1    2    2    -13.86      0.00
    2    2    2     51.80      0.00
    3    2    2     -9.45      0.00
    4    2    2     -3.10      0.00
    5    2    2     10.48      0.00
    6    2    2    -12.33      0.00
    7    2    2     -2.36      0.00
    8    2    2     -4.11      0.00
    9    2    2     -7.83      0.00
   10    2    2      1.79      0.00
   11    2    2      1.44      0.00
   12    2    2      2.04      0.00
  -14    3    2      0.64      0.00
  -13    3    2     -5.79      0.00
  -12    3    2     -2.67      0.00
  -11    3    2     -4.48      0.00
  -10    3    2    -15.68      0.00
   -9    3    2     -2.61      0.00
   -8    3    2     -3.98      0.00
   -7    3    2     -7.04      0.00
   -6    3    2     22.44      0.00
   -5    3    2     -1.00      0.00
   -4    3    2      7.88      0.00
   -3    3    2     53.65      0.00
   -2    3    2    -20.08      0.00
   -1    3    2    -14.77      0.00
    0    3    2     43.26      0.00
    1    3    2    -19.92      0.00
    2    3    2    -18.30      0.00
    3    3    2     13.02      0.00
    4    3    2     -2.53      0.00
    5    3    2     10.66      0.00
    6    3    2      9.93      0.00
    7    3    2      3.56      0.00
    8    3    2     13.60      0.00
    9    3    2      2.69      0.00
   10    3    2     -0.47      0.00
   11    3    2      0.56      0.00
   12    3    2     -1.34      0.00
  -14    4    2      2.63      0.00
  -13    4    2      5.48      0.00
  -12    4    2     -1.36      0.00
  -11    4    2     12.34      0.00
  -10    4    2      9.95      0.00
   -9    4    2     -3.73      0.00
   -8    4    2     13.41      0.00
   -7    4    2     -1.98      0.00
   -6    4    2    -13.14      0.00
   -5    4    2     19.61      0.00
   -4    4    2    -16.37      0.00
   -3    4    2    -19.50      0.00
   -2    4    2     34.54      0.00
   -1    4    2     -5.34      0.00
    0    4    2     -9.60      0.00
    1    4    2     16.16      0.00
    2    4    2     -4.72      0.00
    3    4    2      0.47      0.00
    4    4    2    -10.21      0.00
    5    4    2    -19.54      0.00
    6    4    2     -2.65      0.00
    7    4    2    -13.58      0.00
    8    4    2    -13.00      0.00
    9    4    2      1.18      0.00
   10    4    2     -2.79      0.00
   11    4    2     -0.63      0.00
  -14    5    2     -5.13      0.00
  -13    5    2      0.08      0.00
  -12    5    2     -1.74      0.00
  -11    5    2    -14.69      0.00
  -10    5    2      2.14      0.00
   -9    5    2     -0.58      0.00
   -8    5    2    -13.89      0.00
   -7    5    2     10.40      0.00
   -6    5    2     -4.49      0.00
   -5    5    2    -16.62      0.00
   -4    5    2     17.26      0.00
   -3    5    2     -9.12      0.00
   -2    5    2    -19.53      0.00
   -1    5    2      1.15      0.00
    0    5    2     -9.97      0.00
    1    5    2      5.56      0.00
    2    5    2     -0.25      0.00
    3    5    2     -4.57      0.00
    4    5    2     26.06      0.00
    5    5    2     11.72      0.00
    6    5    2      3.79      0.00
    7    5    2     19.79      0.00
    8    5    2      5.04      0.00
    9    5    2      0.09      0.00
   10    5    2      3.88      0.00
  -14    6    2      2.98      0.00
  -13    6    2     -3.48      0.00
  -12    6    2      7.01      0.00
  -11    6    2      7.48      0.00
  -10    6    2     -8.93      0.00
   -9    6    2      7.59      0.00
   -8    6    2      4.12      0.00
   -7    6    2     -9.04      0.00
   -6    6    2     13.08      0.00
   -5    6    2      2.85      0.00
   -4    6    2     -3.87      0.00
   -3    6    2     15.28      0.00
   -2    6    2      5.30      0.00
   -1    6    2     17.28      0.00
    0    6    2      4.07      0.00
    1    6    2    -13.11      0.00
    2    6    2     16.01      0.00
    3    6    2     -6.76      0.00
    4    6    2    -26.12      0.00
    5    6    2     -0.81      0.00
    6    6    2    -11.17      0.00
    7    6    2    -14.60      0.00
    8    6    2      0.38      0.00
    9    6    2     -3.99      0.00
   10    6    2     -1.16      0.00
  -14    7    2      0.67      0.00
  -13    7    2      2.29      0.00
  -12    7    2     -8.15      0.00
  -11    7    2      2.71      0.00
  -10    7    2      6.41      0.00
   -9    7    2     -7.08      0.00
   -8    7    2      6.14      0.00
   -7    7    2      1.05      0.00
   -6    7    2     -6.36      0.00
   -5    7    2      2.81      0.00
   -4    7    2     -9.98      0.00
   -3    7    2     -2.81      0.00
   -2    7    2     -9.42      0.00
   -1    7    2    -25.83      0.00
    0    7    2     10.55      0.00
    1    7    2     -0.65      0.00
    2    7    2    -19.31      0.00
    3    7    2     17.17      0.00
    4    7    2     11.46      0.00
    5    7    2     -1.17      0.00
    6    7    2     13.98      0.00
    7    7    2      4.21      0.00
    8    7    2      1.39      0.00
    9    7    2      4.54      0.00
  -14    8    2     -2.11      0.00
  -13    8    2      0.43      0.00
  -12    8    2      4.34      0.00
  -11    8    2     -7.25      0.00
  -10    8    2     -0.93      0.00
   -9    8    2     -1.63      0.00
   -8    8    2     -6.79      0.00
   -7    8    2      2.30      0.00
   -6    8    2     -5.05      0.00
   -5    8    2      4.36      0.00
   -4    8    2      8.03      0.00
   -3    8    2     -7.00      0.00
   -2    8    2     23.08      0.00
   -1    8    2     15.56      0.00
    0    8    2    -12.63      0.00
    1    8    2     16.80      0.00
    2    8    2      9.14      0.00
    3    8    2    -13.62      0.00
    4    8    2      1.53      0.00
    5    8    2     -3.65      0.00
    6    8    2     -8.07      0.00
    7    8    2      0.90      0.00
    8    8    2     -4.40      0.00
  -14    9    2      1.50      0.00
  -13    9    2     -1.57      0.00
  -12    9    2      0.62      0.00
  -11    9    2      4.24      0.00
  -10    9    2      0.65      0.00
   -9    9    2      8.48      0.00
   -8    9    2      0.22      0.00
   -7    9    2      3.79      0.00
   -6    9    2      6.95      0.00
   -5    9    2    -11.18      0.00
   -4    9    2      4.94      0.00
   -3    9    2      1.69      0.00
   -2    9    2    -27.38      0.00
   -1    9    2     -0.37      0.00
    0    9    2      1.20      0.00
    1    9    2    -19.51      0.00
    2    9    2     -0.29      0.00
    3    9    2      2.25      0.00
    4    9    2     -2.92      0.00
    5    9    2      5.84      0.00
    6    9    2     -0.36      0.00
    7    9    2      0.85      0.00
  -13   10    2      0.42      0.00
  -12   10    2     -2.28      0.00
  -11   10    2      0.60      0.00
  -10   10    2     -5.77      0.00
   -9   10    2     -5.32      0.00
   -8   10    2      2.24      0.00
   -7   10    2    -11.00      0.00
   -6   10    2      0.79      0.00
   -5   10    2      7.43      0.00
   -4   10    2    -12.38      0.00
   -3   10    2     10.13      0.00
   -2   10    2     18.09      0.00
   -1   10    2     -4.96      0.00
    0   10    2     10.00      0.00
    1   10    2     10.65      0.00
    2   10    2      0.97      0.00
    3   10    2      3.30      0.00
    4   10    2     -2.22      0.00
    5   10    2     -0.84      0.00
    6   10    2      2.27      0.00
  -13   11    2      1.15      0.00
  -12   11    2     -0.05      0.00
  -11   11    2     -0.21      0.00
  -10   11    2      7.43      0.00
   -9   11    2     -2.20      0.00
   -8   11    2      2.36      0.00
   -7   11    2     10.60      0.00
   -6   11    2     -7.63      0.00
   -5   11    2      2.77      0.00
   -4   11    2      7.94      0.00
   -3   11    2    -15.04      0.00
   -2   11    2     -4.89      0.00
   -1   11    2     -0.72      0.00
    0   11    2     -9.08      0.00
    1   11    2     -2.85      0.00
    2   11    2     -4.83      0.00
    3   11    2     -0.12      0.00
    4   11    2      2.80      0.00
    5   11    2     -3.47      0.00
  -12   12    2      1.43      0.00
  -11   12    2     -3.15      0.00
  -10   12    2     -2.29      0.00
   -9   12    2      4.67      0.00
   -8   12    2     -7.28      0.00
   -7   12    2     -2.77      0.00
   -6   12    2      5.34      0.00
   -5   12    2     -8.21      0.00
   -4   12    2      1.32      0.00
   -3   12    2      8.23      0.00
   -2   12    2      0.02      0.00
   -1   12    2      4.74      0.00
    0   12    2      0.53      0.00
    1   12    2      1.70      0.00
    2   12    2      4.62      0.00
    3   12    2     -3.17      0.00
    4   12    2      1.08      0.00
  -11   13    2      2.72      0.00
  -10   13    2     -2.44      0.00
   -9   13    2     -1.25      0.00
   -8   13    2      5.42      0.00
   -7   13    2     -2.84      0.00
   -6   13    2      1.59      0.00
   -5   13    2      4.42      0.00
   -4   13    2     -3.56      0.00
   -3   13    2      0.58      0.00
   -2   13    2     -2.19      0.00
   -1   13    2     -0.79      0.00
    0   13    2      4.24      0.00
    1   13    2     -3.15      0.00
    2   13    2     -1.64      0.00
   -9   14    2     -1.50      0.00
   -8   14    2      0.32      0.00
   -7   14    2      0.89      0.00
   -6   14    2     -3.43      0.00
   -5   14    2      0.62      0.00
   -4   14    2     -1.59      0.00
   -3   14    2     -1.94      0.00
   -2   14    2      2.16      0.00
   -1   14    2     -3.68      0.00
    0   14    2     -2.80      0.00
   -7   15    2      1.89      0.00
   -6   15    2      0.89      0.00
   -5   15    2     -0.44      0.00
   -4   15    2      4.09      0.00
   -3   15    2     -0.21      0.00
    0  -15    3     -0.50      0.00
    1  -15    3     -3.52      0.00
    2  -15    3     -0.35      0.00
    3  -15    3     -1.29      0.00
    4  -15    3      0.02      0.00
    5  -15    3      1.57      0.00
    6  -15    3     -2.62      0.00
    7  -15    3      2.68      0.00
   -2  -14    3      3.84      0.00
   -1  -14    3     -0.11      0.00
    0  -14    3      4.35      0.00
    1  -14    3      2.21      0.00
    2  -14    3      2.39      0.00
    3  -14    3      5.25      0.00
    4  -14    3     -2.30      0.00
    5  -14    3      2.12      0.00
    6  -14    3      4.30      0.00
    7  -14    3     -5.47      0.00
    8  -14    3      2.09      0.00
    9  -14    3      2.48      0.00
   -4  -13    3      3.16      0.00
   -3  -13    3     -2.14      0.00
   -2  -13    3     -2.10      0.00
   -1  -13    3     -3.20      0.00
    0  -13    3     -4.48      0.00
    1  -13    3      0.78      0.00
    2  -13    3     -8.93      0.00
    3  -13    3     -5.40      0.00
    4  -13    3      3.78      0.00
    5  -13    3     -9.47      0.00
    6  -13    3     -1.20      0.00
    7  -13    3      3.96      0.00
    8  -13    3     -7.70      0.00
    9  -13    3      1.31      0.00
   10  -13    3      2.62      0.00
   -6  -12    3     -0.27      0.00
   -5  -12    3     -1.81      0.00
   -4  -12    3     -1.80      0.00
   -3  -12    3      0.73      0.00
   -2  -12    3      0.81      0.00
   -1  -12    3      8.37      0.00
    0  -12    3     -2.64      0.00
    1  -12    3      0.54      0.00
    2  -12    3     14.51      0.00
    3  -12    3     -1.60      0.00
    4  -12    3      0.68      0.00
    5  -12    3     12.85      0.00
    6  -12    3     -4.43      0.00
    7  -12    3      4.21      0.00
    8  -12    3      7.89      0.00
    9  -12    3     -4.68      0.00
   10  -12    3      2.52      0.00
   11  -12    3      4.11      0.00
   -7  -11    3      1.66      0.00
   -6  -11    3      1.37      0.00
   -5  -11    3      1.91      0.00
   -4  -11    3     -0.59      0.00
   -3  -11    3      5.37      0.00
   -2  -11    3     -6.35      0.00
   -1  -11    3     -7.24      0.00
    0  -11    3     10.67      0.00
    1  -11    3     -6.57      0.00
    2  -11    3    -10.28      0.00
    3  -11    3      9.12      0.00
    4  -11    3     -8.61      0.00
    5  -11    3     -6.36      0.00
    6  -11    3      3.94      0.00
    7  -11    3    -12.25      0.00
    8  -11    3     -2.32      0.00
    9  -11    3      0.83      0.00
   10  -11    3     -8.24      0.00
   11  -11    3     -1.98      0.00
   12  -11    3     -0.39      0.00
   -8  -10    3     -1.95      0.00
   -7  -10    3     -2.00      0.00
   -6  -10    3     -3.63      0.00
   -5  -10    3      3.61      0.00
   -4  -10    3     -2.95      0.00
   -3  -10    3     -6.93      0.00
   -2  -10    3     13.86      0.00
   -1  -10    3     -1.96      0.00
    0  -10    3    -13.68      0.00
    1  -10    3      9.47      0.00
    2  -10    3     -4.33      0.00
    3  -10    3     -8.33      0.00
    4  -10    3      8.53      0.00
    5  -10    3     -3.89      0.00
    6  -10    3      5.53      0.00
    7  -10    3     10.25      0.00
    8  -10    3     -0.55      0.00
    9  -10    3      9.07      0.00
   10  -10    3      6.60      0.00
   11  -10    3      0.86      0.00
   12  -10    3      4.78      0.00
   -9   -9    3      2.91      0.00
   -8   -9    3      0.28      0.00
   -7   -9    3      4.95      0.00
   -6   -9    3      0.78      0.00
   -5   -9    3     -8.14      0.00
   -4   -9    3     10.15      0.00
   -3   -9    3      0.49      0.00
   -2   -9    3    -14.67      0.00
   -1   -9    3     15.38      0.00
    0   -9    3     11.27      0.00
    1   -9    3      0.70      0.00
    2   -9    3     15.58      0.00
    3   -9    3      4.56      0.00
    4   -9    3      5.80      0.00
    5   -9    3      3.80      0.00
    6   -9    3    -11.38      0.00
    7   -9    3      0.19      0.00
    8   -9    3     -6.47      0.00
    9   -9    3    -13.63      0.00
   11   -9    3     -6.59      0.00
   12   -9    3     -5.94      0.00
   13   -9    3      1.25      0.00
  -10   -8    3     -3.69      0.00
   -9   -8    3     -0.57      0.00
   -8   -8    3      0.45      0.00
   -7   -8    3     -7.66      0.00
   -6   -8    3      8.27      0.00
   -5   -8    3      5.15      0.00
   -4   -8    3    -13.37      0.00
   -3   -8    3      9.41      0.00
   -2   -8    3      3.79      0.00
   -1   -8    3    -21.84      0.00
    0   -8    3    -13.16      0.00
    1   -8    3    -18.18      0.00
    2   -8    3    -14.32      0.00
    3   -8    3    -13.56      0.00
    4   -8    3    -20.93      0.00
    5   -8    3      6.63      0.00
    6   -8    3      1.92      0.00
    7   -8    3     -5.57      0.00
    8   -8    3     17.58      0.00
    9   -8    3      6.44      0.00
   10   -8    3      0.39      0.00
   11   -8    3     12.23      0.00
   12   -8    3      1.28      0.00
   13   -8    3     -1.02      0.00
  -10   -7    3      4.42      0.00
   -9   -7    3     -4.09      0.00
   -8   -7    3      3.27      0.00
   -7   -7    3      3.25      0.00
   -6   -7    3    -15.76      0.00
   -5   -7    3      2.36      0.00
   -4   -7    3      5.90      0.00
   -3   -7    3    -12.40      0.00
   -2   -7    3      7.09      0.00
   -1   -7    3     17.29      0.00
    0   -7    3     26.63      0.00
    1   -7    3     24.80      0.00
    2   -7    3     10.62      0.00
    3   -7    3     36.46      0.00
    4   -7    3     18.33      0.00
    5   -7    3    -10.87      0.00
    6   -7    3     15.44      0.00
    7   -7    3     -2.72      0.00
    8   -7    3    -19.18      0.00
    9   -7    3      2.91      0.00
   10   -7    3     -7.77      0.00
   11   -7    3     -9.49      0.00
   12   -7    3      2.69      0.00
   13   -7    3     -0.73      0.00
  -11   -6    3     -3.44      0.00
  -10   -6    3     -1.79      0.00
   -9   -6    3      4.11      0.00
   -8   -6    3     -6.78      0.00
   -7   -6    3      7.80      0.00
   -6   -6    3     14.82      0.00
   -5   -6    3     -2.61      0.00
   -4   -6    3      7.88      0.00
   -3   -6    3      6.64      0.00
   -2   -6    3     -0.32      0.00
   -1   -6    3    -14.67      0.00
    0   -6    3    -41.61      0.00
    1   -6    3    -12.00      0.00
    2   -6    3    -20.21      0.00
    3   -6    3    -51.26      0.00
    4   -6    3      0.28      0.00
    5   -6    3     -1.18      0.00
    6   -6    3    -21.82      0.00
    7   -6    3     16.11      0.00
    8   -6    3      8.23      0.00
    9   -6    3     -4.07      0.00
   10   -6    3     11.97      0.00
   11   -6    3      2.08      0.00
   12   -6    3     -2.69      0.00
   13   -6    3      1.99      0.00
  -12   -5    3      0.21      0.00
  -11   -5    3      5.00      0.00
  -10   -5    3     -0.81      0.00
   -9   -5    3      2.37      0.00
   -8   -5    3      2.37      0.00
   -7   -5    3    -15.19      0.00
   -6   -5    3     -9.73      0.00
   -5   -5    3    -11.60      0.00
   -4   -5    3    -13.06      0.00
   -3   -5    3     -7.06      0.00
   -2   -5    3    -19.75      0.00
   -1   -5    3     25.47      0.00
    0   -5    3     36.96      0.00
    1   -5    3     -7.14      0.00
    2   -5    3     40.73      0.00
    3   -5    3     37.44      0.00
    4   -5    3    -13.38      0.00
    5   -5    3     19.01      0.00
    6   -5    3      8.84      0.00
    7   -5    3    -18.26      0.00
    8   -5    3      4.62      0.00
    9   -5    3     -1.20      0.00
   10   -5    3     -7.80      0.00
   11   -5    3      3.18      0.00
   12   -5    3      0.85      0.00
   13   -5    3     -0.61      0.00
  -12   -4    3     -2.27      0.00
  -11   -4    3     -3.49      0.00
  -10   -4    3     -2.16      0.00
   -9   -4    3     -6.16      0.00
   -8   -4    3      7.56      0.00
   -7   -4    3     11.62      0.00
   -6   -4    3     13.96      0.00
   -5   -4    3     27.39      0.00
   -4   -4    3      6.52      0.00
   -3   -4    3     24.45      0.00
   -2   -4    3     30.18      0.00
   -1   -4    3    -38.56      0.00
    0   -4    3     -6.71      0.00
    1   -4    3     10.27      0.00
    2   -4    3    -47.76      0.00
    3   -4    3     -5.16      0.00
    4   -4    3      6.52      0.00
    5   -4    3    -20.68      0.00
    6   -4    3      9.19      0.00
    7   -4    3      5.60      0.00
    8   -4    3     -7.98      0.00
    9   -4    3      4.36      0.00
   10   -4    3     -1.73      0.00
   11   -4    3     -3.43      0.00
   12   -4    3     -1.14      0.00
   13   -4    3     -2.36      0.00
  -13   -3    3      0.09      0.00
  -12   -3    3      3.81      0.00
  -11   -3    3      2.05      0.00
  -10   -3    3      8.24      0.00
   -9   -3    3     -0.11      0.00
   -8   -3    3    -11.48      0.00
   -7   -3    3     -5.01      0.00
   -6   -3    3    -30.00      0.00
   -5   -3    3    -26.36      0.00
   -4   -3    3     -1.84      0.00
   -3   -3    3    -49.18      0.00
   -2   -3    3    -18.74      0.00
   -1   -3    3     32.40      0.00
    0   -3    3    -22.33      0.00
    1   -3    3      2.27      0.00
    2   -3    3     25.66      0.00
    3   -3    3    -13.59      0.00
    4   -3    3      5.80      0.00
    5   -3    3      0.39      0.00
    6   -3    3    -12.08      0.00
    7   -3    3      7.62      0.00
    8   -3    3      0.59      0.00
    9   -3    3      1.93      0.00
   10   -3    3      8.10      0.00
   11   -3    3      1.00      0.00
   12   -3    3      5.47      0.00
   13   -3    3      3.09      0.00
  -13   -2    3     -3.47      0.00
  -12   -2    3     -2.12      0.00
  -11   -2    3     -5.26      0.00
  -10   -2    3     -8.59      0.00
   -9   -2    3     10.41      0.00
   -8   -2    3      4.28      0.00
   -7   -2    3      9.11      0.00
   -6   -2    3     41.57      0.00
   -5   -2    3      8.17      0.00
   -4   -2    3     10.99      0.00
   -3   -2    3     58.01      0.00
   -2   -2    3     -0.65      0.00
   -1   -2    3    -13.06      0.00
    0   -2    3     23.48      0.00
    1   -2    3     -5.96      0.00
    2   -2    3      7.05      0.00
    3   -2    3      6.07      0.00
    4   -2    3      1.91      0.00
    5   -2    3     21.55      0.00
    6   -2    3     -0.92      0.00
    7   -2    3     -4.78      0.00
    8   -2    3      4.64      0.00
    9   -2    3    -13.13      0.00
   10   -2    3     -5.90      0.00
   11   -2    3     -2.04      0.00
   12   -2    3     -9.72      0.00
   13   -2    3     -1.71      0.00
  -13   -1    3      4.70      0.00
  -12   -1    3      0.85      0.00
  -11   -1    3     10.46      0.00
  -10   -1    3      0.28      0.00
   -9   -1    3    -11.99      0.00
   -8   -1    3      4.20      0.00
   -7   -1    3    -22.54      0.00
   -6   -1    3    -33.13      0.00
   -5   -1    3      9.67      0.00
   -4   -1    3    -25.46      0.00
   -3   -1    3    -39.92      0.00
   -2   -1    3     13.08      0.00
   -1   -1    3      5.61      0.00
    0   -1    3     -3.40      0.00
    1   -1    3    -15.20      0.00
    2   -1    3    -16.70      0.00
    3   -1    3      4.69      0.00
    4   -1    3    -30.34      0.00
    5   -1    3    -23.13      0.00
    6   -1    3      9.55      0.00
    7   -1    3    -10.18      0.00
    8   -1    3      2.43      0.00
    9   -1    3     16.52      0.00
   10   -1    3      0.40      0.00
   11   -1    3      8.17      0.00
   12   -1    3      8.94      0.00
   13   -1    3      0.79      0.00
  -14    0    3     -6.02      0.00
  -13    0    3     -1.51      0.00
  -12    0    3     -3.52      0.00
  -11    0    3    -10.77      0.00
  -10    0    3      8.87      0.00
   -9    0    3      2.59      0.00
   -8    0    3     -2.48      0.00
   -7    0    3     29.50      0.00
   -6    0    3      8.28      0.00
   -5    0    3    -12.37      0.00
   -4    0    3     22.79      0.00
   -3    0    3      7.84      0.00
   -2    0    3    -16.99      0.00
   -1    0    3    -22.15      0.00
    0    0    3     -3.98      0.00
    1    0    3     41.92      0.00
    2    0    3     -2.52      0.00
    3    0    3      7.90      0.00
    4    0    3     53.00      0.00
    5    0    3      7.52      0.00
    6    0    3      0.56      0.00
    7    0    3     16.68      0.00
    8    0    3    -12.82      0.00
    9    0    3     -8.98      0.00
   10    0    3     -0.25      0.00
   11    0    3    -12.38      0.00
   12    0    3     -4.42      0.00
  -14    1    3      4.47      0.00
  -13    1    3     -1.73      0.00
  -12    1    3      8.36      0.00
  -11    1    3      3.03      0.00
  -10    1    3     -8.76      0.00
   -9    1    3      5.79      0.00
   -8    1    3     -7.24      0.00
   -7    1    3    -18.74      0.00
   -6    1    3     11.94      0.00
   -5    1    3      7.26      0.00
   -4    1    3      3.28      0.00
   -3    1    3     12.34      0.00
   -2    1    3     21.11      0.00
   -1    1    3     46.96      0.00
    0    1    3    -21.14      0.00
    1    1    3    -39.53      0.00
    2    1    3     19.58      0.00
    3    1    3    -38.76      0.00
    4    1    3    -48.47      0.00
    5    1    3      1.88      0.00
    6    1    3    -17.21      0.00
    7    1    3     -8.57      0.00
    8    1    3     13.54      0.00
    9    1    3     -0.36      0.00
   10    1    3      5.54      0.00
   11    1    3      8.81      0.00
   12    1    3      1.24      0.00
  -14    2    3     -0.14      0.00
  -13    2    3      0.03      0.00
  -12    2    3     -7.83      0.00
  -11    2    3      5.35      0.00
  -10    2    3      1.14      0.00
   -9    2    3     -3.21      0.00
   -8    2    3     12.37      0.00
   -7    2    3     -1.86      0.00
   -6    2    3    -12.55      0.00
   -5    2    3    -13.86      0.00
   -4    2    3    -28.23      0.00
   -3    2    3     -8.76      0.00
   -2    2    3    -38.70      0.00
   -1    2    3    -44.26      0.00
    0    2    3     48.79      0.00
    1    2    3     10.13      0.00
    2    2    3     -9.43      0.00
    3    2    3     58.06      0.00
    4    2    3     26.02      0.00
    5    2    3      5.64      0.00
    6    2    3     21.76      0.00
    7    2    3     -1.87      0.00
    8    2    3     -4.25      0.00
    9    2    3      1.53      0.00
   10    2    3     -7.45      0.00
   11    2    3     -2.45      0.00
   12    2    3     -0.48      0.00
  -14    3    3     -2.02      0.00
  -13    3    3      3.88      0.00
  -12    3    3     -0.56      0.00
  -11    3    3     -5.37      0.00
  -10    3    3      2.98      0.00
   -9    3    3     -6.77      0.00
   -8    3    3     -4.80      0.00
   -7    3    3     11.30      0.00
   -6    3    3      4.96      0.00
   -5    3    3     31.36      0.00
   -4    3    3     25.30      0.00
   -3    3    3      3.60      0.00
   -2    3    3     56.88      0.00
   -1    3    3     11.37      0.00
    0    3    3    -44.35      0.00
    1    3    3     12.71      0.00
    2    3    3    -16.72      0.00
    3    3    3    -47.44      0.00
    4    3    3    -10.94      0.00
    5    3    3    -17.26      0.00
    6    3    3    -11.84      0.00
    7    3    3      3.23      0.00
    8    3    3     -3.64      0.00
    9    3    3      3.66      0.00
   10    3    3      3.27      0.00
   11    3    3     -0.55      0.00
  -14    4    3     -0.04      0.00
  -13    4    3     -1.80      0.00
  -12    4    3      7.28      0.00
  -11    4    3     -0.29      0.00
  -10    4    3      2.34      0.00
   -9    4    3     11.64      0.00
   -8    4    3     -6.92      0.00
   -7    4    3     -2.99      0.00
   -6    4    3     -6.85      0.00
   -5    4    3    -37.84      0.00
   -4    4    3     -3.99      0.00
   -3    4    3    -15.26      0.00
   -2    4    3    -51.07      0.00
   -1    4    3     14.95      0.00
    0    4    3     16.43      0.00
    1    4    3    -10.18      0.00
    2    4    3     28.32      0.00
    3    4    3     20.74      0.00
    4    4    3     12.70      0.00
    5    4    3     16.38      0.00
    6    4    3     -1.16      0.00
    7    4    3      3.21      0.00
    8    4    3      1.35      0.00
    9    4    3     -5.91      0.00
   10    4    3      1.19      0.00
   11    4    3      0.88      0.00
  -14    5    3      1.72      0.00
  -13    5    3     -4.95      0.00
  -12    5    3     -5.54      0.00
  -11    5    3      2.71      0.00
  -10    5    3    -11.93      0.00
   -9    5    3     -5.14      0.00
   -8    5    3      8.35      0.00
   -7    5    3     -8.62      0.00
   -6    5    3     16.01      0.00
   -5    5    3     24.55      0.00
   -4    5    3     -7.64      0.00
   -3    5    3     29.10      0.00
   -2    5    3     26.69      0.00
   -1    5    3    -13.20      0.00
    0    5    3      4.73      0.00
    1    5    3     -5.20      0.00
    2    5    3    -12.91      0.00
    3    5    3     -5.19      0.00
    4    5    3    -18.08      0.00
    5    5    3     -1.27      0.00
    6    5    3      4.57      0.00
    7    5    3     -6.11      0.00
    8    5    3      5.49      0.00
    9    5    3      2.82      0.00
   10    5    3     -2.67      0.00
  -14    6    3      0.36      0.00
  -13    6    3      8.12      0.00
  -12    6    3     -0.74      0.00
  -11    6    3      2.41      0.00
  -10    6    3     14.81      0.00
   -9    6    3     -4.66      0.00
   -8    6    3      1.62      0.00
   -7    6    3     10.15      0.00
   -6    6    3    -19.88      0.00
   -5    6    3     -4.67      0.00
   -4    6    3      1.78      0.00
   -3    6    3    -27.08      0.00
   -2    6    3     -7.71      0.00
   -1    6    3     -4.58      0.00
    0    6    3     -2.81      0.00
    1    6    3      7.66      0.00
    2    6    3     -8.84      0.00
    3    6    3      8.06      0.00
    4    6    3     11.25      0.00
    5    6    3    -12.00      0.00
    6    6    3      0.51      0.00
    7    6    3      0.82      0.00
    8    6    3     -7.64      0.00
    9    6    3      1.43      0.00
  -14    7    3     -3.39      0.00
  -13    7    3     -5.14      0.00
  -12    7    3      3.91      0.00
  -11    7    3     -9.79      0.00
  -10    7    3     -7.59      0.00
   -9    7    3      6.57      0.00
   -8    7    3    -11.72      0.00
   -7    7    3     -1.53      0.00
   -6    7    3     12.19      0.00
   -5    7    3     -5.00      0.00
   -4    7    3      8.04      0.00
   -3    7    3     11.79      0.00
   -2    7    3      7.53      0.00
   -1    7    3     12.72      0.00
    0    7    3     -8.13      0.00
    1    7    3      6.64      0.00
    2    7    3     13.45      0.00
    3    7    3    -13.10      0.00
    4    7    3      3.70      0.00
    5    7    3     11.34      0.00
    6    7    3     -3.61      0.00
    7    7    3      6.37      0.00
    8    7    3      3.68      0.00
    9    7    3     -1.97      0.00
  -14    8    3      3.91      0.00
  -13    8    3      0.15      0.00
  -12    8    3     -1.29      0.00
  -11    8    3     10.87      0.00
  -10    8    3     -1.53      0.00
   -9    8    3      0.83      0.00
   -8    8    3     10.31      0.00
   -7    8    3     -5.08      0.00
   -6    8    3     -0.20      0.00
   -5    8    3      0.40      0.00
   -4    8    3     -6.86      0.00
   -3    8    3     -0.53      0.00
   -2    8    3    -16.07      0.00
   -1    8    3     -3.80      0.00
    0    8    3      8.03      0.00
    1    8    3    -18.49      0.00
    2    8    3     -3.54      0.00
    3    8    3      8.48      0.00
    4    8    3    -11.49      0.00
    5    8    3     -2.96      0.00
    6    8    3     -0.10      0.00
    7    8    3     -7.83      0.00
    8    8    3      0.28      0.00
  -14    9    3     -1.92      0.00
  -13    9    3      2.01      0.00
  -12    9    3     -2.39      0.00
  -11    9    3     -4.93      0.00
  -10    9    3      2.97      0.00
   -9    9    3     -6.71      0.00
   -8    9    3     -0.50      0.00
   -7    9    3      1.61      0.00
   -6    9    3     -3.19      0.00
   -5    9    3      5.89      0.00
   -4    9    3     -3.80      0.00
   -3    9    3      2.07      0.00
   -2    9    3     16.67      0.00
   -1    9    3     -8.10      0.00
    0    9    3      1.50      0.00
    1    9    3     16.34      0.00
    2    9    3     -4.71      0.00
    3    9    3      0.14      0.00
    4    9    3      8.48      0.00
    5    9    3     -1.26      0.00
    6    9    3      5.43      0.00
    7    9    3      3.48      0.00
  -13   10    3     -1.17      0.00
  -12   10    3      2.45      0.00
  -11   10    3     -0.85      0.00
  -10   10    3      2.20      0.00
   -9   10    3      2.69      0.00
   -8   10    3     -4.02      0.00
   -7   10    3      4.57      0.00
   -6   10    3     -2.49      0.00
   -5   10    3     -2.65      0.00
   -4   10    3     11.04      0.00
   -3   10    3     -8.90      0.00
   -2   10    3     -6.44      0.00
   -1   10    3     12.19      0.00
    0   10    3     -8.15      0.00
    1   10    3     -5.89      0.00
    2   10    3      4.16      0.00
    3   10    3     -3.97      0.00
    4   10    3     -2.44      0.00
    5   10    3     -1.72      0.00
    6   10    3     -4.78      0.00
  -12   11    3      0.36      0.00
  -11   11    3      0.58      0.00
  -10   11    3     -3.97      0.00
   -9   11    3      4.17      0.00
   -8   11    3      0.17      0.00
   -7   11    3     -4.80      0.00
   -6   11    3      7.24      0.00
   -5   11    3     -6.48      0.00
   -4   11    3     -8.22      0.00
   -3   11    3     10.35      0.00
   -2   11    3     -6.77      0.00
   -1   11    3     -7.94      0.00
    0   11    3      5.38      0.00
    1   11    3     -1.05      0.00
    2   11    3      0.30      0.00
    3   11    3      1.92      0.00
    4   11    3      0.83      0.00
    5   11    3      3.78      0.00
  -12   12    3     -1.58      0.00
  -11   12    3      2.29      0.00
  -10   12    3      0.16      0.00
   -9   12    3     -5.21      0.00
   -8   12    3      5.06      0.00
   -7   12    3     -0.68      0.00
   -6   12    3     -4.51      0.00
   -5   12    3     10.75      0.00
   -4   12    3      0.35      0.00
   -3   12    3     -2.74      0.00
   -2   12    3     11.15      0.00
   -1   12    3      3.00      0.00
    0   12    3      1.32      0.00
    1   12    3      0.66      0.00
    2   12    3     -1.82      0.00
    3   12    3      0.92      0.00
  -11   13    3     -2.03      0.00
  -10   13    3      2.76      0.00
   -9   13    3      1.09      0.00
   -8   13    3     -5.09      0.00
   -7   13    3      4.34      0.00
   -6   13    3     -1.56      0.00
   -5   13    3     -6.53      0.00
   -4   13    3      2.45      0.00
   -3   13    3     -4.55      0.00
   -2   13    3     -5.61      0.00
   -1   13    3     -2.65      0.00
    0   13    3     -3.56      0.00
    1   13    3      1.43      0.00
    2   13    3     -0.03      0.00
   -9   14    3      2.20      0.00
   -8   14    3      0.97      0.00
   -7   14    3     -2.11      0.00
   -6   14    3      3.37      0.00
   -5   14    3      0.81      0.00
   -4   14    3      0.40      0.00
   -3   14    3      3.07      0.00
   -2   14    3      0.69      0.00
   -1   14    3      3.12      0.00
    0   14    3      1.90      0.00
    0  -15    4     -0.61      0.00
    1  -15    4      3.31      0.00
    2  -15    4     -0.25      0.00
    3  -15    4      1.84      0.00
    4  -15    4      4.14      0.00
    5  -15    4      2.88      0.00
    6  -15    4      4.26      0.00
    7  -15    4      0.68      0.00
   -2  -14    4     -2.76      0.00
   -1  -14    4      4.75      0.00
    0  -14    4     -0.77      0.00
    1  -14    4     -0.91      0.00
    2  -14    4      0.57      0.00
    3  -14    4     -5.39      0.00
    4  -14    4     -3.64      0.00
    5  -14    4     -6.50      0.00
    6  -14    4     -5.91      0.00
    7  -14    4      0.49      0.00
    8  -14    4     -3.56      0.00
    9  -14    4     -1.86      0.00
   -4  -13    4     -2.70      0.00
   -3  -13    4      2.75      0.00
   -2  -13    4     -2.25      0.00
   -1  -13    4     -6.32      0.00
    0  -13    4     -1.24      0.00
    1  -13    4     -4.58      0.00
    2  -13    4      2.60      0.00
    3  -13    4      4.07      0.00
    4  -13    4      1.09      0.00
    5  -13    4     10.71      0.00
    6  -13    4      2.34      0.00
    7  -13    4      0.80      0.00
    8  -13    4      8.08      0.00
    9  -13    4     -0.13      0.00
   10  -13    4     -0.35      0.00
   -6  -12    4     -4.06      0.00
   -5  -12    4      0.36      0.00
   -4  -12    4      1.87      0.00
   -3  -12    4     -0.02      0.00
   -2  -12    4      7.12      0.00
   -1  -12    4      4.54      0.00
    0  -12    4     10.41      0.00
    1  -12    4      6.10      0.00
    2  -12    4     -4.61      0.00
    3  -12    4      5.50      0.00
    4  -12    4     -2.12      0.00
    5  -12    4    -10.50      0.00
    6  -12    4      3.58      0.00
    7  -12    4     -7.73      0.00
    8  -12    4     -8.50      0.00
    9  -12    4      2.79      0.00
   10  -12    4     -3.70      0.00
   11  -12    4     -2.58      0.00
   -7  -11    4      3.15      0.00
   -6  -11    4      3.95      0.00
   -5  -11    4     -0.58      0.00
   -4  -11    4     -0.81      0.00
   -3  -11    4     -7.44      0.00
   -2  -11    4     -3.77      0.00
   -1  -11    4     -8.40      0.00
    0  -11    4    -19.91      0.00
    1  -11    4     -1.80      0.00
    2  -11    4     -2.04      0.00
    3  -11    4    -14.74      0.00
    4  -11    4      7.48      0.00
    5  -11    4      2.81      0.00
    6  -11    4     -3.87      0.00
    7  -11    4     14.09      0.00
    8  -11    4      2.05      0.00
    9  -11    4     -1.10      0.00
   10  -11    4      7.52      0.00
   11  -11    4      0.71      0.00
   -8  -10    4     -1.69      0.00
   -7  -10    4     -4.51      0.00
   -6  -10    4     -2.89      0.00
   -5  -10    4     -3.39      0.00
   -4  -10    4      6.25      0.00
   -3  -10    4      9.50      0.00
   -2  -10    4     -1.43      0.00
   -1  -10    4     19.62      0.00
    0  -10    4     21.49      0.00
    1  -10    4     -2.77      0.00
    2  -10    4     15.43      0.00
    3  -10    4     12.67      0.00
    4  -10    4     -8.79      0.00
    5  -10    4      7.04      0.00
    6  -10    4     -3.45      0.00
    7  -10    4     -9.68      0.00
    8  -10    4      4.18      0.00
    9  -10    4     -4.74      0.00
   10  -10    4     -4.49      0.00
   11  -10    4      1.02      0.00
   12  -10    4     -2.98      0.00
   -9   -9    4      1.15      0.00
   -8   -9    4      5.11      0.00
   -7   -9    4      3.16      0.00
   -6   -9    4      5.63      0.00
   -5   -9    4      4.53      0.00
   -4   -9    4    -14.16      0.00
   -3   -9    4     -2.94      0.00
   -2   -9    4      0.44      0.00
   -1   -9    4    -30.84      0.00
    0   -9    4    -11.96      0.00
    1   -9    4      0.06      0.00
    2   -9    4    -21.39      0.00
    3   -9    4     -3.18      0.00
    4   -9    4     -0.20      0.00
    5   -9    4     -6.86      0.00
    6   -9    4      6.88      0.00
    7   -9    4     -3.03      0.00
    8   -9    4     -1.77      0.00
    9   -9    4      5.28      0.00
   10   -9    4     -4.00      0.00
   11   -9    4      1.70      0.00
   12   -9    4      2.62      0.00
  -10   -8    4     -0.55      0.00
   -9   -8    4     -6.00      0.00
   -8   -8    4     -6.30      0.00
   -7   -8    4     -1.48      0.00
   -6   -8    4    -11.95      0.00
   -5   -8    4      1.30      0.00
   -4   -8    4     16.05      0.00
   -3   -8    4     -8.68      0.00
   -2   -8    4      8.42      0.00
   -1   -8    4     29.53      0.00
    0   -8    4      0.15      0.00
    1   -8    4      5.78      0.00
    2   -8    4     11.78      0.00
    3   -8    4      1.25      0.00
    4   -8    4      7.92      0.00
    5   -8    4     -3.23      0.00
    6   -8    4      2.71      0.00
    7   -8    4      9.55      0.00
    8   -8    4     -4.59      0.00
    9   -8    4      5.16      0.00
   10   -8    4      6.83      0.00
   11   -8    4     -4.92      0.00
   12   -8    4      2.00      0.00
   13   -8    4      0.74      0.00
  -10   -7    4      2.44      0.00
   -9   -7    4     11.19      0.00
   -8   -7    4      2.47      0.00
   -7   -7    4      5.15      0.00
   -6   -7    4     15.63      0.00
   -5   -7    4    -10.33      0.00
   -4   -7    4     -5.83      0.00
   -3   -7    4     15.35      0.00
   -2   -7    4    -15.52      0.00
   -1   -7    4    -14.07      0.00
    0   -7    4      3.43      0.00
    1   -7    4     -0.86      0.00
    2   -7    4      3.15      0.00
    3   -7    4     -8.59      0.00
    4   -7    4      0.76      0.00
    5   -7    4      7.70      0.00
    6   -7    4    -17.39      0.00
    7   -7    4     -3.21      0.00
    8   -7    4      1.54      0.00
    9   -7    4    -16.61      0.00
   10   -7    4     -1.17      0.00
   11   -7    4      1.92      0.00
   12   -7    4     -5.26      0.00
   13   -7    4      1.60      0.00
  -11   -6    4     -0.33      0.00
  -10   -6    4     -6.76      0.00
   -9   -6    4    -10.59      0.00
   -8   -6    4      1.27      0.00
   -7   -6    4    -13.79      0.00
   -6   -6    4    -10.49      0.00
   -5   -6    4     12.92      0.00
   -4   -6    4     -9.57      0.00
   -3   -6    4    -10.02      0.00
   -2   -6    4      8.40      0.00
   -1   -6    4     -0.16      0.00
    0   -6    4     -3.61      0.00
    1   -6    4    -19.77      0.00
    2   -6    4     -7.96      0.00
    3   -6    4      9.07      0.00
    4   -6    4    -20.10      0.00
    5   -6    4      2.95      0.00
    6   -6    4     21.92      0.00
    7   -6    4     -5.46      0.00
    8   -6    4     12.78      0.00
    9   -6    4     17.87      0.00
   10   -6    4     -3.18      0.00
   11   -6    4      5.27      0.00
   12   -6    4      4.44      0.00
   13   -6    4     -3.38      0.00
  -12   -5    4      1.95      0.00
  -11   -5    4      0.53      0.00
  -10   -5    4      9.98      0.00
   -9   -5    4      4.04      0.00
   -8   -5    4      2.49      0.00
   -7   -5    4     17.35      0.00
   -6   -5    4     -0.82      0.00
   -5   -5    4     -4.06      0.00
   -4   -5    4     10.93      0.00
   -3   -5    4      3.41      0.00
   -2   -5    4      9.06      0.00
   -1   -5    4      0.26      0.00
    0   -5    4     15.34      0.00
    1   -5    4     42.52      0.00
    2   -5    4      0.68      0.00
    3   -5    4      8.90      0.00
    4   -5    4     29.45      0.00
    5   -5    4    -19.58      0.00
    6   -5    4    -10.92      0.00
    7   -5    4      2.47      0.00
    8   -5    4    -25.90      0.00
    9   -5    4    -10.89      0.00
   10   -5    4     -0.23      0.00
   11   -5    4     -9.82      0.00
   12   -5    4     -1.19      0.00
   13   -5    4      2.37      0.00
  -12   -4    4     -1.14      0.00
  -11   -4    4     -3.22      0.00
  -10   -4    4     -7.58      0.00
   -9   -4    4     -0.52      0.00
   -8   -4    4     -9.84      0.00
   -7   -4    4     -7.89      0.00
   -6   -4    4      5.46      0.00
   -5   -4    4     -2.58      0.00
   -4   -4    4      5.00      0.00
   -3   -4    4    -10.16      0.00
   -2   -4    4    -17.50      0.00
   -1   -4    4      8.23      0.00
    0   -4    4    -42.56      0.00
    1   -4    4    -46.14      0.00
    2   -4    4      2.81      0.00
    3   -4    4    -34.92      0.00
    4   -4    4    -18.11      0.00
    5   -4    4     22.25      0.00
    6   -4    4     -3.34      0.00
    7   -4    4     11.44      0.00
    8   -4    4     26.22      0.00
    9   -4    4      4.60      0.00
   10   -4    4      7.51      0.00
   11   -4    4      7.56      0.00
   12   -4    4     -0.44      0.00
   13   -4    4      0.76      0.00
  -13   -3    4      2.18      0.00
  -12   -3    4      0.45      0.00
  -11   -3    4      5.63      0.00
  -10   -3    4      2.26      0.00
   -9   -3    4      4.63      0.00
   -8   -3    4      8.43      0.00
   -7   -3    4     -6.23      0.00
   -6   -3    4      0.19      0.00
   -5   -3    4     -9.15      0.00
   -4   -3    4    -18.90      0.00
   -3   -3    4     26.50      0.00
   -2   -3    4      1.85      0.00
   -1   -3    4     -6.63      0.00
    0   -3    4     65.26      0.00
    1   -3    4     29.67      0.00
    2   -3    4     11.56      0.00
    3   -3    4     44.75      0.00
    4   -3    4      1.30      0.00
    5   -3    4     -5.73      0.00
    6   -3    4      4.44      0.00
    7   -3    4    -21.40      0.00
    8   -3    4    -13.74      0.00
    9   -3    4     -5.57      0.00
   10   -3    4     -9.20      0.00
   11   -3    4     -1.56      0.00
   12   -3    4     -1.87      0.00
   13   -3    4     -1.86      0.00
  -13   -2    4     -0.43      0.00
  -12   -2    4     -3.30      0.00
  -11   -2    4     -3.63      0.00
  -10   -2    4     -0.72      0.00
   -9   -2    4     -9.16      0.00
   -8   -2    4      5.06      0.00
   -7   -2    4      9.50      0.00
   -6   -2    4     -1.89      0.00
   -5   -2    4     34.70      0.00
   -4   -2    4     13.33      0.00
   -3   -2    4    -29.05      0.00
   -2   -2    4     25.43      0.00
   -1   -2    4     -9.59      0.00
    0   -2    4    -63.44      0.00
    1   -2    4    -16.85      0.00
    2   -2    4    -32.28      0.00
    3   -2    4    -30.44      0.00
    4   -2    4     -1.72      0.00
    5   -2    4    -10.13      0.00
    6   -2    4      7.41      0.00
    7   -2    4     14.36      0.00
    8   -2    4      2.52      0.00
    9   -2    4      9.73      0.00
   10   -2    4      1.92      0.00
   11   -2    4     -1.04      0.00
   12   -2    4      3.99      0.00
  -13   -1    4      1.62      0.00
  -12   -1    4      5.79      0.00
  -11   -1    4     -1.29      0.00
  -10   -1    4      4.87      0.00
   -9   -1    4      4.60      0.00
   -8   -1    4    -18.03      0.00
   -7   -1    4     -1.42      0.00
   -6   -1    4    -12.89      0.00
   -5   -1    4    -51.89      0.00
   -4   -1    4      4.27      0.00
   -3   -1    4      6.86      0.00
   -2   -1    4    -37.49      0.00
   -1   -1    4     25.53      0.00
    0   -1    4     42.99      0.00
    1   -1    4     24.27      0.00
    2   -1    4     33.17      0.00
    3   -1    4     12.72      0.00
    4   -1    4     17.25      0.00
    5   -1    4      5.85      0.00
    6   -1    4    -14.38      0.00
    7   -1    4      2.67      0.00
    8   -1    4     -3.62      0.00
    9   -1    4     -6.93      0.00
   10   -1    4      7.05      0.00
   11   -1    4     -1.24      0.00
   12   -1    4     -1.35      0.00
  -14    0    4      0.28      0.00
  -13    0    4     -6.11      0.00
  -12    0    4     -3.06      0.00
  -11    0    4      3.13      0.00
  -10    0    4     -9.78      0.00
   -9    0    4      8.22      0.00
   -8    0    4     17.40      0.00
   -7    0    4     -3.39      0.00
   -6    0    4     36.80      0.00
   -5    0    4     43.93      0.00
   -4    0    4    -10.75      0.00
   -3    0    4     19.34      0.00
   -2    0    4     24.73      0.00
   -1    0    4    -24.92      0.00
    0    0    4    -29.36      0.00
    1    0    4    -36.44      0.00
    2    0    4    -10.16      0.00
    3    0    4    -12.59      0.00
    4    0    4    -24.52      0.00
    5    0    4     12.16      0.00
    6    0    4      4.88      0.00
    7    0    4     -9.46      0.00
    8    0    4      8.88      0.00
    9    0    4     -3.64      0.00
   10    0    4     -9.13      0.00
   11    0    4      2.65      0.00
   12    0    4     -3.44      0.00
  -14    1    4      2.15      0.00
  -13    1    4      8.08      0.00
  -12    1    4     -3.14      0.00
  -11    1    4      2.66      0.00
  -10    1    4      7.22      0.00
   -9    1    4    -17.20      0.00
   -8    1    4     -5.79      0.00
   -7    1    4     -5.14      0.00
   -6    1    4    -46.92      0.00
   -5    1    4    -20.34      0.00
   -4    1    4     -0.48      0.00
   -3    1    4    -22.80      0.00
   -2    1    4     -5.39      0.00
   -1    1    4      9.17      0.00
    0    1    4     37.08      0.00
    1    1    4     25.43      0.00
    2    1    4    -12.18      0.00
    3    1    4     25.01      0.00
    4    1    4      9.96      0.00
    5    1    4    -20.82      0.00
    6    1    4      8.75      0.00
    7    1    4      2.22      0.00
    8    1    4     -6.65      0.00
    9    1    4     12.71      0.00
   10    1    4      4.08      0.00
   11    1    4      0.81      0.00
   12    1    4      4.61      0.00
  -14    2    4     -4.85      0.00
  -13    2    4     -4.17      0.00
  -12    2    4      4.15      0.00
  -11    2    4     -9.37      0.00
  -10    2    4      2.37      0.00
   -9    2    4     13.53      0.00
   -8    2    4     -2.98      0.00
   -7    2    4     19.06      0.00
   -6    2    4     31.17      0.00
   -5    2    4      6.52      0.00
   -4    2    4     10.45      0.00
   -3    2    4      3.48      0.00
   -2    2    4      6.55      0.00
   -1    2    4     -3.62      0.00
    0    2    4    -45.01      0.00
    1    2    4      7.52      0.00
    2    2    4     13.50      0.00
    3    2    4    -27.95      0.00
    4    2    4     13.55      0.00
    5    2    4     12.98      0.00
    6    2    4    -10.74      0.00
    7    2    4      6.09      0.00
    8    2    4     -2.61      0.00
    9    2    4    -11.79      0.00
   10    2    4     -0.66      0.00
   11    2    4     -4.43      0.00
  -14    3    4      5.32      0.00
  -13    3    4     -1.29      0.00
  -12    3    4      2.48      0.00
  -11    3    4      6.84      0.00
  -10    3    4     -8.55      0.00
   -9    3    4     -1.71      0.00
   -8    3    4     -0.26      0.00
   -7    3    4    -19.91      0.00
   -6    3    4     -7.29      0.00
   -5    3    4     -9.35      0.00
   -4    3    4     -0.98      0.00
   -3    3    4      9.06      0.00
   -2    3    4    -21.71      0.00
   -1    3    4     17.48      0.00
    0    3    4     28.25      0.00
    1    3    4    -33.77      0.00
    2    3    4     -0.33      0.00
    3    3    4     10.68      0.00
    4    3    4    -24.91      0.00
    5    3    4     -2.37      0.00
    6    3    4      1.60      0.00
    7    3    4     -5.75      0.00
    8    3    4      9.03      0.00
    9    3    4      4.70      0.00
   10    3    4      2.73      0.00
   11    3    4      3.94      0.00
  -14    4    4     -2.53      0.00
  -13    4    4      1.01      0.00
  -12    4    4     -6.49      0.00
  -11    4    4      1.77      0.00
  -10    4    4      4.51      0.00
   -9    4    4     -5.23      0.00
   -8    4    4      8.36      0.00
   -7    4    4      4.47      0.00
   -6    4    4     -0.91      0.00
   -5    4    4     11.16      0.00
   -4    4    4    -18.09      0.00
   -3    4    4      1.44      0.00
   -2    4    4     22.57      0.00
   -1    4    4    -27.75      0.00
    0    4    4      3.39      0.00
    1    4    4     33.93      0.00
    2    4    4     -4.98      0.00
    3    4    4     12.85      0.00
    4    4    4     19.39      0.00
    5    4    4      1.65      0.00
    6    4    4      7.77      0.00
    7    4    4     -1.53      0.00
    8    4    4     -6.42      0.00
    9    4    4     -1.46      0.00
   10    4    4     -4.72      0.00
  -14    5    4     -0.15      0.00
  -13    5    4      2.84      0.00
  -12    5    4      2.16      0.00
  -11    5    4     -5.91      0.00
  -10    5    4      4.67      0.00
   -9    5    4      0.43      0.00
   -8    5    4     -7.54      0.00
   -7    5    4     10.17      0.00
   -6    5    4     -5.89      0.00
   -5    5    4     -0.46      0.00
   -4    5    4     24.77      0.00
   -3    5    4    -16.70      0.00
   -2    5    4     -6.55      0.00
   -1    5    4     19.65      0.00
    0    5    4    -22.12      0.00
    1    5    4    -17.55      0.00
    2    5    4     -6.70      0.00
    3    5    4    -21.23      0.00
    4    5    4     -8.82      0.00
    5    5    4    -10.36      0.00
    6    5    4     -7.43      0.00
    7    5    4      5.62      0.00
    8    5    4      0.33      0.00
    9    5    4      2.50      0.00
   10    5    4      3.57      0.00
  -14    6    4     -0.11      0.00
  -13    6    4     -3.44      0.00
  -12    6    4      5.05      0.00
  -11    6    4      1.24      0.00
  -10    6    4     -7.25      0.00
   -9    6    4      7.74      0.00
   -8    6    4     -2.93      0.00
   -7    6    4    -10.47      0.00
   -6    6    4     11.74      0.00
   -5    6    4    -14.64      0.00
   -4    6    4    -14.93      0.00
   -3    6    4     17.25      0.00
   -2    6    4     -8.18      0.00
   -1    6    4     -3.40      0.00
    0    6    4     16.22      0.00
    1    6    4      8.82      0.00
    2    6    4     19.12      0.00
    3    6    4     10.98      0.00
    4    6    4      6.70      0.00
    5    6    4     15.97      0.00
    6    6    4      0.04      0.00
    7    6    4     -1.85      0.00
    8    6    4      2.53      0.00
    9    6    4     -3.07      0.00
  -14    7    4      1.59      0.00
  -13    7    4     -0.47      0.00
  -12    7    4     -7.55      0.00
  -11    7    4      5.46      0.00
  -10    7    4      0.35      0.00
   -9    7    4     -8.21      0.00
   -8    7    4     11.69      0.00
   -7    7    4     -0.68      0.00
   -6    7    4     -6.46      0.00
   -5    7    4     20.37      0.00
   -4    7    4      1.98      0.00
   -3    7    4     -4.20      0.00
   -2    7    4      9.44      0.00
   -1    7    4     -2.90      0.00
    0    7    4     -1.74      0.00
    1    7    4    -12.95      0.00
    2    7    4    -15.26      0.00
    3    7    4      1.24      0.00
    4    7    4    -12.13      0.00
    5    7    4    -10.48      0.00
    6    7    4      4.00      0.00
    7    7    4     -4.43      0.00
    8    7    4     -1.34      0.00
  -14    8    4     -1.68      0.00
  -13    8    4      4.86      0.00
  -12    8    4      4.02      0.00
  -11    8    4     -5.69      0.00
  -10    8    4      7.42      0.00
   -9    8    4      0.59      0.00
   -8    8    4     -8.72      0.00
   -7    8    4      8.47      0.00
   -6    8    4     -4.75      0.00
   -5    8    4    -13.21      0.00
   -4    8    4      0.04      0.00
   -3    8    4     -7.01      0.00
   -2    8    4     -2.33      0.00
   -1    8    4     -4.41      0.00
    0    8    4     -2.96      0.00
    1    8    4     15.24      0.00
    2    8    4      0.92      0.00
    3    8    4     -2.35      0.00
    4    8    4     13.90      0.00
    5    8    4      0.35      0.00
    6    8    4     -1.09      0.00
    7    8    4      5.78      0.00
  -13    9    4     -5.35      0.00
  -12    9    4     -0.04      0.00
  -11    9    4      0.20      0.00
  -10    9    4     -7.75      0.00
   -9    9    4      5.01      0.00
   -8    9    4     -1.15      0.00
   -7    9    4     -4.38      0.00
   -6    9    4      8.80      0.00
   -5    9    4      4.41      0.00
   -4    9    4      7.48      0.00
   -3    9    4      5.94      0.00
   -2    9    4     -0.09      0.00
   -1    9    4     13.77      0.00
    0    9    4     -1.21      0.00
    1    9    4     -8.96      0.00
    2    9    4      8.10      0.00
    3    9    4     -3.06      0.00
    4    9    4     -8.12      0.00
    5    9    4      4.60      0.00
    6    9    4     -2.96      0.00
  -13   10    4      2.89      0.00
  -12   10    4     -0.64      0.00
  -11   10    4      4.17      0.00
  -10   10    4      1.96      0.00
   -9   10    4     -2.11      0.00
   -8   10    4      4.80      0.00
   -7   10    4     -2.98      0.00
   -6   10    4     -3.60      0.00
   -5   10    4     -3.93      0.00
   -4   10    4    -11.60      0.00
   -3   10    4      1.78      0.00
   -2   10    4     -6.11      0.00
   -1   10    4    -15.45      0.00
    0   10    4      6.18      0.00
    1   10    4      0.08      0.00
    2   10    4     -7.06      0.00
    3   10    4      5.14      0.00
    4   10    4      0.51      0.00
    5   10    4     -2.34      0.00
  -12   11    4     -0.86      0.00
  -11   11    4     -2.79      0.00
  -10   11    4      1.50      0.00
   -9   11    4     -2.67      0.00
   -8   11    4     -0.91      0.00
   -7   11    4      4.17      0.00
   -6   11    4     -2.26      0.00
   -5   11    4      8.48      0.00
   -4   11    4      6.30      0.00
   -3   11    4     -5.24      0.00
   -2   11    4     13.67      0.00
   -1   11    4      7.49      0.00
    0   11    4     -6.17      0.00
    1   11    4      4.33      0.00
    2   11    4      2.53      0.00
    3   11    4     -1.64      0.00
    4   11    4      1.91      0.00
  -11   12    4     -1.04      0.00
  -10   12    4     -0.27      0.00
   -9   12    4      3.30      0.00
   -8   12    4     -3.84      0.00
   -7   12    4      0.74      0.00
   -6   12    4      2.22      0.00
   -5   12    4     -9.39      0.00
   -4   12    4      2.69      0.00
   -3   12    4      1.03      0.00
   -2   12    4    -11.98      0.00
   -1   12    4      1.39      0.00
    0   12    4      1.56      0.00
    1   12    4     -3.16      0.00
    2   12    4     -1.01      0.00
    3   12    4     -1.74      0.00
  -10   13    4     -1.71      0.00
   -9   13    4     -0.50      0.00
   -8   13    4      4.22      0.00
   -7   13    4     -4.89      0.00
   -6   13    4      1.49      0.00
   -5   13    4      4.12      0.00
   -4   13    4     -6.36      0.00
   -3   13    4      3.01      0.00
   -2   13    4      2.96      0.00
   -1   13    4     -2.18      0.00
    0   13    4      1.49      0.00
    1   13    4      0.83      0.00
   -8   14    4     -0.51      0.00
   -7   14    4      3.58      0.00
   -6   14    4     -2.78      0.00
   -5   14    4      1.73      0.00
   -4   14    4      3.65      0.00
   -3   14    4     -1.09      0.00
   -2   14    4      1.35      0.00
    0  -15    5      2.70      0.00
    1  -15    5     -1.60      0.00
    2  -15    5      3.31      0.00
    3  -15    5     -0.48      0.00
    4  -15    5     -5.08      0.00
    5  -15    5     -1.50      0.00
    6  -15    5     -1.96      0.00
   -2  -14    5     -0.94      0.00
   -1  -14    5     -8.55      0.00
    0  -14    5      0.17      0.00
    1  -14    5     -1.07      0.00
    2  -14    5     -6.24      0.00
    3  -14    5      2.94      0.00
    4  -14    5      1.47      0.00
    5  -14    5     -0.35      0.00
    6  -14    5      1.16      0.00
    7  -14    5     -1.25      0.00
    8  -14    5      1.16      0.00
   -4  -13    5      5.02      0.00
   -3  -13    5     -1.32      0.00
   -2  -13    5      5.71      0.00
   -1  -13    5      8.10      0.00
    0  -13    5     -1.74      0.00
    1  -13    5      6.68      0.00
    2  -13    5      4.22      0.00
    3  -13    5     -0.25      0.00
    4  -13    5      5.28      0.00
    5  -13    5      0.15      0.00
    6  -13    5      2.23      0.00
    7  -13    5      0.80      0.00
    8  -13    5     -3.72      0.00
    9  -13    5      1.15      0.00
   -6  -12    5      1.48      0.00
   -5  -12    5     -5.46      0.00
   -4  -12    5     -4.21      0.00
   -3  -12    5      0.86      0.00
   -2  -12    5     -8.16      0.00
   -1  -12    5     -2.12      0.00
    0  -12    5     -3.22      0.00
    1  -12    5     -6.32      0.00
    2  -12    5     -0.70      0.00
    3  -12    5     -8.64      0.00
    4  -12    5     -5.55      0.00
    5  -12    5     -0.58      0.00
    6  -12    5     -7.44      0.00
    7  -12    5      2.75      0.00
    8  -12    5      1.54      0.00
    9  -12    5     -4.73      0.00
   10  -12    5      3.64      0.00
   -7  -11    5     -1.62      0.00
   -6  -11    5      0.81      0.00
   -5  -11    5      6.89      0.00
   -4  -11    5      1.49      0.00
   -3  -11    5      2.89      0.00
   -2  -11    5      1.49      0.00
   -1  -11    5      1.04      0.00
    0  -11    5      7.09      0.00
    1  -11    5     -2.90      0.00
    2  -11    5      2.97      0.00
    3  -11    5     13.78      0.00
    4  -11    5     -1.20      0.00
    5  -11    5      7.11      0.00
    6  -11    5      9.99      0.00
    7  -11    5     -4.83      0.00
    8  -11    5      6.70      0.00
    9  -11    5      3.92      0.00
   10  -11    5     -6.93      0.00
   11  -11    5     -1.04      0.00
   -8  -10    5     -0.07      0.00
   -7  -10    5      1.43      0.00
   -6  -10    5     -3.28      0.00
   -5  -10    5     -3.03      0.00
   -4  -10    5     -3.44      0.00
   -3  -10    5     -0.31      0.00
   -2  -10    5      8.02      0.00
   -1  -10    5     -5.64      0.00
    0  -10    5     -0.54      0.00
    1  -10    5     13.69      0.00
    2  -10    5    -10.82      0.00
    3  -10    5     -7.60      0.00
    4  -10    5      4.17      0.00
    5  -10    5    -17.59      0.00
    6  -10    5     -6.21      0.00
    7  -10    5     -0.99      0.00
    8  -10    5    -13.35      0.00
    9  -10    5      1.25      0.00
   10  -10    5      3.92      0.00
   11  -10    5     -1.71      0.00
   -9   -9    5      0.46      0.00
   -8   -9    5     -1.00      0.00
   -7   -9    5      1.33      0.00
   -6   -9    5      1.20      0.00
   -5   -9    5      0.54      0.00
   -4   -9    5      5.44      0.00
   -3   -9    5    -12.17      0.00
   -2   -9    5    -12.36      0.00
   -1   -9    5      8.28      0.00
    0   -9    5    -17.38      0.00
    1   -9    5    -15.37      0.00
    2   -9    5     14.28      0.00
    3   -9    5     -3.88      0.00
    4   -9    5      3.90      0.00
    5   -9    5     19.49      0.00
    6   -9    5      2.92      0.00
    7   -9    5     11.80      0.00
    8   -9    5     10.65      0.00
    9   -9    5     -2.73      0.00
   10   -9    5      3.18      0.00
   11   -9    5     -0.61      0.00
   12   -9    5     -3.21      0.00
  -10   -8    5     -0.08      0.00
   -9   -8    5      0.89      0.00
   -8   -8    5     -1.02      0.00
   -7   -8    5     -4.05      0.00
   -6   -8    5      4.41      0.00
   -5   -8    5     -3.34      0.00
   -4   -8    5     -0.23      0.00
   -3   -8    5     28.37      0.00
   -2   -8    5      7.45      0.00
   -1   -8    5      0.42      0.00
    0   -8    5     34.65      0.00
    1   -8    5      8.70      0.00
    2   -8    5     -6.24      0.00
    3   -8    5      7.00      0.00
    4   -8    5    -12.36      0.00
    5   -8    5    -10.67      0.00
    6   -8    5     -8.72      0.00
    7   -8    5    -15.63      0.00
    8   -8    5     -2.96      0.00
    9   -8    5     -4.13      0.00
   10   -8    5     -4.00      0.00
   11   -8    5      5.61      0.00
   12   -8    5      1.11      0.00
  -10   -7    5      1.05      0.00
   -9   -7    5     -1.66      0.00
   -8   -7    5      7.90      0.00
   -7   -7    5      1.74      0.00
   -6   -7    5     -6.62      0.00
   -5   -7    5      9.69      0.00
   -4   -7    5    -13.78      0.00
   -3   -7    5    -34.05      0.00
   -2   -7    5      0.01      0.00
   -1   -7    5    -19.91      0.00
    0   -7    5    -37.80      0.00
    1   -7    5     -6.41      0.00
    2   -7    5     -5.25      0.00
    3   -7    5      0.52      0.00
    4   -7    5      7.90      0.00
    5   -7    5      5.84      0.00
    6   -7    5     18.06      0.00
    7   -7    5      6.88      0.00
    8   -7    5      2.40      0.00
    9   -7    5     10.76      0.00
   10   -7    5     -3.71      0.00
   11   -7    5     -4.63      0.00
   12   -7    5      1.59      0.00
  -11   -6    5     -2.20      0.00
  -10   -6    5      0.54      0.00
   -9   -6    5     -2.95      0.00
   -8   -6    5    -13.45      0.00
   -7   -6    5      4.56      0.00
   -6   -6    5     -1.42      0.00
   -5   -6    5    -12.41      0.00
   -4   -6    5     27.34      0.00
   -3   -6    5     22.35      0.00
   -2   -6    5      3.74      0.00
   -1   -6    5     33.83      0.00
    0   -6    5     29.09      0.00
    1   -6    5     14.12      0.00
    2   -6    5      5.75      0.00
    3   -6    5     -5.99      0.00
    4   -6    5      4.07      0.00
    5   -6    5    -13.19      0.00
    6   -6    5    -16.92      0.00
    7   -6    5      4.93      0.00
    8   -6    5    -10.34      0.00
    9   -6    5     -6.67      0.00
   10   -6    5      9.81      0.00
   11   -6    5     -2.18      0.00
   12   -6    5     -1.22      0.00
  -12   -5    5     -0.78      0.00
  -11   -5    5      3.48      0.00
  -10   -5    5     -1.30      0.00
   -9   -5    5     11.65      0.00
   -8   -5    5     10.30      0.00
   -7   -5    5     -4.93      0.00
   -6   -5    5     15.76      0.00
   -5   -5    5      4.71      0.00
   -4   -5    5    -25.02      0.00
   -3   -5    5     -9.10      0.00
   -2   -5    5    -17.00      0.00
   -1   -5    5    -27.54      0.00
    0   -5    5    -22.74      0.00
    1   -5    5    -21.20      0.00
    2   -5    5      7.48      0.00
    3   -5    5     -1.07      0.00
    4   -5    5     -8.49      0.00
    5   -5    5     22.83      0.00
    6   -5    5      0.83      0.00
    7   -5    5     -7.08      0.00
    8   -5    5     14.26      0.00
    9   -5    5     -5.71      0.00
   10   -5    5     -7.51      0.00
   11   -5    5      6.29      0.00
   12   -5    5     -1.66      0.00
  -12   -4    5     -1.97      0.00
  -11   -4    5     -1.90      0.00
  -10   -4    5     -3.32      0.00
   -9   -4    5    -15.14      0.00
   -8   -4    5     -3.38      0.00
   -7   -4    5     -6.01      0.00
   -6   -4    5    -19.87      0.00
   -5   -4    5      3.94      0.00
   -4   -4    5      8.84      0.00
   -3   -4    5     11.67      0.00
   -2   -4    5     20.14      0.00
   -1   -4    5      6.69      0.00
    0   -4    5     28.32      0.00
    1   -4    5     11.50      0.00
    2   -4    5    -19.79      0.00
    3   -4    5     16.19      0.00
    4   -4    5     -1.13      0.00
    5   -4    5    -18.43      0.00
    6   -4    5     16.79      0.00
    7   -4    5      0.82      0.00
    8   -4    5     -5.58      0.00
    9   -4    5     15.20      0.00
   10   -4    5      1.33      0.00
   11   -4    5     -3.07      0.00
   12   -4    5      2.63      0.00
  -13   -3    5     -1.89      0.00
  -12   -3    5      3.61      0.00
  -11   -3    5      1.26      0.00
  -10   -3    5      9.68      0.00
   -9   -3    5     10.38      0.00
   -8   -3    5      3.81      0.00
   -7   -3    5     16.55      0.00
   -6   -3    5      8.60      0.00
   -5   -3    5      1.08      0.00
   -4   -3    5      1.10      0.00
   -3   -3    5    -25.12      0.00
   -2   -3    5      1.09      0.00
   -1   -3    5      3.63      0.00
    0   -3    5    -35.33      0.00
    1   -3    5     14.76      0.00
    2   -3    5     14.90      0.00
    3   -3    5    -21.58      0.00
    4   -3    5     13.61      0.00
    5   -3    5     -0.80      0.00
    6   -3    5    -20.44      0.00
    7   -3    5      2.15      0.00
    8   -3    5    -10.21      0.00
    9   -3    5    -14.25      0.00
   10   -3    5     -0.05      0.00
   11   -3    5     -2.27      0.00
   12   -3    5     -0.36      0.00
  -13   -2    5     -0.18      0.00
  -12   -2    5     -2.12      0.00
  -11   -2    5     -4.47      0.00
  -10   -2    5    -10.84      0.00
   -9   -2    5     -4.70      0.00
   -8   -2    5    -12.01      0.00
   -7   -2    5    -11.82      0.00
   -6   -2    5      1.38      0.00
   -5   -2    5    -16.29      0.00
   -4   -2    5     10.23      0.00
   -3   -2    5     25.77      0.00
   -2   -2    5    -30.17      0.00
   -1   -2    5      8.66      0.00
    0   -2    5     24.45      0.00
    1   -2    5    -35.36      0.00
    2   -2    5      0.40      0.00
    3   -2    5      7.97      0.00
    4   -2    5    -12.30      0.00
    5   -2    5     16.12      0.00
    6   -2    5     11.28      0.00
    7   -2    5      5.82      0.00
    8   -2    5     18.60      0.00
    9   -2    5      7.99      0.00
   10   -2    5      4.55      0.00
   11   -2    5      3.23      0.00
   12   -2    5     -1.36      0.00
  -13   -1    5      0.41      0.00
  -12   -1    5      1.05      0.00
  -11   -1    5      8.30      0.00
  -10   -1    5      5.54      0.00
   -9   -1    5      5.31      0.00
   -8   -1    5     16.09      0.00
   -7   -1    5     -4.67      0.00
   -6   -1    5      4.22      0.00
   -5   -1    5     20.87      0.00
   -4   -1    5    -33.01      0.00
   -3   -1    5     -3.06      0.00
   -2   -1    5     37.45      0.00
   -1   -1    5    -23.80      0.00
    0   -1    5      3.72      0.00
    1   -1    5     33.25      0.00
    2   -1    5     -1.86      0.00
    3   -1    5      9.03      0.00
    4   -1    5     -0.91      0.00
    5   -1    5    -12.97      0.00
    6   -1    5     -4.93      0.00
    7   -1    5    -17.91      0.00
    8   -1    5    -13.54      0.00
    9   -1    5     -6.36      0.00
   10   -1    5     -8.08      0.00
   11   -1    5     -0.08      0.00
   12   -1    5      0.47      0.00
  -14    0    5      0.94      0.00
  -13    0    5      1.50      0.00
  -12    0    5     -3.10      0.00
  -11    0    5     -7.83      0.00
  -10    0    5      1.59      0.00
   -9    0    5    -11.62      0.00
   -8    0    5     -6.64      0.00
   -7    0    5     15.79      0.00
   -6    0    5    -17.69      0.00
   -5    0    5     -1.46      0.00
   -4    0    5     40.28      0.00
   -3    0    5    -22.71      0.00
   -2    0    5    -20.43      0.00
   -1    0    5     16.99      0.00
    0    0    5    -25.07      0.00
    1    0    5    -21.88      0.00
    2    0    5    -16.04      0.00
    3    0    5    -10.45      0.00
    4    0    5      7.73      0.00
    5    0    5     -1.22      0.00
    6    0    5     11.14      0.00
    7    0    5     19.57      0.00
    8    0    5      5.29      0.00
    9    0    5      9.87      0.00
   10    0    5      6.09      0.00
   11    0    5     -2.71      0.00
  -14    1    5     -0.89      0.00
  -13    1    5     -2.35      0.00
  -12    1    5      7.13      0.00
  -11    1    5      0.58      0.00
  -10    1    5     -1.84      0.00
   -9    1    5     13.84      0.00
   -8    1    5    -10.79      0.00
   -7    1    5    -11.65      0.00
   -6    1    5     18.68      0.00
   -5    1    5    -26.05      0.00
   -4    1    5    -23.16      0.00
   -3    1    5     27.73      0.00
   -2    1    5      4.52      0.00
   -1    1    5      7.81      0.00
    0    1    5     23.32      0.00
    1    1    5     25.94      0.00
    2    1    5     31.59      0.00
    3    1    5     -0.75      0.00
    4    1    5      2.23      0.00
    5    1    5      7.21      0.00
    6    1    5    -19.50      0.00
    7    1    5     -9.88      0.00
    8    1    5     -3.23      0.00
    9    1    5    -12.40      0.00
   10    1    5      0.28      0.00
   11    1    5      1.76      0.00
  -14    2    5      2.06      0.00
  -13    2    5     -0.60      0.00
  -12    2    5     -7.32      0.00
  -11    2    5      6.28      0.00
  -10    2    5     -4.99      0.00
   -9    2    5     -4.86      0.00
   -8    2    5     21.09      0.00
   -7    2    5     -0.56      0.00
   -6    2    5     -0.50      0.00
   -5    2    5     33.56      0.00
   -4    2    5      2.55      0.00
   -3    2    5    -13.69      0.00
   -2    2    5    -10.33      0.00
   -1    2    5    -20.29      0.00
    0    2    5    -14.12      0.00
    1    2    5    -43.56      0.00
    2    2    5    -26.47      0.00
    3    2    5      6.23      0.00
    4    2    5    -17.75      0.00
    5    2    5     -0.30      0.00
    6    2    5     17.53      0.00
    7    2    5     -0.33      0.00
    8    2    5      6.67      0.00
    9    2    5      8.31      0.00
   10    2    5     -4.38      0.00
   11    2    5      0.51      0.00
  -14    3    5     -2.45      0.00
  -13    3    5      5.48      0.00
  -12    3    5      1.60      0.00
  -11    3    5     -3.92      0.00
  -10    3    5      8.18      0.00
   -9    3    5     -8.81      0.00
   -8    3    5    -15.35      0.00
   -7    3    5      4.01      0.00
   -6    3    5    -17.97      0.00
   -5    3    5    -18.37      0.00
   -4    3    5     -0.28      0.00
   -3    3    5      4.13      0.00
   -2    3    5     24.81      0.00
   -1    3    5      8.38      0.00
    0    3    5     17.56      0.00
    1    3    5     50.99      0.00
    2    3    5      7.33      0.00
    3    3    5      2.34      0.00
    4    3    5     21.68      0.00
    5    3    5     -8.18      0.00
    6    3    5     -7.16      0.00
    7    3    5      3.21      0.00
    8    3    5     -8.51      0.00
    9    3    5      0.15      0.00
   10    3    5      3.24      0.00
  -14    4    5     -0.25      0.00
  -13    4    5     -5.88      0.00
  -12    4    5      2.19      0.00
  -11    4    5     -3.11      0.00
  -10    4    5     -2.48      0.00
   -9    4    5     13.56      0.00
   -8    4    5      2.49      0.00
   -7    4    5      5.61      0.00
   -6    4    5     17.05      0.00
   -5    4    5      3.98      0.00
   -4    4    5     11.25      0.00
   -3    4    5    -11.19      0.00
   -2    4    5    -22.20      0.00
   -1    4    5      7.53      0.00
    0    4    5    -28.39      0.00
    1    4    5    -36.18      0.00
    2    4    5      5.57      0.00
    3    4    5    -13.56      0.00
    4    4    5    -11.54      0.00
    5    4    5      9.27      0.00
    6    4    5     -2.40      0.00
    7    4    5      0.66      0.00
    8    4    5      3.53      0.00
    9    4    5     -5.03      0.00
   10    4    5     -1.49      0.00
  -14    5    5      3.24      0.00
  -13    5    5      2.27      0.00
  -12    5    5      0.09      0.00
  -11    5    5      5.44      0.00
  -10    5    5     -5.32      0.00
   -9    5    5     -5.40      0.00
   -8    5    5      1.20      0.00
   -7    5    5    -13.81      0.00
   -6    5    5     -2.29      0.00
   -5    5    5     -6.00      0.00
   -4    5    5    -15.46      0.00
   -3    5    5     20.79      0.00
   -2    5    5      3.21      0.00
   -1    5    5    -10.07      0.00
    0    5    5     30.38      0.00
    1    5    5     11.46      0.00
    2    5    5     -3.54      0.00
    3    5    5     13.17      0.00
    4    5    5     -1.84      0.00
    5    5    5     -2.48      0.00
    6    5    5      3.45      0.00
    7    5    5     -3.25      0.00
    8    5    5      3.43      0.00
    9    5    5      4.73      0.00
  -14    6    5     -3.08      0.00
  -13    6    5     -0.31      0.00
  -12    6    5     -4.43      0.00
  -11    6    5     -0.96      0.00
  -10    6    5      5.67      0.00
   -9    6    5     -4.18      0.00
   -8    6    5      5.57      0.00
   -7    6    5      9.41      0.00
   -6    6    5     -7.13      0.00
   -5    6    5     17.02      0.00
   -4    6    5      6.41      0.00
   -3    6    5    -18.05      0.00
   -2    6    5     13.40      0.00
   -1    6    5      1.89      0.00
    0    6    5    -17.85      0.00
    1    6    5      2.68      0.00
    2    6    5     -2.89      0.00
    3    6    5     -1.31      0.00
    4    6    5      5.44      0.00
    5    6    5     -3.72      0.00
    6    6    5      2.04      0.00
    7    6    5      0.45      0.00
    8    6    5     -5.62      0.00
  -14    7    5      1.07      0.00
  -13    7    5      2.19      0.00
  -12    7    5      5.34      0.00
  -11    7    5     -4.27      0.00
  -10    7    5      1.00      0.00
   -9    7    5      4.81      0.00
   -8    7    5    -11.39      0.00
   -7    7    5      2.57      0.00
   -6    7    5      1.82      0.00
   -5    7    5    -20.80      0.00
   -4    7    5      5.28      0.00
   -3    7    5      4.46      0.00
   -2    7    5    -15.52      0.00
   -1    7    5      3.11      0.00
    0    7    5      1.60      0.00
    1    7    5     -1.65      0.00
    2    7    5      1.31      0.00
    3    7    5     -8.23      0.00
    4    7    5      1.11      0.00
    5    7    5      1.36      0.00
    6    7    5     -5.32      0.00
    7    7    5      3.59      0.00
    8    7    5      2.71      0.00
  -14    8    5     -0.04      0.00
  -13    8    5     -4.98      0.00
  -12    8    5     -1.72      0.00
  -11    8    5      4.26      0.00
  -10    8    5     -6.72      0.00
   -9    8    5      2.23      0.00
   -8    8    5      7.87      0.00
   -7    8    5     -8.53      0.00
   -6    8    5      9.07      0.00
   -5    8    5     11.72      0.00
   -4    8    5     -6.97      0.00
   -3    8    5      6.88      0.00
   -2    8    5      7.82      0.00
   -1    8    5      2.46      0.00
    0    8    5      4.54      0.00
    1    8    5     -2.72      0.00
    2    8    5      6.59      0.00
    3    8    5      6.15      0.00
    4    8    5     -5.55      0.00
    5    8    5      5.58      0.00
    6    8    5      2.47      0.00
    7    8    5     -3.70      0.00
  -13    9    5      4.30      0.00
  -12    9    5     -1.76      0.00
  -11    9    5     -0.03      0.00
  -10    9    5      5.90      0.00
   -9    9    5     -7.97      0.00
   -8    9    5      0.77      0.00
   -7    9    5      3.79      0.00
   -6    9    5    -10.78      0.00
   -5    9    5     -0.68      0.00
   -4    9    5     -0.29      0.00
   -3    9    5     -6.29      0.00
   -2    9    5     -3.72      0.00
   -1    9    5     -9.95      0.00
    0    9    5      0.07      0.00
    1    9    5      1.22      0.00
    2    9    5    -11.28      0.00
    3    9    5      1.10      0.00
    4    9    5      1.93      0.00
    5    9    5     -7.65      0.00
    6    9    5      1.72      0.00
  -13   10    5     -1.38      0.00
  -12   10    5      2.04      0.00
  -11   10    5     -3.68      0.00
  -10   10    5      0.14      0.00
   -9   10    5      5.94      0.00
   -8   10    5     -4.48      0.00
   -7   10    5      2.44      0.00
   -6   10    5      3.22      0.00
   -5   10    5     -1.55      0.00
   -4   10    5      4.01      0.00
   -3   10    5     -1.37      0.00
   -2   10    5      6.75      0.00
   -1   10    5      8.97      0.00
    0   10    5     -6.34      0.00
    1   10    5      5.06      0.00
    2   10    5      8.97      0.00
    3   10    5     -3.66      0.00
    4   10    5      3.17      0.00
    5   10    5      3.10      0.00
  -12   11    5      0.02      0.00
  -11   11    5      2.95      0.00
  -10   11    5     -3.54      0.00
   -9   11    5     -0.30      0.00
   -8   11    5      2.07      0.00
   -7   11    5     -3.28      0.00
   -6   11    5      3.18      0.00
   -5   11    5     -1.90      0.00
   -4   11    5      1.32      0.00
   -3   11    5      5.64      0.00
   -2   11    5     -9.84      0.00
   -1   11    5     -0.15      0.00
    0   11    5      5.76      0.00
    1   11    5     -8.85      0.00
    2   11    5     -3.78      0.00
    3   11    5      1.03      0.00
  -11   12    5     -0.05      0.00
  -10   12    5      1.20      0.00
   -9   12    5     -2.88      0.00
   -8   12    5      2.19      0.00
   -7   12    5     -0.37      0.00
   -6   12    5     -2.79      0.00
   -5   12    5      2.59      0.00
   -4   12    5     -8.67      0.00
   -3   12    5     -2.67      0.00
   -2   12    5      6.65      0.00
   -1   12    5     -5.89      0.00
    0   12    5     -0.05      0.00
    1   12    5      6.04      0.00
    2   12    5      0.99      0.00
  -10   13    5      2.37      0.00
   -9   13    5      1.67      0.00
   -8   13    5     -3.47      0.00
   -7   13    5      3.55      0.00
   -6   13    5     -0.95      0.00
   -5   13    5      0.90      0.00
   -4   13    5      9.24      0.00
   -3   13    5     -1.87      0.00
   -2   13    5     -0.45      0.00
   -1   13    5      3.50      0.00
    0   13    5     -2.10      0.00
   -7   14    5     -2.45      0.00
   -6   14    5      2.46      0.00
   -5   14    5     -3.62      0.00
   -4   14    5     -3.54      0.00
   -3   14    5      1.91      0.00
    1  -15    6      1.20      0.00
    2  -15    6     -6.16      0.00
    3  -15    6     -2.48      0.00
    4  -15    6      0.81      0.00
    5  -15    6     -4.58      0.00
   -2  -14    6     -1.03      0.00
   -1  -14    6      5.72      0.00
    0  -14    6     -3.59      0.00
    1  -14    6      2.58      0.00
    2  -14    6     11.11      0.00
    3  -14    6      0.51      0.00
    4  -14    6      5.30      0.00
    5  -14    6      6.80      0.00
    6  -14    6     -1.33      0.00
    7  -14    6      0.63      0.00
   -4  -13    6      0.29      0.00
   -3  -13    6      8.26      0.00
   -2  -13    6     -1.78      0.00
   -1  -13    6     -2.66      0.00
    0  -13    6      6.97      0.00
    1  -13    6     -9.43      0.00
    2  -13    6     -7.83      0.00
    3  -13    6     -1.29      0.00
    4  -13    6    -11.06      0.00
    5  -13    6     -3.70      0.00
    6  -13    6     -0.49      0.00
    7  -13    6     -1.92      0.00
    8  -13    6      1.13      0.00
    9  -13    6     -0.71      0.00
   -5  -12    6      2.35      0.00
   -4  -12    6     -6.37      0.00
   -3  -12    6    -10.98      0.00
   -2  -12    6      3.34      0.00
   -1  -12    6     -5.56      0.00
    0  -12    6     -3.01      0.00
    1  -12    6      8.11      0.00
    2  -12    6      0.76      0.00
    3  -12    6      6.76      0.00
    4  -12    6      8.68      0.00
    5  -12    6      2.10      0.00
    6  -12    6      5.69      0.00
    7  -12    6      0.12      0.00
    8  -12    6      0.85      0.00
    9  -12    6      2.94      0.00
   10  -12    6     -3.61      0.00
   -7  -11    6      2.03      0.00
   -6  -11    6      0.54      0.00
   -5  -11    6      0.29      0.00
   -4  -11    6     12.88      0.00
   -3  -11    6      8.38      0.00
   -2  -11    6      3.41      0.00
   -1  -11    6      8.10      0.00
    0  -11    6     -0.08      0.00
    1  -11    6      2.24      0.00
    2  -11    6     -0.99      0.00
    3  -11    6     -9.41      0.00
    4  -11    6     -1.32      0.00
    5  -11    6     -7.05      0.00
    6  -11    6     -7.13      0.00
    7  -11    6      3.04      0.00
    8  -11    6     -6.94      0.00
    9  -11    6     -1.95      0.00
   10  -11    6      4.31      0.00
   -8  -10    6      0.29      0.00
   -7  -10    6     -3.96      0.00
   -6  -10    6     -0.47      0.00
   -5  -10    6     -6.80      0.00
   -4  -10    6    -12.73      0.00
   -3  -10    6     -9.94      0.00
   -2  -10    6    -11.43      0.00
   -1  -10    6     -2.82      0.00
    0  -10    6     -4.99      0.00
    1  -10    6    -10.01      0.00
    2  -10    6      9.51      0.00
    3  -10    6      3.20      0.00
    4  -10    6     -2.53      0.00
    5  -10    6     13.67      0.00
    6  -10    6     -0.36      0.00
    7  -10    6     -1.32      0.00
    8  -10    6     10.91      0.00
    9  -10    6     -2.91      0.00
   10  -10    6     -0.72      0.00
   11  -10    6      5.22      0.00
   -9   -9    6     -3.81      0.00
   -8   -9    6      2.27      0.00
   -7   -9    6      2.96      0.00
   -6   -9    6      3.90      0.00
   -5   -9    6      9.72      0.00
   -4   -9    6      9.81      0.00
   -3   -9    6     17.52      0.00
   -2   -9    6      9.87      0.00
   -1   -9    6     -4.15      0.00
    0   -9    6     16.57      0.00
    1   -9    6      4.64      0.00
    2   -9    6    -15.20      0.00
    3   -9    6      8.74      0.00
    4   -9    6     -1.66      0.00
    5   -9    6    -10.81      0.00
    6   -9    6      9.18      0.00
    7   -9    6     -4.67      0.00
    8   -9    6     -5.97      0.00
    9   -9    6      5.48      0.00
   10   -9    6     -4.75      0.00
   11   -9    6     -3.02      0.00
  -10   -8    6      4.43      0.00
   -9   -8    6      1.83      0.00
   -8   -8    6     -2.22      0.00
   -7   -8    6     -1.98      0.00
   -6   -8    6     -8.81      0.00
   -5   -8    6     -4.83      0.00
   -4   -8    6    -10.26      0.00
   -3   -8    6    -22.91      0.00
   -2   -8    6      5.09      0.00
   -1   -8    6      2.80      0.00
    0   -8    6    -23.47      0.00
    1   -8    6     10.65      0.00
    2   -8    6      8.58      0.00
    3   -8    6    -14.86      0.00
    4   -8    6      6.47      0.00
    5   -8    6     -2.11      0.00
    6   -8    6     -9.49      0.00
    7   -8    6      5.20      0.00
    8   -8    6     -3.33      0.00
    9   -8    6     -0.94      0.00
   10   -8    6      5.37      0.00
   11   -8    6     -0.73      0.00
   12   -8    6      1.50      0.00
  -10   -7    6     -4.86      0.00
   -9   -7    6      1.03      0.00
   -8   -7    6     -1.94      0.00
   -7   -7    6      5.70      0.00
   -6   -7    6      8.16      0.00
   -5   -7    6     -4.56      0.00
   -4   -7    6     16.33      0.00
   -3   -7    6     14.88      0.00
   -2   -7    6    -22.25      0.00
   -1   -7    6      8.21      0.00
    0   -7    6     14.05      0.00
    1   -7    6    -20.53      0.00
    2   -7    6      3.96      0.00
    3   -7    6     10.13      0.00
    4   -7    6     -0.71      0.00
    5   -7    6     12.38      0.00
    6   -7    6      5.64      0.00
    7   -7    6      4.43      0.00
    8   -7    6      5.47      0.00
    9   -7    6     -4.30      0.00
   10   -7    6      0.12      0.00
   11   -7    6     -1.25      0.00
   12   -7    6     -4.69      0.00
  -11   -6    6      6.41      0.00
  -10   -6    6      0.86      0.00
   -9   -6    6      1.00      0.00
   -8   -6    6      3.90      0.00
   -7   -6    6    -12.06      0.00
   -6   -6    6      1.69      0.00
   -5   -6    6      8.23      0.00
   -4   -6    6    -22.04      0.00
   -3   -6    6      7.55      0.00
   -2   -6    6     24.95      0.00
   -1   -6    6    -12.98      0.00
    0   -6    6      6.49      0.00
    1   -6    6     16.32      0.00
    2   -6    6     -7.82      0.00
    3   -6    6     -5.58      0.00
    4   -6    6    -13.23      0.00
    5   -6    6    -12.77      0.00
    6   -6    6     -9.40      0.00
    7   -6    6    -15.29      0.00
    8   -6    6      0.59      0.00
    9   -6    6      1.00      0.00
   10   -6    6     -3.65      0.00
   11   -6    6      7.72      0.00
   12   -6    6      3.70      0.00
  -12   -5    6     -4.30      0.00
  -11   -5    6     -5.48      0.00
  -10   -5    6      2.46      0.00
   -9   -5    6     -6.48      0.00
   -8   -5    6      2.59      0.00
   -7   -5    6     12.66      0.00
   -6   -5    6    -13.31      0.00
   -5   -5    6      1.01      0.00
   -4   -5    6     14.30      0.00
   -3   -5    6    -26.64      0.00
   -2   -5    6    -16.06      0.00
   -1   -5    6     -0.67      0.00
    0   -5    6    -19.14      0.00
    1   -5    6     -6.63      0.00
    2   -5    6      0.19      0.00
    3   -5    6     12.68      0.00
    4   -5    6     22.19      0.00
    5   -5    6      8.94      0.00
    6   -5    6     22.83      0.00
    7   -5    6     15.65      0.00
    8   -5    6     -3.86      0.00
    9   -5    6      7.99      0.00
   10   -5    6     -0.37      0.00
   11   -5    6     -9.95      0.00
   12   -5    6      0.27      0.00
  -12   -4    6      5.98      0.00
  -11   -4    6      0.54      0.00
  -10   -4    6     -0.27      0.00
   -9   -4    6      5.84      0.00
   -8   -4    6    -12.04      0.00
   -7   -4    6     -4.62      0.00
   -6   -4    6     12.33      0.00
   -5   -4    6    -10.78      0.00
   -4   -4    6      5.01      0.00
   -3   -4    6     27.33      0.00
   -2   -4    6     14.29      0.00
   -1   -4    6     22.17      0.00
    0   -4    6     12.57      0.00
    1   -4    6      7.74      0.00
    2   -4    6      6.34      0.00
    3   -4    6    -27.29      0.00
    4   -4    6    -16.50      0.00
    5   -4    6    -11.56      0.00
    6   -4    6    -32.52      0.00
    7   -4    6     -6.49      0.00
    8   -4    6     -1.15      0.00
    9   -4    6    -11.97      0.00
   10   -4    6      6.76      0.00
   11   -4    6      4.84      0.00
   12   -4    6     -1.67      0.00
  -13   -3    6     -1.74      0.00
  -12   -3    6     -4.70      0.00
  -11   -3    6      3.08      0.00
  -10   -3    6     -2.76      0.00
   -9   -3    6      2.86      0.00
   -8   -3    6     14.18      0.00
   -7   -3    6     -2.23      0.00
   -6   -3    6      0.87      0.00
   -5   -3    6      5.39      0.00
   -4   -3    6    -16.59      0.00
   -3   -3    6    -15.46      0.00
   -2   -3    6    -30.29      0.00
   -1   -3    6    -27.00      0.00
    0   -3    6      0.29      0.00
    1   -3    6    -23.34      0.00
    2   -3    6      1.19      0.00
    3   -3    6     31.74      0.00
    4   -3    6      2.83      0.00
    5   -3    6     20.87      0.00
    6   -3    6     26.36      0.00
    7   -3    6     -2.10      0.00
    8   -3    6      8.84      0.00
    9   -3    6      6.44      0.00
   10   -3    6     -7.33      0.00
   11   -3    6      0.63      0.00
   12   -3    6     -0.01      0.00
  -13   -2    6      3.34      0.00
  -12   -2    6      0.45      0.00
  -11   -2    6     -2.56      0.00
  -10   -2    6      0.46      0.00
   -9   -2    6    -10.81      0.00
   -8   -2    6     -8.26      0.00
   -7   -2    6     -2.41      0.00
   -6   -2    6     -8.70      0.00
   -5   -2    6      9.38      0.00
   -4   -2    6      6.91      0.00
   -3   -2    6     13.24      0.00
   -2   -2    6     49.47      0.00
   -1   -2    6      8.08      0.00
    0   -2    6      3.62      0.00
    1   -2    6     35.66      0.00
    2   -2    6    -16.86      0.00
    3   -2    6    -17.02      0.00
    4   -2    6      2.75      0.00
    5   -2    6    -24.32      0.00
    6   -2    6     -8.85      0.00
    7   -2    6      2.64      0.00
    8   -2    6     -9.97      0.00
    9   -2    6      1.67      0.00
   10   -2    6      3.27      0.00
   11   -2    6     -1.38      0.00
   12   -2    6      0.80      0.00
  -13   -1    6     -2.81      0.00
  -12   -1    6      2.51      0.00
  -11   -1    6      0.97      0.00
  -10   -1    6      5.64      0.00
   -9   -1    6     10.65      0.00
   -8   -1    6      3.90      0.00
   -7   -1    6     13.88      0.00
   -6   -1    6      0.61      0.00
   -5   -1    6    -13.33      0.00
   -4   -1    6     12.23      0.00
   -3   -1    6    -32.05      0.00
   -2   -1    6    -46.76      0.00
   -1   -1    6     11.73      0.00
    0   -1    6    -24.56      0.00
    1   -1    6    -27.53      0.00
    2   -1    6     20.57      0.00
    3   -1    6     -2.09      0.00
    4   -1    6      2.50      0.00
    5   -1    6     14.01      0.00
    6   -1    6     -4.63      0.00
    7   -1    6      1.97      0.00
    8   -1    6      2.18      0.00
    9   -1    6     -4.75      0.00
   10   -1    6     -0.69      0.00
   11   -1    6     -0.28      0.00
  -14    0    6      1.71      0.00
  -13    0    6      0.08      0.00
  -12    0    6     -1.83      0.00
  -11    0    6     -1.30      0.00
  -10    0    6    -10.61      0.00
   -9    0    6     -3.43      0.00
   -8    0    6     -9.27      0.00
   -7    0    6    -17.36      0.00
   -6    0    6     14.34      0.00
   -5    0    6     -2.55      0.00
   -4    0    6    -13.71      0.00
   -3    0    6     51.94      0.00
   -2    0    6     21.21      0.00
   -1    0    6     -9.67      0.00
    0    0    6     37.03      0.00
    1    0    6      8.38      0.00
    2    0    6     -7.47      0.00
    3    0    6      6.73      0.00
    4    0    6     -6.14      0.00
    5    0    6      2.75      0.00
    6    0    6      4.61      0.00
    7    0    6     -0.87      0.00
    8    0    6      6.49      0.00
    9    0    6      3.24      0.00
   10    0    6      1.02      0.00
   11    0    6      1.67      0.00
  -14    1    6     -0.88      0.00
  -13    1    6      1.82      0.00
  -12    1    6     -1.87      0.00
  -11    1    6      5.96      0.00
  -10    1    6      8.24      0.00
   -9    1    6     -0.73      0.00
   -8    1    6     18.69      0.00
   -7    1    6      5.68      0.00
   -6    1    6    -18.13      0.00
   -5    1    6     21.67      0.00
   -4    1    6     -7.17      0.00
   -3    1    6    -47.58      0.00
   -2    1    6      2.81      0.00
   -1    1    6     -7.01      0.00
    0    1    6    -24.82      0.00
    1    1    6     -0.65      0.00
    2    1    6     -4.53      0.00
    3    1    6      2.58      0.00
    4    1    6     -1.47      0.00
    5    1    6    -10.45      0.00
    6    1    6      0.55      0.00
    7    1    6     -7.82      0.00
    8    1    6     -9.04      0.00
    9    1    6     -0.44      0.00
   10    1    6     -3.88      0.00
   11    1    6     -1.40      0.00
  -14    2    6     -1.10      0.00
  -13    2    6     -0.01      0.00
  -12    2    6      2.92      0.00
  -11    2    6    -10.26      0.00
  -10    2    6     -0.03      0.00
   -9    2    6     -4.38      0.00
   -8    2    6    -18.91      0.00
   -7    2    6     11.44      0.00
   -6    2    6      4.70      0.00
   -5    2    6    -21.56      0.00
   -4    2    6     24.93      0.00
   -3    2    6     21.82      0.00
   -2    2    6     -6.42      0.00
   -1    2    6     10.99      0.00
    0    2    6      3.98      0.00
    1    2    6      6.70      0.00
    2    2    6     -0.36      0.00
    3    2    6     -9.48      0.00
    4    2    6     13.13      0.00
    5    2    6      5.13      0.00
    6    2    6      0.85      0.00
    7    2    6     15.58      0.00
    8    2    6      5.18      0.00
    9    2    6      1.15      0.00
   10    2    6      6.15      0.00
  -14    3    6      2.32      0.00
  -13    3    6     -3.87      0.00
  -12    3    6      1.90      0.00
  -11    3    6      6.55      0.00
  -10    3    6     -4.10      0.00
   -9    3    6     11.51      0.00
   -8    3    6      6.35      0.00
   -7    3    6    -16.26      0.00
   -6    3    6     10.04      0.00
   -5    3    6      4.77      0.00
   -4    3    6    -19.44      0.00
   -3    3    6     -0.63      0.00
   -2    3    6     -0.47      0.00
   -1    3    6      5.33      0.00
    0    3    6      3.17      0.00
    1    3    6     -9.41      0.00
    2    3    6     16.29      0.00
    3    3    6      4.33      0.00
    4    3    6    -15.28      0.00
    5    3    6      2.74      0.00
    6    3    6     -8.14      0.00
    7    3    6    -15.43      0.00
    8    3    6     -0.79      0.00
    9    3    6     -5.85      0.00
   10    3    6     -4.42      0.00
  -14    4    6     -0.77      0.00
  -13    4    6      3.45      0.00
  -12    4    6     -5.25      0.00
  -11    4    6      1.27      0.00
  -10    4    6      0.93      0.00
   -9    4    6    -10.80      0.00
   -8    4    6      6.89      0.00
   -7    4    6      5.73      0.00
   -6    4    6     -9.15      0.00
   -5    4    6      6.42      0.00
   -4    4    6      0.43      0.00
   -3    4    6     -0.61      0.00
   -2    4    6     -2.82      0.00
   -1    4    6    -21.52      0.00
    0    4    6      2.68      0.00
    1    4    6     -1.34      0.00
    2    4    6    -25.02      0.00
    3    4    6      5.03      0.00
    4    4    6      6.48      0.00
    5    4    6     -4.21      0.00
    6    4    6     13.68      0.00
    7    4    6      7.89      0.00
    8    4    6      1.78      0.00
    9    4    6      7.66      0.00
  -14    5    6     -1.17      0.00
  -13    5    6      0.63      0.00
  -12    5    6      2.78      0.00
  -11    5    6     -4.83      0.00
  -10    5    6      3.80      0.00
   -9    5    6      2.31      0.00
   -8    5    6     -7.85      0.00
   -7    5    6      4.29      0.00
   -6    5    6     -2.52      0.00
   -5    5    6     -0.87      0.00
   -4    5    6      8.59      0.00
   -3    5    6     -6.92      0.00
   -2    5    6     16.50      0.00
   -1    5    6     21.86      0.00
    0    5    6     -7.02      0.00
    1    5    6     17.03      0.00
    2    5    6     18.64      0.00
    3    5    6     -6.94      0.00
    4    5    6      3.95      0.00
    5    5    6     -1.31      0.00
    6    5    6    -10.91      0.00
    7    5    6     -0.89      0.00
    8    5    6     -4.54      0.00
  -14    6    6      0.84      0.00
  -13    6    6     -2.87      0.00
  -12    6    6      1.49      0.00
  -11    6    6      1.80      0.00
  -10    6    6     -3.63      0.00
   -9    6    6      4.64      0.00
   -8    6    6     -0.51      0.00
   -7    6    6     -2.34      0.00
   -6    6    6      8.75      0.00
   -5    6    6    -10.49      0.00
   -4    6    6     -0.26      0.00
   -3    6    6      6.75      0.00
   -2    6    6    -26.44      0.00
   -1    6    6    -10.05      0.00
    0    6    6      1.39      0.00
    1    6    6    -22.25      0.00
    2    6    6     -6.53      0.00
    3    6    6     -0.24      0.00
    4    6    6     -5.99      0.00
    5    6    6      5.81      0.00
    6    6    6      2.31      0.00
    7    6    6     -0.60      0.00
    8    6    6      3.91      0.00
  -14    7    6      0.67      0.00
  -13    7    6      1.41      0.00
  -12    7    6     -2.17      0.00
  -11    7    6      2.95      0.00
  -10    7    6     -1.18      0.00
   -9    7    6     -4.00      0.00
   -8    7    6      6.40      0.00
   -7    7    6     -7.06      0.00
   -6    7    6     -3.18      0.00
   -5    7    6     11.43      0.00
   -4    7    6    -11.74      0.00
   -3    7    6      3.07      0.00
   -2    7    6     23.06      0.00
   -1    7    6     -0.12      0.00
    0    7    6      7.60      0.00
    1    7    6     13.74      0.00
    2    7    6      1.96      0.00
    3    7    6      7.02      0.00
    4    7    6      0.12      0.00
    5    7    6     -2.63      0.00
    6    7    6      2.82      0.00
    7    7    6     -1.00      0.00
  -13    8    6      1.08      0.00
  -12    8    6     -1.36      0.00
  -11    8    6     -3.58      0.00
  -10    8    6      5.32      0.00
   -9    8    6     -2.32      0.00
   -8    8    6     -2.71      0.00
   -7    8    6     11.87      0.00
   -6    8    6     -5.13      0.00
   -5    8    6     -0.75      0.00
   -4    8    6     12.69      0.00
   -3    8    6    -10.74      0.00
   -2    8    6     -9.89      0.00
   -1    8    6      0.64      0.00
    0    8    6     -8.10      0.00
    1    8    6     -3.56      0.00
    2    8    6     -6.02      0.00
    3    8    6     -4.91      0.00
    4    8    6      3.50      0.00
    5    8    6     -3.23      0.00
    6    8    6     -0.93      0.00
  -13    9    6     -0.85      0.00
  -12    9    6      3.98      0.00
  -11    9    6      0.19      0.00
  -10    9    6     -4.22      0.00
   -9    9    6      6.69      0.00
   -8    9    6     -6.27      0.00
   -7    9    6     -7.20      0.00
   -6    9    6      5.39      0.00
   -5    9    6     -8.43      0.00
   -4    9    6     -5.04      0.00
   -3    9    6      6.53      0.00
   -2    9    6      0.25      0.00
   -1    9    6      2.15      0.00
    0    9    6      0.65      0.00
    1    9    6      1.88      0.00
    2    9    6      8.88      0.00
    3    9    6     -1.96      0.00
    4    9    6     -0.96      0.00
    5    9    6      3.75      0.00
  -12   10    6     -3.16      0.00
  -11   10    6      3.15      0.00
  -10   10    6     -1.30      0.00
   -9   10    6     -3.16      0.00
   -8   10    6      9.71      0.00
   -7   10    6      0.07      0.00
   -6   10    6      0.77      0.00
   -5   10    6      8.23      0.00
   -4   10    6      1.64      0.00
   -3   10    6      2.71      0.00
   -2   10    6     -0.24      0.00
   -1   10    6     -0.66      0.00
    0   10    6      5.08      0.00
    1   10    6     -6.06      0.00
    2   10    6     -4.92      0.00
    3   10    6      4.78      0.00
    4   10    6     -1.82      0.00
  -12   11    6      0.58      0.00
  -11   11    6     -2.53      0.00
  -10   11    6      3.75      0.00
   -9   11    6     -2.96      0.00
   -8   11    6     -5.18      0.00
   -7   11    6      2.43      0.00
   -6   11    6     -5.24      0.00
   -5   11    6     -3.75      0.00
   -4   11    6     -4.96      0.00
   -3   11    6     -4.91      0.00
   -2   11    6      4.05      0.00
   -1   11    6     -4.07      0.00
    0   11    6     -3.64      0.00
    1   11    6      7.26      0.00
    2   11    6     -0.73      0.00
  -10   12    6     -0.98      0.00
   -9   12    6      4.42      0.00
   -8   12    6     -1.30      0.00
   -7   12    6      0.32      0.00
   -6   12    6      4.07      0.00
   -5   12    6      1.46      0.00
   -4   12    6      6.87      0.00
   -3   12    6     -0.48      0.00
   -2   12    6     -4.10      0.00
   -1   12    6      6.02      0.00
    0   12    6     -0.86      0.00
    1   12    6     -3.37      0.00
   -9   13    6     -1.34      0.00
   -8   13    6      3.13      0.00
   -7   13    6     -3.04      0.00
   -6   13    6     -0.14      0.00
   -5   13    6     -1.35      0.00
   -4   13    6     -3.70      0.00
   -3   13    6      4.73      0.00
   -2   13    6      0.49      0.00
   -1  -14    7     -4.53      0.00
    0  -14    7      5.74      0.00
    1  -14    7     -1.45      0.00
    2  -14    7     -6.85      0.00
    3  -14    7      5.39      0.00
    4  -14    7     -2.32      0.00
    5  -14    7     -2.95      0.00
    6  -14    7      3.89      0.00
    7  -14    7     -1.78      0.00
   -4  -13    7     -3.62      0.00
   -3  -13    7     -6.51      0.00
   -2  -13    7      6.24      0.00
   -1  -13    7      0.94      0.00
    0  -13    7     -9.84      0.00
    1  -13    7      6.42      0.00
    2  -13    7     -1.96      0.00
    3  -13    7     -8.53      0.00
    4  -13    7      6.15      0.00
    5  -13    7     -1.76      0.00
    6  -13    7     -1.66      0.00
    7  -13    7      3.26      0.00
    8  -13    7     -0.43      0.00
   -5  -12    7     -0.20      0.00
   -4  -12    7      7.40      0.00
   -3  -12    7      3.96      0.00
   -2  -12    7    -10.08      0.00
   -1  -12    7      7.94      0.00
    0  -12    7      5.57      0.00
    1  -12    7     -3.56      0.00
    2  -12    7     11.29      0.00
    3  -12    7      3.25      0.00
    4  -12    7     -3.20      0.00
    5  -12    7      4.69      0.00
    6  -12    7     -2.15      0.00
    7  -12    7     -1.24      0.00
    8  -12    7     -2.31      0.00
    9  -12    7     -3.54      0.00
   -6  -11    7      0.31      0.00
   -5  -11    7      0.47      0.00
   -4  -11    7     -9.23      0.00
   -3  -11    7      3.15      0.00
   -2  -11    7      4.80      0.00
   -1  -11    7     -9.27      0.00
    0  -11    7     -0.62      0.00
    1  -11    7     -5.27      0.00
    2  -11    7     -9.60      0.00
    3  -11    7     -0.42      0.00
    4  -11    7     -5.09      0.00
    5  -11    7     -2.76      0.00
    6  -11    7      1.40      0.00
    7  -11    7     -1.52      0.00
    8  -11    7      8.23      0.00
    9  -11    7      2.65      0.00
   10  -11    7     -0.99      0.00
   -8  -10    7      4.13      0.00
   -7  -10    7      4.90      0.00
   -6  -10    7     -4.45      0.00
   -5  -10    7      1.61      0.00
   -4  -10    7      4.01      0.00
   -3  -10    7     -6.18      0.00
   -2  -10    7     -0.10      0.00
   -1  -10    7      1.30      0.00
    0  -10    7      2.76      0.00
    1  -10    7      9.65      0.00
    2  -10    7      1.78      0.00
    3  -10    7      8.06      0.00
    4  -10    7     10.64      0.00
    5  -10    7     -0.98      0.00
    6  -10    7      6.37      0.00
    7  -10    7     -0.33      0.00
    8  -10    7    -10.65      0.00
    9  -10    7      2.30      0.00
   10  -10    7     -1.74      0.00
   -9   -9    7     -0.09      0.00
   -8   -9    7     -7.33      0.00
   -7   -9    7     -0.30      0.00
   -6   -9    7      5.60      0.00
   -5   -9    7      0.33      0.00
   -4   -9    7      3.99      0.00
   -3   -9    7      4.72      0.00
   -2   -9    7      5.50      0.00
   -1   -9    7      6.64      0.00
    0   -9    7    -11.48      0.00
    1   -9    7     -3.96      0.00
    2   -9    7     -0.23      0.00
    3   -9    7    -21.02      0.00
    4   -9    7     -7.10      0.00
    5   -9    7     -1.28      0.00
    6   -9    7    -13.87      0.00
    7   -9    7      5.88      0.00
    8   -9    7      4.85      0.00
    9   -9    7     -4.46      0.00
   10   -9    7      6.15      0.00
   11   -9    7      2.65      0.00
   -9   -8    7      3.83      0.00
   -8   -8    7      5.61      0.00
   -7   -8    7     -4.34      0.00
   -6   -8    7     -5.29      0.00
   -5   -8    7     -8.44      0.00
   -4   -8    7     -7.61      0.00
   -3   -8    7     -4.52      0.00
   -2   -8    7    -19.89      0.00
   -1   -8    7     -3.38      0.00
    0   -8    7     17.37      0.00
    1   -8    7     -7.68      0.00
    2   -8    7     10.51      0.00
    3   -8    7     26.26      0.00
    4   -8    7     -0.25      0.00
    5   -8    7     10.82      0.00
    6   -8    7     12.41      0.00
    7   -8    7     -7.48      0.00
    8   -8    7      3.47      0.00
    9   -8    7      0.41      0.00
   10   -8    7     -6.64      0.00
   11   -8    7     -0.36      0.00
  -10   -7    7     -0.94      0.00
   -9   -7    7     -6.16      0.00
   -8   -7    7      0.35      0.00
   -7   -7    7      3.67      0.00
   -6   -7    7      8.64      0.00
   -5   -7    7     16.69      0.00
   -4   -7    7      3.17      0.00
   -3   -7    7     12.79      0.00
   -2   -7    7     30.44      0.00
   -1   -7    7    -11.36      0.00
    0   -7    7     -9.46      0.00
    1   -7    7     12.39      0.00
    2   -7    7    -24.73      0.00
    3   -7    7    -18.17      0.00
    4   -7    7     -0.12      0.00
    5   -7    7    -17.16      0.00
    6   -7    7     -4.49      0.00
    7   -7    7      1.92      0.00
    8   -7    7     -5.18      0.00
    9   -7    7      3.37      0.00
   10   -7    7      1.81      0.00
   11   -7    7      0.98      0.00
  -11   -6    7      0.08      0.00
  -10   -6    7      5.29      0.00
   -9   -6    7      3.06      0.00
   -8   -6    7     -3.11      0.00
   -7   -6    7      0.31      0.00
   -6   -6    7    -16.50      0.00
   -5   -6    7    -16.12      0.00
   -4   -6    7      2.91      0.00
   -3   -6    7    -29.23      0.00
   -2   -6    7    -22.68      0.00
   -1   -6    7     20.93      0.00
    0   -6    7     -6.71      0.00
    1   -6    7     -2.50      0.00
    2   -6    7     27.89      0.00
    3   -6    7      6.99      0.00
    4   -6    7      7.23      0.00
    5   -6    7     11.94      0.00
    6   -6    7     -0.38      0.00
    7   -6    7      3.83      0.00
    8   -6    7     -0.25      0.00
    9   -6    7     -0.34      0.00
   10   -6    7      2.12      0.00
   11   -6    7     -3.37      0.00
  -11   -5    7     -2.47      0.00
  -10   -5    7     -7.70      0.00
   -8   -5    7     -2.02      0.00
   -7   -5    7     -0.27      0.00
   -6   -5    7     23.33      0.00
   -5   -5    7      4.32      0.00
   -4   -5    7      2.44      0.00
   -3   -5    7     37.52      0.00
   -2   -5    7      2.52      0.00
   -1   -5    7    -13.65      0.00
    0   -5    7     12.75      0.00
    1   -5    7    -11.08      0.00
    2   -5    7    -15.87      0.00
    3   -5    7     -3.97      0.00
    4   -5    7     -8.49      0.00
    5   -5    7      1.14      0.00
    6   -5    7     -1.97      0.00
    7   -5    7     -0.34      0.00
    8   -5    7      4.60      0.00
    9   -5    7     -6.41      0.00
   10   -5    7     -0.55      0.00
   11   -5    7      2.29      0.00
  -12   -4    7      0.57      0.00
  -11   -4    7      7.30      0.00
  -10   -4    7      4.41      0.00
   -9   -4    7     -3.13      0.00
   -8   -4    7      8.68      0.00
   -7   -4    7     -7.26      0.00
   -6   -4    7    -20.16      0.00
   -5   -4    7      5.96      0.00
   -4   -4    7    -15.81      0.00
   -3   -4    7    -26.38      0.00
   -2   -4    7      9.43      0.00
   -1   -4    7     -0.52      0.00
    0   -4    7     -1.95      0.00
    1   -4    7      9.99      0.00
    2   -4    7      1.24      0.00
    3   -4    7      7.04      0.00
    4   -4    7     -4.62      0.00
    5   -4    7     -9.15      0.00
    6   -4    7      3.33      0.00
    7   -4    7    -10.50      0.00
    8   -4    7     -2.22      0.00
    9   -4    7      9.13      0.00
   10   -4    7     -3.06      0.00
   11   -4    7      2.78      0.00
  -12   -3    7     -2.34      0.00
  -11   -3    7     -9.34      0.00
  -10   -3    7      1.16      0.00
   -9   -3    7     -2.11      0.00
   -8   -3    7     -7.43      0.00
   -7   -3    7     15.10      0.00
   -6   -3    7      7.71      0.00
   -5   -3    7     -3.35      0.00
   -4   -3    7     19.68      0.00
   -3   -3    7      6.14      0.00
   -2   -3    7     -2.59      0.00
   -1   -3    7      1.44      0.00
    0   -3    7    -10.19      0.00
    1   -3    7      7.54      0.00
    2   -3    7      0.99      0.00
    3   -3    7     -3.20      0.00
    4   -3    7     23.06      0.00
    5   -3    7      6.88      0.00
    6   -3    7      4.28      0.00
    7   -3    7     17.63      0.00
    8   -3    7     -4.57      0.00
    9   -3    7     -4.48      0.00
   10   -3    7      2.53      0.00
   11   -3    7     -6.14      0.00
  -13   -2    7     -0.33      0.00
  -12   -2    7      5.72      0.00
  -11   -2    7      5.15      0.00
  -10   -2    7     -2.93      0.00
   -9   -2    7      5.73      0.00
   -8   -2    7     -1.62      0.00
   -7   -2    7    -13.22      0.00
   -6   -2    7      0.78      0.00
   -5   -2    7     -5.68      0.00
   -4   -2    7     -6.12      0.00
   -3   -2    7      1.93      0.00
   -2   -2    7     -9.15      0.00
   -1   -2    7     15.87      0.00
    0   -2    7      4.91      0.00
    1   -2    7    -21.52      0.00
    2   -2    7      7.17      0.00
    3   -2    7    -13.10      0.00
    4   -2    7    -29.49      0.00
    5   -2    7     -3.36      0.00
    6   -2    7    -16.23      0.00
    7   -2    7    -14.07      0.00
    8   -2    7      7.54      0.00
    9   -2    7     -2.07      0.00
   10   -2    7      1.50      0.00
   11   -2    7      5.28      0.00
  -13   -1    7     -0.10      0.00
  -12   -1    7     -5.92      0.00
  -11   -1    7      0.55      0.00
  -10   -1    7      0.66      0.00
   -9   -1    7     -2.77      0.00
   -8   -1    7      8.52      0.00
   -7   -1    7      3.90      0.00
   -6   -1    7      3.43      0.00
   -5   -1    7      5.72      0.00
   -4   -1    7    -12.75      0.00
   -3   -1    7      9.31      0.00
   -2   -1    7      2.10      0.00
   -1   -1    7    -32.43      0.00
    0   -1    7     14.16      0.00
    1   -1    7     14.87      0.00
    2   -1    7     -9.50      0.00
    3   -1    7     28.86      0.00
    4   -1    7     21.09      0.00
    5   -1    7      6.73      0.00
    6   -1    7     22.05      0.00
    7   -1    7      4.56      0.00
    8   -1    7     -2.60      0.00
    9   -1    7      3.46      0.00
   10   -1    7     -4.23      0.00
   11   -1    7     -2.92      0.00
  -13    0    7      1.85      0.00
  -12    0    7      2.55      0.00
  -11    0    7     -2.57      0.00
  -10    0    7      2.13      0.00
   -9    0    7     -5.07      0.00
   -8    0    7     -5.10      0.00
   -7    0    7     -0.45      0.00
   -6    0    7    -12.83      0.00
   -5    0    7      9.78      0.00
   -4    0    7     15.64      0.00
   -3    0    7    -19.92      0.00
   -2    0    7     24.13      0.00
   -1    0    7     28.87      0.00
    0    0    7    -24.05      0.00
    1    0    7      4.28      0.00
    2    0    7     -0.16      0.00
    3    0    7    -29.09      0.00
    4    0    7     -9.93      0.00
    5    0    7    -14.75      0.00
    6    0    7    -16.24      0.00
    7    0    7     -0.75      0.00
    8    0    7     -3.11      0.00
    9    0    7     -0.23      0.00
   10    0    7      3.94      0.00
  -14    1    7     -0.75      0.00
  -13    1    7     -2.70      0.00
  -12    1    7      1.74      0.00
  -11    1    7     -1.08      0.00
  -10    1    7      0.56      0.00
   -9    1    7      8.59      0.00
   -8    1    7     -2.60      0.00
   -7    1    7      8.39      0.00
   -6    1    7     11.34      0.00
   -5    1    7    -27.02      0.00
   -4    1    7     -0.06      0.00
   -3    1    7      9.31      0.00
   -2    1    7    -44.42      0.00
   -1    1    7    -10.37      0.00
    0    1    7     11.67      0.00
    1    1    7    -14.30      0.00
    2    1    7      9.79      0.00
    3    1    7     14.55      0.00
    4    1    7      8.09      0.00
    5    1    7     16.53      0.00
    6    1    7      6.02      0.00
    7    1    7      4.31      0.00
    8    1    7      2.80      0.00
    9    1    7     -3.27      0.00
   10    1    7     -0.66      0.00
  -14    2    7      2.36      0.00
  -13    2    7      0.93      0.00
  -12    2    7     -2.59      0.00
  -11    2    7      4.64      0.00
  -10    2    7     -7.39      0.00
   -9    2    7     -3.13      0.00
   -8    2    7      3.04      0.00
   -7    2    7    -17.26      0.00
   -6    2    7      5.05      0.00
   -5    2    7     26.35      0.00
   -4    2    7    -12.60      0.00
   -3    2    7     15.05      0.00
   -2    2    7     39.49      0.00
   -1    2    7      0.41      0.00
    0    2    7      7.89      0.00
    1    2    7      8.42      0.00
    2    2    7     -5.83      0.00
    3    2    7     -1.57      0.00
    4    2    7    -13.16      0.00
    5    2    7     -7.33      0.00
    6    2    7     -1.76      0.00
    7    2    7     -6.95      0.00
    8    2    7      2.48      0.00
    9    2    7      2.77      0.00
   10    2    7     -2.07      0.00
  -14    3    7     -3.34      0.00
  -13    3    7      2.69      0.00
  -12    3    7     -1.61      0.00
  -11    3    7     -1.14      0.00
  -10    3    7      8.87      0.00
   -9    3    7     -3.80      0.00
   -8    3    7      4.45      0.00
   -7    3    7     13.95      0.00
   -6    3    7    -19.68      0.00
   -5    3    7    -10.14      0.00
   -4    3    7      7.16      0.00
   -3    3    7    -27.76      0.00
   -2    3    7    -20.08      0.00
   -1    3    7     -7.82      0.00
    0    3    7    -12.22      0.00
    1    3    7     -0.63      0.00
    2    3    7     -7.67      0.00
    3    3    7      2.62      0.00
    4    3    7     12.74      0.00
    5    3    7     -3.62      0.00
    6    3    7      3.73      0.00
    7    3    7      3.35      0.00
    8    3    7     -6.73      0.00
    9    3    7      0.88      0.00
  -14    4    7      1.27      0.00
  -13    4    7     -2.67      0.00
  -12    4    7      4.30      0.00
  -11    4    7     -4.54      0.00
  -10    4    7     -3.36      0.00
   -9    4    7      4.70      0.00
   -8    4    7    -10.51      0.00
   -7    4    7     -0.77      0.00
   -6    4    7     17.57      0.00
   -5    4    7     -1.96      0.00
   -4    4    7      6.66      0.00
   -3    4    7     18.29      0.00
   -2    4    7     10.51      0.00
   -1    4    7     15.94      0.00
    0    4    7      1.14      0.00
    1    4    7      3.50      0.00
    2    4    7     13.63      0.00
    3    4    7    -10.65      0.00
    4    4    7     -3.82      0.00
    5    4    7      6.53      0.00
    6    4    7     -5.54      0.00
    7    4    7      4.25      0.00
    8    4    7      5.31      0.00
  -14    5    7      1.31      0.00
  -13    5    7     -1.04      0.00
  -12    5    7     -2.27      0.00
  -11    5    7      5.55      0.00
  -10    5    7     -2.78      0.00
   -9    5    7      0.02      0.00
   -8    5    7      8.33      0.00
   -7    5    7     -7.79      0.00
   -6    5    7     -4.57      0.00
   -5    5    7      0.20      0.00
   -4    5    7    -10.01      0.00
   -3    5    7     -2.92      0.00
   -2    5    7    -14.98      0.00
   -1    5    7    -10.71      0.00
    0    5    7      8.77      0.00
    1    5    7    -12.01      0.00
    2    5    7     -5.80      0.00
    3    5    7     11.91      0.00
    4    5    7     -5.04      0.00
    5    5    7     -1.49      0.00
    6    5    7      2.25      0.00
    7    5    7     -8.17      0.00
    8    5    7     -1.54      0.00
  -14    6    7     -1.04      0.00
  -13    6    7      3.36      0.00
  -12    6    7     -1.32      0.00
  -11    6    7     -1.70      0.00
  -10    6    7      3.95      0.00
   -9    6    7     -4.67      0.00
   -8    6    7     -1.14      0.00
   -7    6    7      4.37      0.00
   -6    6    7     -4.16      0.00
   -5    6    7      6.99      0.00
   -4    6    7     -0.28      0.00
   -3    6    7     -0.56      0.00
   -2    6    7     19.34      0.00
   -1    6    7     -3.61      0.00
    0    6    7     -6.84      0.00
    1    6    7     13.60      0.00
    2    6    7     -4.59      0.00
    3    6    7     -4.16      0.00
    4    6    7      5.71      0.00
    5    6    7     -2.98      0.00
    6    6    7      2.93      0.00
    7    6    7      5.66      0.00
  -13    7    7     -1.76      0.00
  -12    7    7      2.30      0.00
  -11    7    7     -2.49      0.00
  -10    7    7      0.10      0.00
   -9    7    7      4.48      0.00
   -8    7    7     -3.29      0.00
   -7    7    7      5.41      0.00
   -6    7    7      1.21      0.00
   -5    7    7     -6.71      0.00
   -4    7    7     10.98      0.00
   -3    7    7     -6.29      0.00
   -2    7    7    -12.85      0.00
   -1    7    7     13.31      0.00
    0    7    7     -1.60      0.00
    1    7    7     -6.37      0.00
    2    7    7      5.91      0.00
    3    7    7     -2.90      0.00
    4    7    7     -0.53      0.00
    5    7    7      1.50      0.00
    6    7    7     -3.79      0.00
  -13    8    7     -1.22      0.00
  -12    8    7      0.41      0.00
  -11    8    7      2.41      0.00
  -10    8    7     -4.48      0.00
   -9    8    7      0.55      0.00
   -8    8    7     -0.38      0.00
   -7    8    7     -9.18      0.00
   -6    8    7      6.48      0.00
   -5    8    7     -2.43      0.00
   -4    8    7    -11.62      0.00
   -3    8    7     10.39      0.00
   -2    8    7     -0.48      0.00
   -1    8    7    -10.80      0.00
    0    8    7      5.01      0.00
    1    8    7     -0.29      0.00
    2    8    7     -0.43      0.00
    3    8    7      2.06      0.00
    4    8    7     -1.80      0.00
    5    8    7      1.57      0.00
  -12    9    7     -2.53      0.00
  -11    9    7      1.11      0.00
  -10    9    7      3.87      0.00
   -9    9    7     -3.71      0.00
   -8    9    7      7.53      0.00
   -7    9    7      2.23      0.00
   -6    9    7     -7.38      0.00
   -5    9    7     10.12      0.00
   -4    9    7      5.04      0.00
   -3    9    7     -5.49      0.00
   -2    9    7      7.14      0.00
   -1    9    7      3.42      0.00
    0    9    7     -1.67      0.00
    1    9    7      0.67      0.00
    2    9    7     -2.32      0.00
    3    9    7      2.14      0.00
    4    9    7     -0.24      0.00
  -12   10    7      1.93      0.00
  -11   10    7     -3.70      0.00
  -10   10    7      0.92      0.00
   -9   10    7     -0.18      0.00
   -8   10    7     -7.83      0.00
   -7   10    7      5.74      0.00
   -6   10    7      1.24      0.00
   -5   10    7     -8.75      0.00
   -4   10    7     -0.16      0.00
   -3   10    7     -0.58      0.00
   -2   10    7     -3.70      0.00
   -1   10    7     -0.78      0.00
    0   10    7     -2.12      0.00
    1   10    7      2.04      0.00
    2   10    7     -0.18      0.00
    3   10    7     -3.00      0.00
  -11   11    7      2.26      0.00
  -10   11    7     -2.61      0.00
   -9   11    7      4.67      0.00
   -8   11    7      1.76      0.00
   -7   11    7     -6.04      0.00
   -6   11    7      3.04      0.00
   -5   11    7      2.01      0.00
   -4   11    7     -0.52      0.00
   -3   11    7      0.64      0.00
   -2   11    7     -1.11      0.00
   -1   11    7      3.03      0.00
    0   11    7      1.85      0.00
    1   11    7     -2.65      0.00
  -10   12    7      0.25      0.00
   -9   12    7     -3.95      0.00
   -8   12    7      2.69      0.00
   -7   12    7      1.14      0.00
   -6   12    7     -1.13      0.00
   -5   12    7      2.10      0.00
   -4   12    7      0.18      0.00
   -3   12    7      2.00      0.00
   -2   12    7      1.25      0.00
   -1   12    7     -4.39      0.00
   -7   13    7      1.57      0.00
   -6   13    7     -1.87      0.00
   -5   13    7     -1.83      0.00
   -4   13    7     -0.04      0.00
   -1  -14    8      1.08      0.00
    0  -14    8     -8.33      0.00
    1  -14    8     -2.21      0.00
    2  -14    8     -0.22      0.00
    3  -14    8     -8.02      0.00
    4  -14    8      2.50      0.00
    5  -14    8      2.86      0.00
   -3  -13    8      1.27      0.00
   -2  -13    8     -5.59      0.00
   -1  -13    8      5.86      0.00
    0  -13    8     12.27      0.00
    1  -13    8     -2.36      0.00
    2  -13    8      7.37      0.00
    3  -13    8      7.53      0.00
    4  -13    8     -8.08      0.00
    5  -13    8      1.76      0.00
    6  -13    8     -0.30      0.00
    7  -13    8     -4.10      0.00
   -5  -12    8      4.52      0.00
   -4  -12    8     -2.79      0.00
   -3  -12    8      1.54      0.00
   -2  -12    8      6.19      0.00
   -1  -12    8    -14.55      0.00
    0  -12    8     -5.46      0.00
    1  -12    8      1.82      0.00
    2  -12    8    -13.04      0.00
    3  -12    8      0.52      0.00
    4  -12    8      5.08      0.00
    5  -12    8     -5.89      0.00
    6  -12    8      3.18      0.00
    7  -12    8      2.30      0.00
    8  -12    8      1.41      0.00
   -6  -11    8     -7.96      0.00
   -5  -11    8     -4.52      0.00
   -4  -11    8      4.63      0.00
   -3  -11    8     -7.35      0.00
   -2  -11    8     -0.19      0.00
   -1  -11    8     12.98      0.00
    0  -11    8     -2.08      0.00
    1  -11    8      4.43      0.00
    2  -11    8      9.34      0.00
    3  -11    8     -3.88      0.00
    4  -11    8      3.27      0.00
    5  -11    8      4.26      0.00
    6  -11    8     -2.58      0.00
    7  -11    8      1.33      0.00
    8  -11    8     -2.84      0.00
    9  -11    8      2.34      0.00
   -7  -10    8      4.36      0.00
   -6  -10    8     12.91      0.00
   -5  -10    8      0.79      0.00
   -4  -10    8     -0.59      0.00
   -3  -10    8      8.97      0.00
   -2  -10    8     -4.08      0.00
   -1  -10    8     -4.48      0.00
    0  -10    8      0.90      0.00
    1  -10    8     -6.90      0.00
    2  -10    8     -1.41      0.00
    3  -10    8     -1.66      0.00
    4  -10    8     -6.22      0.00
    5  -10    8      0.88      0.00
    6  -10    8     -4.18      0.00
    7  -10    8     -1.44      0.00
    8  -10    8      1.80      0.00
    9  -10    8     -7.64      0.00
   10  -10    8     -0.58      0.00
   -8   -9    8      1.12      0.00
   -7   -9    8    -10.67      0.00
   -6   -9    8    -12.04      0.00
   -5   -9    8      0.69      0.00
   -4   -9    8     -4.10      0.00
   -3   -9    8     -5.21      0.00
   -2   -9    8      2.03      0.00
   -1   -9    8     -0.16      0.00
    0   -9    8      5.86      0.00
    1   -9    8     -0.20      0.00
    2   -9    8     -1.96      0.00
    3   -9    8      8.52      0.00
    4   -9    8     -1.58      0.00
    5   -9    8     -1.18      0.00
    6   -9    8     10.25      0.00
    7   -9    8     -2.97      0.00
    8   -9    8      4.47      0.00
    9   -9    8      9.13      0.00
   10   -9    8     -1.76      0.00
   -9   -8    8      0.20      0.00
   -8   -8    8      1.85      0.00
   -7   -8    8     13.88      0.00
   -6   -8    8      7.26      0.00
   -5   -8    8      0.78      0.00
   -4   -8    8      2.73      0.00
   -3   -8    8      0.26      0.00
   -2   -8    8      4.39      0.00
   -1   -8    8     -5.15      0.00
    0   -8    8     -7.82      0.00
    1   -8    8     13.21      0.00
    2   -8    8     -2.81      0.00
    3   -8    8     -6.22      0.00
    4   -8    8     13.20      0.00
    5   -8    8     -5.32      0.00
    6   -8    8     -7.23      0.00
    7   -8    8      4.66      0.00
    8   -8    8    -11.64      0.00
    9   -8    8     -5.50      0.00
   10   -8    8      0.84      0.00
  -10   -7    8     -2.93      0.00
   -9   -7    8      0.10      0.00
   -8   -7    8     -6.20      0.00
   -7   -7    8    -10.01      0.00
   -6   -7    8     -3.83      0.00
   -5   -7    8     -0.89      0.00
   -4   -7    8      5.98      0.00
   -3   -7    8     -1.45      0.00
   -2   -7    8     -7.27      0.00
   -1   -7    8     17.38      0.00
    0   -7    8     -3.75      0.00
    1   -7    8    -20.17      0.00
    2   -7    8      9.51      0.00
    3   -7    8     -8.60      0.00
    4   -7    8    -16.64      0.00
    5   -7    8      9.20      0.00
    6   -7    8     -2.00      0.00
    7   -7    8      0.24      0.00
    8   -7    8     12.86      0.00
    9   -7    8      2.24      0.00
   10   -7    8      2.80      0.00
   11   -7    8      2.32      0.00
  -11   -6    8      2.66      0.00
  -10   -6    8      1.64      0.00
   -9   -6    8      2.02      0.00
   -8   -6    8      6.60      0.00
   -7   -6    8      2.82      0.00
   -6   -6    8      4.07      0.00
   -5   -6    8     -5.02      0.00
   -4   -6    8    -14.62      0.00
   -3   -6    8     10.31      0.00
   -2   -6    8     -3.24      0.00
   -1   -6    8    -21.28      0.00
    0   -6    8     22.56      0.00
    1   -6    8     13.90      0.00
    2   -6    8     -5.00      0.00
    3   -6    8     24.79      0.00
    4   -6    8     11.38      0.00
    5   -6    8     -3.25      0.00
    6   -6    8      7.93      0.00
    7   -6    8     -6.41      0.00
    8   -6    8     -8.01      0.00
    9   -6    8     -3.44      0.00
   10   -6    8     -4.51      0.00
   11   -6    8     -0.48      0.00
  -11   -5    8     -2.71      0.00
  -10   -5    8     -0.32      0.00
   -9   -5    8     -5.72      0.00
   -8   -5    8     -1.17      0.00
   -7   -5    8      0.34      0.00
   -6   -5    8     -5.21      0.00
   -5   -5    8     17.75      0.00
   -4   -5    8     11.63      0.00
   -3   -5    8    -13.24      0.00
   -2   -5    8     20.17      0.00
   -1   -5    8      7.53      0.00
    0   -5    8    -30.82      0.00
    1   -5    8     -4.66      0.00
    2   -5    8    -12.17      0.00
    3   -5    8    -28.77      0.00
    4   -5    8     -7.53      0.00
    5   -5    8     -8.72      0.00
    6   -5    8     -4.61      0.00
    7   -5    8      5.90      0.00
    8   -5    8      3.69      0.00
    9   -5    8      6.89      0.00
   10   -5    8      1.87      0.00
   11   -5    8      0.25      0.00
  -12   -4    8      2.97      0.00
  -11   -4    8      0.65      0.00
  -10   -4    8      3.28      0.00
   -9   -4    8      6.44      0.00
   -8   -4    8     -4.95      0.00
   -7   -4    8      3.56      0.00
   -6   -4    8     -0.15      0.00
   -5   -4    8    -27.09      0.00
   -4   -4    8     -0.52      0.00
   -3   -4    8      1.92      0.00
   -2   -4    8    -25.21      0.00
   -1   -4    8     11.35      0.00
    0   -4    8     21.83      0.00
    1   -4    8      7.35      0.00
    2   -4    8     25.77      0.00
    3   -4    8     20.40      0.00
    4   -4    8     13.20      0.00
    5   -4    8     12.76      0.00
    6   -4    8     -1.92      0.00
    7   -4    8      0.73      0.00
    8   -4    8     -4.81      0.00
    9   -4    8     -7.19      0.00
   10   -4    8      2.43      0.00
   11   -4    8     -2.17      0.00
  -12   -3    8     -3.52      0.00
  -11   -3    8     -0.17      0.00
   -9   -3    8     -1.83      0.00
   -8   -3    8      5.20      0.00
   -7   -3    8     -8.38      0.00
   -6   -3    8     12.48      0.00
   -5   -3    8     23.49      0.00
   -4   -3    8     -3.97      0.00
   -3   -3    8     13.17      0.00
   -2   -3    8     13.38      0.00
   -1   -3    8    -14.64      0.00
    0   -3    8     -9.53      0.00
    1   -3    8    -19.68      0.00
    2   -3    8    -21.06      0.00
    3   -3    8    -13.33      0.00
    4   -3    8    -20.74      0.00
    5   -3    8     -3.14      0.00
    6   -3    8      1.52      0.00
    7   -3    8     -5.12      0.00
    8   -3    8      9.27      0.00
    9   -3    8      1.24      0.00
   10   -3    8     -3.18      0.00
  -13   -2    8      4.43      0.00
  -12   -2    8      1.00      0.00
  -11   -2    8      4.30      0.00
  -10   -2    8      9.62      0.00
   -9   -2    8     -3.77      0.00
   -8   -2    8      0.70      0.00
   -7   -2    8      4.97      0.00
   -6   -2    8    -20.42      0.00
   -5   -2    8    -12.60      0.00
   -4   -2    8     -3.96      0.00
   -3   -2    8    -16.24      0.00
   -2   -2    8     -0.24      0.00
   -1   -2    8     -0.16      0.00
    0   -2    8     10.33      0.00
    1   -2    8     23.84      0.00
    2   -2    8      4.12      0.00
    3   -2    8     15.55      0.00
    4   -2    8     15.85      0.00
    5   -2    8     -7.78      0.00
    6   -2    8      5.07      0.00
    7   -2    8      1.54      0.00
    8   -2    8     -9.49      0.00
    9   -2    8      5.84      0.00
   10   -2    8      0.18      0.00
  -13   -1    8     -3.32      0.00
  -12   -1    8      0.23      0.00
  -11   -1    8     -7.83      0.00
  -10   -1    8     -4.22      0.00
   -9   -1    8      4.60      0.00
   -8   -1    8     -5.02      0.00
   -7   -1    8      5.09      0.00
   -6   -1    8     16.21      0.00
   -5   -1    8      8.12      0.00
   -4   -1    8     14.94      0.00
   -3   -1    8      3.88      0.00
   -2   -1    8      3.81      0.00
   -1   -1    8     13.14      0.00
    0   -1    8    -21.42      0.00
    1   -1    8    -10.05      0.00
    2   -1    8      6.78      0.00
    3   -1    8    -18.38      0.00
    4   -1    8     -0.21      0.00
    5   -1    8      8.92      0.00
    6   -1    8     -8.66      0.00
    7   -1    8      6.41      0.00
    8   -1    8      2.65      0.00
    9   -1    8     -6.67      0.00
   10   -1    8      1.56      0.00
  -13    0    8      0.41      0.00
  -12    0    8      1.16      0.00
  -11    0    8      6.89      0.00
  -10    0    8     -1.59      0.00
   -9    0    8     -0.01      0.00
   -8    0    8      0.49      0.00
   -7    0    8     -9.72      0.00
   -6    0    8     -7.08      0.00
   -5    0    8    -15.81      0.00
   -4    0    8    -12.52      0.00
   -3    0    8      8.01      0.00
   -2    0    8    -20.78      0.00
   -1    0    8     -7.41      0.00
    0    0    8     25.32      0.00
    1    0    8    -10.93      0.00
    2    0    8     -4.16      0.00
    3    0    8     12.18      0.00
    4    0    8    -13.11      0.00
    5    0    8     -2.66      0.00
    6    0    8      2.78      0.00
    7    0    8     -8.80      0.00
    8    0    8      3.24      0.00
    9    0    8      2.94      0.00
   10    0    8     -0.31      0.00
  -13    1    8      0.73      0.00
  -12    1    8     -3.86      0.00
  -11    1    8     -2.12      0.00
  -10    1    8      0.99      0.00
   -9    1    8     -2.01      0.00
   -8    1    8      6.98      0.00
   -7    1    8      4.15      0.00
   -6    1    8      6.31      0.00
   -5    1    8     23.71      0.00
   -4    1    8     -4.92      0.00
   -3    1    8     -3.26      0.00
   -2    1    8     30.22      0.00
   -1    1    8    -10.89      0.00
    0    1    8    -12.30      0.00
    1    1    8     20.27      0.00
    2    1    8     -3.53      0.00
    3    1    8      1.97      0.00
    4    1    8     14.63      0.00
    5    1    8      0.15      0.00
    6    1    8      6.38      0.00
    7    1    8      4.27      0.00
    8    1    8     -2.46      0.00
    9    1    8     -0.12      0.00
  -13    2    8      1.25      0.00
  -12    2    8      4.40      0.00
  -11    2    8     -1.83      0.00
  -10    2    8      3.93      0.00
   -9    2    8     -2.42      0.00
   -8    2    8     -6.90      0.00
   -7    2    8      2.88      0.00
   -6    2    8    -15.33      0.00
   -5    2    8    -15.98      0.00
   -4    2    8     18.57      0.00
   -3    2    8    -12.50      0.00
   -2    2    8    -18.87      0.00
   -1    2    8     20.13      0.00
    0    2    8     -5.67      0.00
    1    2    8    -11.86      0.00
    2    2    8      2.86      0.00
    3    2    8    -12.37      0.00
    4    2    8     -7.50      0.00
    5    2    8     -6.43      0.00
    6    2    8     -8.42      0.00
    7    2    8     -0.71      0.00
    8    2    8     -1.85      0.00
    9    2    8      0.40      0.00
  -14    3    8      1.74      0.00
  -13    3    8     -4.40      0.00
  -12    3    8      0.20      0.00
  -11    3    8      0.29      0.00
  -10    3    8     -4.63      0.00
   -9    3    8      6.29      0.00
   -8    3    8     -0.22      0.00
   -7    3    8     -2.06      0.00
   -6    3    8     20.18      0.00
   -5    3    8     -2.98      0.00
   -4    3    8    -15.23      0.00
   -3    3    8     19.08      0.00
   -2    3    8     -1.75      0.00
   -1    3    8    -11.55      0.00
    0    3    8      8.94      0.00
    1    3    8      0.24      0.00
    2    3    8      6.82      0.00
    3    3    8      9.12      0.00
    4    3    8      4.09      0.00
    5    3    8     12.89      0.00
    6    3    8      3.94      0.00
    7    3    8      2.31      0.00
    8    3    8      4.17      0.00
  -14    4    8     -0.24      0.00
  -13    4    8      2.83      0.00
  -12    4    8     -4.32      0.00
  -11    4    8      3.29      0.00
  -10    4    8      0.67      0.00
   -9    4    8     -4.89      0.00
   -8    4    8      6.50      0.00
   -7    4    8     -4.33      0.00
   -6    4    8    -11.96      0.00
   -5    4    8     15.32      0.00
   -4    4    8      3.37      0.00
   -3    4    8     -8.32      0.00
   -2    4    8      9.74      0.00
   -1    4    8      1.34      0.00
    0    4    8      2.13      0.00
    1    4    8     -0.64      0.00
    2    4    8    -11.30      0.00
    3    4    8      0.46      0.00
    4    4    8     -8.06      0.00
    5    4    8    -11.30      0.00
    6    4    8     -0.39      0.00
    7    4    8     -5.93      0.00
    8    4    8     -2.21      0.00
  -13    5    8      2.11      0.00
  -12    5    8      2.91      0.00
  -11    5    8     -4.24      0.00
  -10    5    8      3.41      0.00
   -9    5    8     -0.15      0.00
   -8    5    8     -6.88      0.00
   -7    5    8      7.56      0.00
   -6    5    8     -1.77      0.00
   -5    5    8    -13.15      0.00
   -4    5    8      0.79      0.00
   -3    5    8     -5.32      0.00
   -2    5    8     -3.50      0.00
   -1    5    8     -3.72      0.00
    0    5    8    -10.15      0.00
    1    5    8      8.59      0.00
    2    5    8      4.44      0.00
    3    5    8     -3.10      0.00
    4    5    8     11.54      0.00
    5    5    8      4.11      0.00
    6    5    8      1.31      0.00
    7    5    8      5.80      0.00
  -13    6    8     -3.66      0.00
  -12    6    8      1.66      0.00
  -11    6    8      1.53      0.00
  -10    6    8     -4.12      0.00
   -9    6    8      5.10      0.00
   -8    6    8      2.13      0.00
   -7    6    8     -4.02      0.00
   -6    6    8      8.78      0.00
   -5    6    8      3.98      0.00
   -4    6    8      6.08      0.00
   -3    6    8      7.21      0.00
   -2    6    8     -2.37      0.00
   -1    6    8     13.18      0.00
    0    6    8      5.76      0.00
    1    6    8    -10.66      0.00
    2    6    8      3.93      0.00
    3    6    8     -1.84      0.00
    4    6    8     -8.61      0.00
    5    6    8      0.69      0.00
    6    6    8     -2.93      0.00
  -13    7    8      0.56      0.00
  -12    7    8     -3.45      0.00
  -11    7    8      2.10      0.00
  -10    7    8      0.35      0.00
   -9    7    8     -5.41      0.00
   -8    7    8      2.76      0.00
   -7    7    8     -3.06      0.00
   -6    7    8     -3.95      0.00
   -5    7    8     -0.71      0.00
   -4    7    8    -13.28      0.00
   -3    7    8      0.63      0.00
   -2    7    8     -0.20      0.00
   -1    7    8    -16.88      0.00
    0    7    8      3.72      0.00
    1    7    8      4.43      0.00
    2    7    8     -5.17      0.00
    3    7    8      5.40      0.00
    4    7    8      3.00      0.00
    5    7    8     -0.49      0.00
  -13    8    8      2.37      0.00
  -12    8    8      0.68      0.00
  -11    8    8     -1.97      0.00
  -10    8    8      3.64      0.00
   -9    8    8      0.00      0.00
   -8    8    8     -1.27      0.00
   -7    8    8      4.84      0.00
   -6    8    8     -4.89      0.00
   -5    8    8      6.42      0.00
   -4    8    8     10.94      0.00
   -3    8    8     -7.72      0.00
   -2    8    8      7.34      0.00
   -1    8    8     10.45      0.00
    0    8    8     -6.96      0.00
    1    8    8      2.11      0.00
    2    8    8      2.07      0.00
    3    8    8     -3.56      0.00
    4    8    8     -0.82      0.00
  -12    9    8      1.39      0.00
  -11    9    8     -1.01      0.00
  -10    9    8     -2.27      0.00
   -9    9    8      3.59      0.00
   -8    9    8     -3.90      0.00
   -7    9    8      1.97      0.00
   -6    9    8      5.89      0.00
   -5    9    8    -11.02      0.00
   -4    9    8     -0.85      0.00
   -3    9    8      6.83      0.00
   -2    9    8     -9.96      0.00
   -1    9    8     -2.15      0.00
    0    9    8      3.30      0.00
    1    9    8     -3.85      0.00
    2    9    8     -0.50      0.00
    3    9    8      0.56      0.00
  -11   10    8      2.26      0.00
  -10   10    8     -2.24      0.00
   -9   10    8     -0.14      0.00
   -8   10    8      3.28      0.00
   -7   10    8     -7.79      0.00
   -6   10    8     -0.16      0.00
   -5   10    8      6.70      0.00
   -4   10    8     -6.03      0.00
   -3   10    8     -1.31      0.00
   -2   10    8      6.36      0.00
   -1   10    8     -0.65      0.00
    0   10    8      0.77      0.00
    1   10    8      2.05      0.00
    2   10    8      1.13      0.00
  -10   11    8      2.66      0.00
   -9   11    8     -3.06      0.00
   -8   11    8      1.56      0.00
   -7   11    8      5.96      0.00
   -6   11    8     -2.68      0.00
   -5   11    8      0.60      0.00
   -4   11    8      4.51      0.00
   -3   11    8     -1.74      0.00
   -2   11    8     -2.10      0.00
   -1   11    8     -0.62      0.00
    0   11    8     -1.25      0.00
   -8   12    8     -3.22      0.00
   -7   12    8     -1.02      0.00
   -6   12    8      0.49      0.00
   -5   12    8     -2.24      0.00
   -4   12    8     -0.39      0.00
   -3   12    8      1.36      0.00
   -2   12    8      0.31      0.00
    1  -14    9     -1.18      0.00
    2  -14    9     -1.45      0.00
    3  -14    9      2.48      0.00
   -2  -13    9      3.25      0.00
   -1  -13    9     -2.83      0.00
    0  -13    9     -1.53      0.00
    1  -13    9      7.42      0.00
    2  -13    9     -2.08      0.00
    3  -13    9     -1.53      0.00
    4  -13    9      5.86      0.00
    5  -13    9     -5.16      0.00
    6  -13    9     -1.87      0.00
   -4  -12    9      4.36      0.00
   -3  -12    9     -2.33      0.00
   -2  -12    9     -5.28      0.00
   -1  -12    9      5.70      0.00
    0  -12    9     -7.17      0.00
    1  -12    9     -7.47      0.00
    2  -12    9      6.89      0.00
    3  -12    9     -4.67      0.00
    4  -12    9     -1.59      0.00
    5  -12    9      9.95      0.00
    6  -12    9      0.11      0.00
    7  -12    9      1.80      0.00
   -6  -11    9      2.72      0.00
   -5  -11    9     -2.64      0.00
   -4  -11    9     -5.17      0.00
   -3  -11    9      8.73      0.00
   -2  -11    9      1.93      0.00
   -1  -11    9     -1.86      0.00
    0  -11    9     13.87      0.00
    1  -11    9      1.29      0.00
    2  -11    9     -3.63      0.00
    3  -11    9      7.69      0.00
    4  -11    9     -6.53      0.00
    5  -11    9     -8.38      0.00
    6  -11    9     -0.33      0.00
    7  -11    9     -6.20      0.00
    8  -11    9     -3.16      0.00
   -7  -10    9     -0.23      0.00
   -6  -10    9     -2.84      0.00
   -5  -10    9      8.65      0.00
   -4  -10    9      1.11      0.00
   -3  -10    9     -9.89      0.00
   -2  -10    9      1.56      0.00
   -1  -10    9     -5.99      0.00
    0  -10    9    -13.12      0.00
    1  -10    9      0.08      0.00
    2  -10    9     -4.66      0.00
    3  -10    9     -3.60      0.00
    4  -10    9      8.68      0.00
    5  -10    9      2.37      0.00
    6  -10    9      5.45      0.00
    7  -10    9      6.32      0.00
    8  -10    9      3.18      0.00
    9  -10    9      6.05      0.00
   -8   -9    9     -4.65      0.00
   -7   -9    9      2.70      0.00
   -6   -9    9     -2.41      0.00
   -5   -9    9    -11.97      0.00
   -4   -9    9      2.61      0.00
   -3   -9    9      5.68      0.00
   -2   -9    9     -0.34      0.00
   -1   -9    9     10.90      0.00
    0   -9    9      9.55      0.00
    1   -9    9      7.39      0.00
    2   -9    9      8.34      0.00
    3   -9    9     -1.83      0.00
    4   -9    9     -0.69      0.00
    5   -9    9     -1.26      0.00
    6   -9    9     -9.78      0.00
    7   -9    9     -0.66      0.00
    8   -9    9     -6.51      0.00
    9   -9    9     -5.93      0.00
   -9   -8    9      3.11      0.00
   -8   -8    9      5.32      0.00
   -7   -8    9     -2.90      0.00
   -6   -8    9      9.71      0.00
   -5   -8    9     10.88      0.00
   -4   -8    9     -2.66      0.00
   -3   -8    9     -1.74      0.00
   -2   -8    9     -5.20      0.00
   -1   -8    9     -8.83      0.00
    0   -8    9     -9.77      0.00
    1   -8    9    -17.31      0.00
    2   -8    9     -3.09      0.00
    3   -8    9     -0.11      0.00
    4   -8    9     -8.83      0.00
    5   -8    9      8.04      0.00
    6   -8    9      5.35      0.00
    7   -8    9     -3.22      0.00
    8   -8    9      9.70      0.00
    9   -8    9      1.09      0.00
   10   -8    9     -0.82      0.00
  -10   -7    9      0.84      0.00
   -9   -7    9     -6.71      0.00
   -8   -7    9     -3.53      0.00
   -7   -7    9     -1.44      0.00
   -6   -7    9    -12.70      0.00
   -5   -7    9     -7.52      0.00
   -4   -7    9     -0.58      0.00
   -3   -7    9      4.33      0.00
   -2   -7    9      8.90      0.00
   -1   -7    9      1.18      0.00
    0   -7    9     18.43      0.00
    1   -7    9     18.77      0.00
    2   -7    9     -5.39      0.00
    3   -7    9     10.74      0.00
    4   -7    9      7.30      0.00
    5   -7    9    -12.82      0.00
    6   -7    9      4.70      0.00
    7   -7    9      0.91      0.00
    8   -7    9     -7.10      0.00
    9   -7    9      3.64      0.00
   10   -7    9     -0.59      0.00
  -10   -6    9      1.66      0.00
   -9   -6    9      7.65      0.00
   -8   -6    9      2.56      0.00
   -7   -6    9      6.50      0.00
   -6   -6    9      9.40      0.00
   -5   -6    9      6.49      0.00
   -4   -6    9      2.50      0.00
   -3   -6    9    -13.78      0.00
   -2   -6    9     -2.12      0.00
   -1   -6    9      0.47      0.00
    0   -6    9    -29.54      0.00
    1   -6    9     -6.30      0.00
    2   -6    9      5.64      0.00
    3   -6    9    -18.13      0.00
    4   -6    9      3.78      0.00
    5   -6    9      8.30      0.00
    6   -6    9    -10.42      0.00
    7   -6    9      3.55      0.00
    8   -6    9      0.00      0.00
    9   -6    9     -5.07      0.00
   10   -6    9     -0.24      0.00
  -11   -5    9      1.61      0.00
  -10   -5    9     -4.76      0.00
   -9   -5    9     -4.77      0.00
   -8   -5    9     -4.88      0.00
   -7   -5    9     -7.02      0.00
   -6   -5    9     -4.06      0.00
   -5   -5    9    -10.83      0.00
   -4   -5    9      4.72      0.00
   -3   -5    9     17.47      0.00
   -2   -5    9     -9.89      0.00
   -1   -5    9     10.33      0.00
    0   -5    9     27.59      0.00
    1   -5    9     -9.85      0.00
    2   -5    9      2.76      0.00
    3   -5    9     11.96      0.00
    4   -5    9    -12.72      0.00
    5   -5    9      1.62      0.00
    6   -5    9      5.91      0.00
    7   -5    9     -3.08      0.00
    8   -5    9      5.80      0.00
    9   -5    9      4.59      0.00
   10   -5    9      3.20      0.00
  -11   -4    9      0.84      0.00
  -10   -4    9      4.28      0.00
   -9   -4    9      2.68      0.00
   -8   -4    9      8.25      0.00
   -7   -4    9      1.75      0.00
   -6   -4    9      4.43      0.00
   -5   -4    9     13.20      0.00
   -4   -4    9    -16.80      0.00
   -3   -4    9     -7.75      0.00
   -2   -4    9     13.06      0.00
   -1   -4    9    -21.00      0.00
    0   -4    9     -8.72      0.00
    1   -4    9     14.86      0.00
    2   -4    9     -6.60      0.00
    3   -4    9      3.85      0.00
    4   -4    9     10.72      0.00
    5   -4    9     -4.68      0.00
    6   -4    9      1.67      0.00
    7   -4    9     -3.40      0.00
    8   -4    9     -6.41      0.00
    9   -4    9     -4.85      0.00
   10   -4    9     -5.68      0.00
  -12   -3    9      2.08      0.00
  -11   -3    9     -3.92      0.00
  -10   -3    9     -0.47      0.00
   -9   -3    9     -5.69      0.00
   -8   -3    9     -7.61      0.00
   -7   -3    9      4.24      0.00
   -6   -3    9    -11.31      0.00
   -5   -3    9     -5.81      0.00
   -4   -3    9     20.63      0.00
   -3   -3    9     -6.04      0.00
   -2   -3    9     -4.91      0.00
   -1   -3    9     15.55      0.00
    0   -3    9    -10.38      0.00
    1   -3    9     -9.49      0.00
    2   -3    9     -3.67      0.00
    3   -3    9    -14.15      0.00
    4   -3    9     -3.40      0.00
    5   -3    9     -3.08      0.00
    6   -3    9     -0.70      0.00
    7   -3    9      8.36      0.00
    8   -3    9      2.88      0.00
    9   -3    9      7.71      0.00
   10   -3    9      4.78      0.00
  -12   -2    9      2.76      0.00
  -11   -2    9      2.44      0.00
  -10   -2    9     -0.02      0.00
   -9   -2    9     10.33      0.00
   -8   -2    9      1.23      0.00
   -7   -2    9     -3.41      0.00
   -6   -2    9     14.83      0.00
   -5   -2    9     -6.10      0.00
   -4   -2    9    -12.93      0.00
   -3   -2    9     10.21      0.00
   -2   -2    9     -2.72      0.00
   -1   -2    9      2.80      0.00
    0   -2    9     13.22      0.00
    1   -2    9      8.52      0.00
    2   -2    9     19.27      0.00
    3   -2    9     10.75      0.00
    4   -2    9      3.78      0.00
    5   -2    9      9.51      0.00
    6   -2    9     -6.63      0.00
    7   -2    9     -5.20      0.00
    8   -2    9     -1.46      0.00
    9   -2    9    -10.24      0.00
   10   -2    9     -1.16      0.00
  -13   -1    9     -0.73      0.00
  -12   -1    9     -5.34      0.00
  -11   -1    9      1.02      0.00
  -10   -1    9     -4.23      0.00
   -9   -1    9    -10.03      0.00
   -8   -1    9      5.13      0.00
   -7   -1    9     -3.19      0.00
   -6   -1    9     -8.31      0.00
   -5   -1    9     11.71      0.00
   -4   -1    9      3.07      0.00
   -3   -1    9     -1.56      0.00
   -2   -1    9     -1.77      0.00
   -1   -1    9    -14.20      0.00
    0   -1    9     -4.32      0.00
    1   -1    9    -18.15      0.00
    2   -1    9    -23.65      0.00
    3   -1    9     -3.06      0.00
    4   -1    9    -11.37      0.00
    5   -1    9     -6.85      0.00
    6   -1    9      9.60      0.00
    7   -1    9     -2.34      0.00
    8   -1    9      5.27      0.00
    9   -1    9      7.59      0.00
  -13    0    9      3.19      0.00
  -12    0    9      3.04      0.00
  -11    0    9     -1.81      0.00
  -10    0    9      8.46      0.00
   -9    0    9      3.45      0.00
   -8    0    9     -4.34      0.00
   -7    0    9      5.30      0.00
   -6    0    9     -2.07      0.00
   -5    0    9     -7.20      0.00
   -4    0    9     -3.85      0.00
   -3    0    9     -7.16      0.00
   -2    0    9     13.85      0.00
   -1    0    9      7.35      0.00
    0    0    9     -0.55      0.00
    1    0    9     28.25      0.00
    2    0    9     13.92      0.00
    3    0    9      1.76      0.00
    4    0    9     16.74      0.00
    5    0    9     -0.78      0.00
    6    0    9     -4.30      0.00
    7    0    9      4.21      0.00
    8    0    9     -7.64      0.00
    9    0    9     -2.28      0.00
  -13    1    9     -2.37      0.00
  -12    1    9      0.64      0.00
  -11    1    9     -1.48      0.00
  -10    1    9     -6.97      0.00
   -9    1    9      1.95      0.00
   -8    1    9      0.29      0.00
   -7    1    9      0.81      0.00
   -6    1    9      5.41      0.00
   -5    1    9      1.53      0.00
   -4    1    9     15.16      0.00
   -3    1    9      2.93      0.00
   -2    1    9    -18.07      0.00
   -1    1    9      9.20      0.00
    0    1    9     -5.97      0.00
    1    1    9    -26.93      0.00
    2    1    9     -0.83      0.00
    3    1    9     -7.76      0.00
    4    1    9    -13.33      0.00
    5    1    9      5.39      0.00
    6    1    9     -1.99      0.00
    7    1    9      0.16      0.00
    8    1    9      4.43      0.00
    9    1    9     -0.40      0.00
  -13    2    9     -0.12      0.00
  -12    2    9     -1.29      0.00
  -11    2    9      5.14      0.00
  -10    2    9      0.84      0.00
   -9    2    9     -1.37      0.00
   -8    2    9     -0.97      0.00
   -7    2    9     -7.68      0.00
   -6    2    9     -0.28      0.00
   -5    2    9     -6.23      0.00
   -4    2    9    -21.72      0.00
   -3    2    9      9.77      0.00
   -2    2    9      6.36      0.00
   -1    2    9    -17.02      0.00
    0    2    9     16.10      0.00
    1    2    9     13.25      0.00
    2    2    9     -2.72      0.00
    3    2    9     12.49      0.00
    4    2    9      3.12      0.00
    5    2    9     -2.96      0.00
    6    2    9      1.64      0.00
    7    2    9     -2.92      0.00
    8    2    9     -0.24      0.00
  -13    3    9      2.45      0.00
  -12    3    9     -2.44      0.00
  -11    3    9     -3.24      0.00
  -10    3    9      2.69      0.00
   -9    3    9     -0.86      0.00
   -8    3    9      6.02      0.00
   -7    3    9      7.81      0.00
   -6    3    9     -2.96      0.00
   -5    3    9     17.34      0.00
   -4    3    9     14.05      0.00
   -3    3    9    -15.08      0.00
   -2    3    9     10.73      0.00
   -1    3    9      8.37      0.00
    0    3    9    -15.64      0.00
    1    3    9     -0.44      0.00
    2    3    9     -4.01      0.00
    3    3    9     -7.22      0.00
    4    3    9      2.67      0.00
    5    3    9     -1.20      0.00
    6    3    9      2.59      0.00
    7    3    9      1.66      0.00
  -13    4    9     -1.69      0.00
  -12    4    9      4.34      0.00
  -11    4    9     -2.19      0.00
  -10    4    9     -1.24      0.00
   -9    4    9      0.76      0.00
   -8    4    9    -10.04      0.00
   -7    4    9     -2.36      0.00
   -6    4    9     -1.75      0.00
   -5    4    9    -21.44      0.00
   -4    4    9     -0.09      0.00
   -3    4    9      6.38      0.00
   -2    4    9    -14.66      0.00
   -1    4    9      2.65      0.00
    0    4    9      4.97      0.00
    1    4    9      0.47      0.00
    2    4    9      7.77      0.00
    3    4    9     -1.92      0.00
    4    4    9      0.40      0.00
    5    4    9      0.98      0.00
    6    4    9     -4.40      0.00
    7    4    9      0.40      0.00
  -13    5    9     -0.80      0.00
  -12    5    9     -0.80      0.00
  -11    5    9      4.85      0.00
  -10    5    9     -2.38      0.00
   -9    5    9      2.32      0.00
   -8    5    9      8.95      0.00
   -7    5    9     -2.50      0.00
   -6    5    9      8.70      0.00
   -5    5    9     14.03      0.00
   -4    5    9     -6.00      0.00
   -3    5    9      3.93      0.00
   -2    5    9      5.38      0.00
   -1    5    9     -2.54      0.00
    0    5    9      1.83      0.00
    1    5    9     -7.37      0.00
    2    5    9     -2.36      0.00
    3    5    9      3.78      0.00
    4    5    9     -4.44      0.00
    5    5    9      2.18      0.00
    6    5    9      2.26      0.00
  -13    6    9      1.20      0.00
  -12    6    9     -3.71      0.00
  -11    6    9     -2.24      0.00
  -10    6    9      3.57      0.00
   -9    6    9     -6.03      0.00
   -8    6    9     -2.65      0.00
   -7    6    9      2.72      0.00
   -6    6    9    -10.57      0.00
   -5    6    9     -2.66      0.00
   -4    6    9      1.37      0.00
   -3    6    9     -3.66      0.00
   -2    6    9      2.29      0.00
   -1    6    9     -4.52      0.00
    0    6    9      1.35      0.00
    1    6    9      8.47      0.00
    2    6    9     -4.34      0.00
    3    6    9      0.46      0.00
    4    6    9      3.34      0.00
    5    6    9     -3.15      0.00
  -12    7    9      3.84      0.00
  -11    7    9     -1.81      0.00
  -10    7    9     -0.32      0.00
   -9    7    9      5.49      0.00
   -8    7    9     -3.48      0.00
   -7    7    9      1.68      0.00
   -6    7    9      4.68      0.00
   -5    7    9     -1.79      0.00
   -4    7    9      4.03      0.00
   -3    7    9     -3.99      0.00
   -2    7    9     -0.49      0.00
   -1    7    9      8.35      0.00
    0    7    9     -7.32      0.00
    1    7    9     -2.08      0.00
    2    7    9      5.74      0.00
    3    7    9     -2.95      0.00
    4    7    9     -0.18      0.00
  -12    8    9     -0.36      0.00
  -11    8    9      2.12      0.00
  -10    8    9     -2.93      0.00
   -9    8    9     -0.20      0.00
   -8    8    9      2.25      0.00
   -7    8    9     -3.72      0.00
   -6    8    9      3.05      0.00
   -5    8    9     -2.47      0.00
   -4    8    9     -1.80      0.00
   -3    8    9      8.80      0.00
   -2    8    9     -7.41      0.00
   -1    8    9     -4.85      0.00
    0    8    9      7.70      0.00
    1    8    9     -4.29      0.00
    2    8    9     -3.53      0.00
    3    8    9      1.68      0.00
  -11    9    9      0.00      0.00
  -10    9    9      1.62      0.00
   -9    9    9     -2.32      0.00
   -8    9    9      2.88      0.00
   -7    9    9     -0.86      0.00
   -6    9    9     -3.34      0.00
   -5    9    9      6.37      0.00
   -4    9    9     -5.38      0.00
   -3    9    9     -4.56      0.00
   -2    9    9     11.43      0.00
   -1    9    9     -0.81      0.00
    0    9    9     -3.38      0.00
    1    9    9      5.61      0.00
    2    9    9      1.33      0.00
  -10   10    9      1.31      0.00
   -9   10    9     -0.75      0.00
   -8   10    9     -2.47      0.00
   -7   10    9      4.37      0.00
   -6   10    9     -2.26      0.00
   -5   10    9     -3.55      0.00
   -4   10    9      7.73      0.00
   -3   10    9     -2.88      0.00
   -2   10    9     -7.76      0.00
   -1   10    9      2.99      0.00
    0   10    9     -0.22      0.00
   -9   11    9      2.00      0.00
   -8   11    9     -0.95      0.00
   -7   11    9     -1.92      0.00
   -6   11    9      4.72      0.00
   -5   11    9     -0.94      0.00
   -4   11    9     -3.35      0.00
   -3   11    9      4.69      0.00
   -2   11    9      2.20      0.00
   -1  -13   10     -1.43      0.00
    0  -13   10     -1.50      0.00
    1  -13   10     -2.57      0.00
    2  -13   10      3.10      0.00
    3  -13   10      1.95      0.00
    4  -13   10     -1.26      0.00
   -3  -12   10      4.63      0.00
   -2  -12   10      4.80      0.00
   -1  -12   10     -1.58      0.00
    0  -12   10      5.27      0.00
    1  -12   10      1.15      0.00
    2  -12   10     -6.69      0.00
    3  -12   10      3.10      0.00
    4  -12   10     -1.33      0.00
    5  -12   10     -7.04      0.00
    6  -12   10      2.29      0.00
   -5  -11   10      0.82      0.00
   -4  -11   10     -0.60      0.00
   -3  -11   10     -8.50      0.00
   -2  -11   10     -0.21      0.00
   -1  -11   10      0.92      0.00
    0  -11   10     -8.99      0.00
    1  -11   10      4.08      0.00
    2  -11   10      2.98      0.00
    3  -11   10     -7.13      0.00
    4  -11   10      6.28      0.00
    5  -11   10      3.03      0.00
    6  -11   10     -5.15      0.00
    7  -11   10      2.08      0.00
   -6  -10   10      1.46      0.00
   -5  -10   10     -3.94      0.00
   -4  -10   10      5.36      0.00
   -3  -10   10      8.17      0.00
   -2  -10   10     -4.76      0.00
   -1  -10   10      4.17      0.00
    0  -10   10      7.03      0.00
    1  -10   10     -6.36      0.00
    2  -10   10      4.68      0.00
    3  -10   10      4.90      0.00
    4  -10   10     -6.30      0.00
    5  -10   10      5.42      0.00
    6  -10   10      3.71      0.00
    7  -10   10     -0.48      0.00
    8  -10   10      2.12      0.00
   -7   -9   10     -2.33      0.00
   -6   -9   10      1.77      0.00
   -5   -9   10      3.37      0.00
   -4   -9   10    -10.44      0.00
   -3   -9   10     -3.79      0.00
   -2   -9   10      5.35      0.00
   -1   -9   10     -6.69      0.00
    0   -9   10     -0.69      0.00
    1   -9   10      2.92      0.00
    2   -9   10     -6.98      0.00
    3   -9   10      0.22      0.00
    4   -9   10     -1.81      0.00
    5   -9   10     -8.48      0.00
    6   -9   10     -1.79      0.00
    7   -9   10     -6.56      0.00
    8   -9   10     -1.76      0.00
   -8   -8   10     -3.77      0.00
   -7   -8   10      5.50      0.00
   -6   -8   10     -5.46      0.00
   -5   -8   10      1.63      0.00
   -4   -8   10     11.77      0.00
   -3   -8   10     -1.24      0.00
   -2   -8   10     -3.23      0.00
   -1   -8   10      1.94      0.00
    0   -8   10     -3.85      0.00
    1   -8   10      1.51      0.00
    2   -8   10     -0.12      0.00
    3   -8   10     -0.06      0.00
    4   -8   10      9.89      0.00
    5   -8   10      3.10      0.00
    6   -8   10      7.24      0.00
    7   -8   10     11.07      0.00
    8   -8   10     -0.39      0.00
    9   -8   10      3.81      0.00
   -9   -7   10      6.38      0.00
   -8   -7   10     -2.29      0.00
   -7   -7   10     -4.68      0.00
   -6   -7   10      4.95      0.00
   -5   -7   10     -6.62      0.00
   -4   -7   10     -7.95      0.00
   -3   -7   10      3.09      0.00
   -2   -7   10      3.61      0.00
   -1   -7   10      7.50      0.00
    0   -7   10      1.63      0.00
    1   -7   10      1.66      0.00
    2   -7   10     10.04      0.00
    3   -7   10     -7.55      0.00
    4   -7   10     -6.85      0.00
    5   -7   10      0.35      0.00
    6   -7   10    -16.03      0.00
    7   -7   10     -7.42      0.00
    8   -7   10     -0.58      0.00
    9   -7   10     -6.01      0.00
  -10   -6   10     -2.22      0.00
   -9   -6   10     -4.32      0.00
   -8   -6   10      7.35      0.00
   -7   -6   10      2.21      0.00
   -6   -6   10     -0.71      0.00
   -5   -6   10      6.91      0.00
   -4   -6   10      2.65      0.00
   -3   -6   10     -0.69      0.00
   -2   -6   10    -11.82      0.00
   -1   -6   10    -11.65      0.00
    0   -6   10      2.38      0.00
    1   -6   10    -15.30      0.00
    2   -6   10    -10.38      0.00
    3   -6   10     11.89      0.00
    4   -6   10     -3.60      0.00
    5   -6   10      4.14      0.00
    6   -6   10     18.16      0.00
    7   -6   10      0.55      0.00
    8   -6   10      4.20      0.00
    9   -6   10      4.77      0.00
  -10   -5   10      4.28      0.00
   -9   -5   10     -1.42      0.00
   -8   -5   10     -7.44      0.00
   -7   -5   10     -2.07      0.00
   -6   -5   10     -3.30      0.00
   -5   -5   10     -1.35      0.00
   -4   -5   10     -3.70      0.00
   -3   -5   10      2.37      0.00
   -2   -5   10     22.76      0.00
   -1   -5   10      5.71      0.00
    0   -5   10      3.12      0.00
    1   -5   10     27.45      0.00
    2   -5   10      1.17      0.00
    3   -5   10     -5.50      0.00
    4   -5   10      9.97      0.00
    5   -5   10    -12.30      0.00
    6   -5   10    -10.79      0.00
    7   -5   10      1.79      0.00
    8   -5   10     -5.92      0.00
    9   -5   10     -1.87      0.00
  -11   -4   10     -2.51      0.00
  -10   -4   10     -3.17      0.00
   -9   -4   10      5.58      0.00
   -8   -4   10      4.72      0.00
   -7   -4   10      5.43      0.00
   -6   -4   10      2.06      0.00
   -5   -4   10     -2.79      0.00
   -4   -4   10      9.04      0.00
   -3   -4   10    -12.86      0.00
   -2   -4   10    -24.83      0.00
   -1   -4   10      1.63      0.00
    0   -4   10    -17.74      0.00
    1   -4   10    -25.09      0.00
    2   -4   10      5.29      0.00
    3   -4   10     -6.07      0.00
    4   -4   10     -5.31      0.00
    5   -4   10     14.78      0.00
    6   -4   10      1.42      0.00
    7   -4   10      0.88      0.00
    8   -4   10      3.52      0.00
    9   -4   10     -0.26      0.00
  -11   -3   10      5.20      0.00
  -10   -3   10     -1.65      0.00
   -9   -3   10     -4.18      0.00
   -8   -3   10     -4.32      0.00
   -7   -3   10     -9.11      0.00
   -6   -3   10      4.51      0.00
   -5   -3   10     -1.27      0.00
   -4   -3   10     -8.87      0.00
   -3   -3   10     23.66      0.00
   -2   -3   10     15.22      0.00
   -1   -3   10      0.16      0.00
    0   -3   10     26.47      0.00
    1   -3   10     11.56      0.00
    2   -3   10     -1.40      0.00
    3   -3   10     10.28      0.00
    4   -3   10     -4.98      0.00
    5   -3   10     -7.26      0.00
    6   -3   10      1.03      0.00
    7   -3   10     -2.21      0.00
    8   -3   10      0.91      0.00
    9   -3   10      0.00      0.00
  -12   -2   10     -3.86      0.00
  -11   -2   10     -2.28      0.00
  -10   -2   10      4.05      0.00
   -9   -2   10      0.54      0.00
   -8   -2   10      8.78      0.00
   -7   -2   10      7.29      0.00
   -6   -2   10     -8.58      0.00
   -5   -2   10      9.28      0.00
   -4   -2   10      1.11      0.00
   -3   -2   10    -24.06      0.00
   -2   -2   10     -3.37      0.00
   -1   -2   10     -8.88      0.00
    0   -2   10    -18.41      0.00
    1   -2   10     -2.08      0.00
    2   -2   10     -5.88      0.00
    3   -2   10     -2.13      0.00
    4   -2   10      6.81      0.00
    5   -2   10     -1.18      0.00
    6   -2   10      1.74      0.00
    7   -2   10     -1.39      0.00
    8   -2   10     -2.78      0.00
    9   -2   10      1.04      0.00
  -12   -1   10      3.91      0.00
  -11   -1   10     -3.20      0.00
  -10   -1   10     -1.46      0.00
   -9   -1   10     -0.78      0.00
   -8   -1   10    -13.76      0.00
   -7   -1   10     -0.03      0.00
   -6   -1   10      4.48      0.00
   -5   -1   10    -12.55      0.00
   -4   -1   10      7.25      0.00
   -3   -1   10     12.78      0.00
   -2   -1   10      1.02      0.00
   -1   -1   10     10.76      0.00
    0   -1   10      2.34      0.00
    1   -1   10      3.51      0.00
    2   -1   10      4.73      0.00
    3   -1   10     -6.84      0.00
    4   -1   10      0.92      0.00
    5   -1   10      2.04      0.00
    6   -1   10     -2.87      0.00
    7   -1   10      6.63      0.00
    8   -1   10      0.70      0.00
  -12    0   10     -0.71      0.00
  -11    0   10      4.97      0.00
  -10    0   10     -2.35      0.00
   -9    0   10      6.60      0.00
   -8    0   10     12.03      0.00
   -7    0   10     -4.40      0.00
   -6    0   10      3.30      0.00
   -5    0   10      7.75      0.00
   -4    0   10     -6.86      0.00
   -3    0   10     -1.90      0.00
   -2    0   10     -6.25      0.00
   -1    0   10     -0.28      0.00
    0    0   10      5.26      0.00
    1    0   10     -8.09      0.00
    2    0   10      4.30      0.00
    3    0   10      6.56      0.00
    4    0   10     -7.28      0.00
    5    0   10      3.20      0.00
    6    0   10     -0.76      0.00
    7    0   10     -7.64      0.00
    8    0   10      0.59      0.00
  -13    1   10      1.95      0.00
  -12    1   10     -1.72      0.00
  -11    1   10     -1.81      0.00
  -10    1   10      1.70      0.00
   -9    1   10    -11.07      0.00
   -8    1   10     -5.39      0.00
   -7    1   10      1.80      0.00
   -6    1   10     -6.12      0.00
   -5    1   10     -1.44      0.00
   -4    1   10     -1.88      0.00
   -3    1   10      2.55      0.00
   -2    1   10      7.14      0.00
   -1    1   10    -12.62      0.00
    0    1   10      0.30      0.00
    1    1   10      6.73      0.00
    2    1   10    -12.18      0.00
    3    1   10      0.42      0.00
    4    1   10      4.99      0.00
    5    1   10     -6.97      0.00
    6    1   10      5.72      0.00
    7    1   10      4.43      0.00
    8    1   10      1.05      0.00
  -13    2   10     -2.03      0.00
  -12    2   10      1.69      0.00
  -11    2   10     -2.08      0.00
  -10    2   10      3.11      0.00
   -9    2   10      8.50      0.00
   -8    2   10      1.36      0.00
   -7    2   10      2.95      0.00
   -6    2   10      1.47      0.00
   -5    2   10      2.61      0.00
   -4    2   10      6.66      0.00
   -3    2   10    -10.69      0.00
   -2    2   10      1.99      0.00
   -1    2   10     15.03      0.00
    0    2   10     -9.82      0.00
    1    2   10      2.23      0.00
    2    2   10     11.84      0.00
    3    2   10     -5.08      0.00
    4    2   10      3.31      0.00
    5    2   10      3.70      0.00
    6    2   10     -6.08      0.00
    7    2   10     -1.84      0.00
  -13    3   10      0.62      0.00
  -12    3   10      0.78      0.00
  -11    3   10      1.38      0.00
  -10    3   10     -5.35      0.00
   -9    3   10     -2.45      0.00
   -8    3   10     -2.34      0.00
   -7    3   10     -2.54      0.00
   -6    3   10      3.24      0.00
   -5    3   10     -8.41      0.00
   -4    3   10     -0.11      0.00
   -3    3   10     13.40      0.00
   -2    3   10    -13.81      0.00
   -1    3   10     -4.51      0.00
    0    3   10      9.90      0.00
    1    3   10    -10.36      0.00
    2    3   10     -4.54      0.00
    3    3   10      0.81      0.00
    4    3   10     -7.18      0.00
    5    3   10      1.57      0.00
    6    3   10      2.30      0.00
    7    3   10      1.34      0.00
  -13    4   10      0.58      0.00
  -12    4   10     -2.15      0.00
  -11    4   10      2.21      0.00
  -10    4   10      2.14      0.00
   -9    4   10     -0.97      0.00
   -8    4   10      4.41      0.00
   -7    4   10     -3.36      0.00
   -6    4   10     -1.72      0.00
   -5    4   10      9.05      0.00
   -4    4   10    -10.64      0.00
   -3    4   10     -4.65      0.00
   -2    4   10     14.75      0.00
   -1    4   10     -5.46      0.00
    0    4   10     -0.61      0.00
    1    4   10      8.74      0.00
    2    4   10      0.60      0.00
    3    4   10      6.74      0.00
    4    4   10      3.56      0.00
    5    4   10     -1.95      0.00
    6    4   10      0.62      0.00
  -12    5   10      0.28      0.00
  -11    5   10     -3.20      0.00
  -10    5   10      2.84      0.00
   -9    5   10     -0.60      0.00
   -8    5   10     -2.59      0.00
   -7    5   10      7.63      0.00
   -6    5   10     -3.03      0.00
   -5    5   10     -2.44      0.00
   -4    5   10     13.08      0.00
   -3    5   10     -5.12      0.00
   -2    5   10     -5.71      0.00
   -1    5   10      4.20      0.00
    0    5   10     -5.40      0.00
    1    5   10     -2.06      0.00
    2    5   10     -4.38      0.00
    3    5   10     -8.16      0.00
    4    5   10      0.32      0.00
    5    5   10     -0.81      0.00
  -12    6   10      2.12      0.00
  -11    6   10      0.09      0.00
  -10    6   10     -4.19      0.00
   -9    6   10      3.57      0.00
   -8    6   10     -2.34      0.00
   -7    6   10     -5.79      0.00
   -6    6   10      5.37      0.00
   -5    6   10     -4.60      0.00
   -4    6   10     -5.96      0.00
   -3    6   10      5.41      0.00
   -2    6   10     -0.24      0.00
   -1    6   10      2.80      0.00
    1    6   10      0.27      0.00
    2    6   10      8.81      0.00
    3    6   10      3.99      0.00
    4    6   10     -0.32      0.00
  -12    7   10     -1.81      0.00
  -11    7   10      3.14      0.00
  -10    7   10      1.19      0.00
   -9    7   10     -3.05      0.00
   -8    7   10      5.36      0.00
   -7    7   10      0.25      0.00
   -6    7   10     -2.57      0.00
   -5    7   10      5.18      0.00
   -4    7   10     -0.53      0.00
   -3    7   10     -0.19      0.00
   -2    7   10     -2.02      0.00
   -1    7   10     -5.97      0.00
    0    7   10      2.29      0.00
    1    7   10     -3.96      0.00
    2    7   10     -8.00      0.00
    3    7   10     -0.28      0.00
  -11    8   10     -2.84      0.00
  -10    8   10      1.52      0.00
   -9    8   10     -0.81      0.00
   -8    8   10     -3.36      0.00
   -7    8   10      2.18      0.00
   -6    8   10     -1.79      0.00
   -5    8   10     -0.47      0.00
   -4    8   10     -0.01      0.00
   -3    8   10     -2.47      0.00
   -2    8   10      7.57      0.00
   -1    8   10      1.98      0.00
    0    8   10     -3.56      0.00
    1    8   10      6.63      0.00
    2    8   10      3.64      0.00
  -10    9   10     -0.75      0.00
   -9    9   10      2.85      0.00
   -8    9   10     -0.02      0.00
   -7    9   10      0.58      0.00
   -6    9   10      1.56      0.00
   -5    9   10     -2.38      0.00
   -4    9   10      4.64      0.00
   -3    9   10     -0.48      0.00
   -2    9   10     -7.99      0.00
   -1    9   10      3.65      0.00
    0    9   10      1.51      0.00
    1    9   10     -4.96      0.00
   -9   10   10     -1.32      0.00
   -8   10   10     -0.04      0.00
   -7   10   10     -2.24      0.00
   -6   10   10      1.94      0.00
   -5   10   10     -0.19      0.00
   -4   10   10     -5.94      0.00
   -3   10   10      3.87      0.00
   -2   10   10      2.85      0.00
   -1   10   10     -5.01      0.00
   -2  -12   11      0.79      0.00
   -1  -12   11      3.08      0.00
    0  -12   11     -1.39      0.00
    1  -12   11     -0.74      0.00
    2  -12   11      0.29      0.00
    3  -12   11     -4.52      0.00
    4  -12   11     -0.47      0.00
   -4  -11   11     -2.10      0.00
   -3  -11   11      0.24      0.00
   -2  -11   11     -4.55      0.00
   -1  -11   11     -2.82      0.00
    0  -11   11      4.92      0.00
    1  -11   11     -1.93      0.00
    2  -11   11      3.39      0.00
    3  -11   11      8.40      0.00
    4  -11   11     -1.77      0.00
    5  -11   11      2.32      0.00
    6  -11   11      5.85      0.00
   -6  -10   11     -0.97      0.00
   -5  -10   11      3.50      0.00
   -4  -10   11     -0.46      0.00
   -3  -10   11      1.49      0.00
   -2  -10   11      9.89      0.00
   -1  -10   11     -1.07      0.00
    0  -10   11     -2.83      0.00
    1  -10   11      4.21      0.00
    2  -10   11     -9.58      0.00
    3  -10   11     -7.06      0.00
    4  -10   11      2.15      0.00
    5  -10   11     -8.76      0.00
    6  -10   11     -4.77      0.00
    7  -10   11      0.60      0.00
   -7   -9   11      4.67      0.00
   -6   -9   11     -2.36      0.00
   -5   -9   11     -2.82      0.00
   -4   -9   11      2.86      0.00
   -3   -9   11     -7.79      0.00
   -2   -9   11    -11.72      0.00
   -1   -9   11      3.05      0.00
    0   -9   11     -3.75      0.00
    1   -9   11     -2.11      0.00
    2   -9   11     11.26      0.00
    3   -9   11      1.39      0.00
    4   -9   11      2.94      0.00
    5   -9   11     10.44      0.00
    6   -9   11      1.04      0.00
    7   -9   11      2.89      0.00
   -8   -8   11     -3.35      0.00
   -7   -8   11     -5.53      0.00
   -6   -8   11      7.05      0.00
   -5   -8   11     -0.10      0.00
   -4   -8   11     -1.14      0.00
   -3   -8   11     14.33      0.00
   -2   -8   11      9.24      0.00
   -1   -8   11     -0.18      0.00
    0   -8   11      7.60      0.00
    1   -8   11     -1.93      0.00
    2   -8   11     -4.76      0.00
    3   -8   11      0.49      0.00
    4   -8   11     -8.32      0.00
    5   -8   11     -3.27      0.00
    6   -8   11     -1.48      0.00
    7   -8   11     -3.96      0.00
    8   -8   11      2.49      0.00
   -9   -7   11      0.05      0.00
   -8   -7   11      7.58      0.00
   -7   -7   11      0.75      0.00
   -6   -7   11     -9.02      0.00
   -5   -7   11      1.94      0.00
   -4   -7   11     -3.99      0.00
   -3   -7   11    -15.92      0.00
   -2   -7   11     -6.11      0.00
   -1   -7   11     -4.58      0.00
    0   -7   11     -4.20      0.00
    1   -7   11      1.26      0.00
    2   -7   11     -3.33      0.00
    3   -7   11      5.28      0.00
    4   -7   11      3.48      0.00
    5   -7   11     -3.08      0.00
    6   -7   11      5.01      0.00
    7   -7   11     -1.65      0.00
    8   -7   11     -3.25      0.00
   -9   -6   11     -1.79      0.00
   -8   -6   11     -8.32      0.00
   -7   -6   11      5.38      0.00
   -6   -6   11      7.75      0.00
   -5   -6   11     -1.07      0.00
   -4   -6   11      8.82      0.00
   -3   -6   11     11.62      0.00
   -2   -6   11      7.02      0.00
   -1   -6   11      4.20      0.00
    0   -6   11     -2.19      0.00
    1   -6   11      6.20      0.00
    2   -6   11      1.32      0.00
    3   -6   11     -7.84      0.00
    4   -6   11      7.17      0.00
    5   -6   11      1.16      0.00
    6   -6   11     -4.10      0.00
    7   -6   11      8.52      0.00
    8   -6   11      0.90      0.00
  -10   -5   11     -0.65      0.00
   -9   -5   11      5.15      0.00
   -8   -5   11      4.55      0.00
   -7   -5   11     -7.95      0.00
   -6   -5   11     -5.07      0.00
   -5   -5   11     -3.24      0.00
   -4   -5   11     -7.62      0.00
   -3   -5   11     -8.18      0.00
   -2   -5   11     -9.26      0.00
   -1   -5   11      4.29      0.00
    0   -5   11      2.26      0.00
    1   -5   11    -10.78      0.00
    2   -5   11      8.23      0.00
    3   -5   11      1.04      0.00
    4   -5   11    -11.93      0.00
    5   -5   11      4.54      0.00
    6   -5   11     -3.44      0.00
    7   -5   11     -9.89      0.00
    8   -5   11      0.83      0.00
  -11   -4   11      0.65      0.00
  -10   -4   11     -0.04      0.00
   -9   -4   11     -6.82      0.00
   -8   -4   11      0.02      0.00
   -7   -4   11      6.00      0.00
   -6   -4   11      5.00      0.00
   -5   -4   11      6.31      0.00
   -4   -4   11      1.12      0.00
   -3   -4   11     10.01      0.00
   -2   -4   11      4.89      0.00
   -1   -4   11    -14.05      0.00
    0   -4   11      4.62      0.00
    1   -4   11      4.12      0.00
    2   -4   11    -13.24      0.00
    3   -4   11      8.55      0.00
    4   -4   11      7.56      0.00
    5   -4   11     -4.88      0.00
    6   -4   11     11.49      0.00
    7   -4   11      6.23      0.00
    8   -4   11     -0.48      0.00
  -11   -3   11     -2.60      0.00
  -10   -3   11      3.61      0.00
   -9   -3   11      4.48      0.00
   -8   -3   11     -1.55      0.00
   -7   -3   11     -2.45      0.00
   -6   -3   11     -9.01      0.00
   -5   -3   11     -1.70      0.00
   -4   -3   11      2.92      0.00
   -3   -3   11    -12.21      0.00
   -2   -3   11      7.76      0.00
   -1   -3   11     15.76      0.00
    0   -3   11     -8.15      0.00
    1   -3   11      8.69      0.00
    2   -3   11      8.27      0.00
    3   -3   11    -12.48      0.00
    4   -3   11     -0.05      0.00
    5   -3   11     -3.16      0.00
    6   -3   11    -12.46      0.00
    7   -3   11     -2.70      0.00
    8   -3   11     -0.85      0.00
  -11   -2   11      0.58      0.00
  -10   -2   11     -4.89      0.00
   -9   -2   11     -0.41      0.00
   -8   -2   11     -1.24      0.00
   -7   -2   11      2.97      0.00
   -6   -2   11     10.72      0.00
   -5   -2   11     -7.75      0.00
   -4   -2   11     -0.46      0.00
   -3   -2   11      8.03      0.00
   -2   -2   11    -20.23      0.00
   -1   -2   11     -8.87      0.00
    0   -2   11      0.52      0.00
    1   -2   11    -14.34      0.00
    2   -2   11      1.42      0.00
    3   -2   11      7.11      0.00
    4   -2   11     -0.54      0.00
    5   -2   11      9.96      0.00
    6   -2   11      7.08      0.00
    7   -2   11      2.32      0.00
    8   -2   11      1.81      0.00
  -12   -1   11     -1.59      0.00
  -11   -1   11      3.19      0.00
  -10   -1   11      1.49      0.00
   -9   -1   11     -0.97      0.00
   -8   -1   11      4.72      0.00
   -7   -1   11     -8.36      0.00
   -6   -1   11     -4.81      0.00
   -5   -1   11     12.85      0.00
   -4   -1   11     -5.08      0.00
   -3   -1   11      3.15      0.00
   -2   -1   11     20.69      0.00
   -1   -1   11      4.38      0.00
    0   -1   11     10.16      0.00
    1   -1   11      7.35      0.00
    2   -1   11     -4.52      0.00
    3   -1   11      0.00      0.00
    4   -1   11     -5.21      0.00
    5   -1   11     -7.49      0.00
    6   -1   11     -1.91      0.00
    7   -1   11     -4.19      0.00
  -12    0   11     -0.64      0.00
  -11    0   11     -4.00      0.00
  -10    0   11      3.20      0.00
   -9    0   11     -2.44      0.00
   -8    0   11     -2.51      0.00
   -7    0   11     11.50      0.00
   -6    0   11     -4.33      0.00
   -5    0   11     -8.76      0.00
   -4    0   11      5.59      0.00
   -3    0   11    -10.92      0.00
   -2    0   11    -10.99      0.00
   -1    0   11     -8.11      0.00
    0    0   11    -10.52      0.00
    1    0   11      1.93      0.00
    2    0   11     -1.10      0.00
    3    0   11     -0.11      0.00
    4    0   11      8.28      0.00
    5    0   11     -0.47      0.00
    6    0   11      1.73      0.00
    7    0   11      4.48      0.00
  -12    1   11      3.01      0.00
  -11    1   11      1.26      0.00
  -10    1   11     -3.71      0.00
   -9    1   11      5.43      0.00
   -8    1   11     -4.22      0.00
   -7    1   11     -8.16      0.00
   -6    1   11      8.02      0.00
   -5    1   11      1.18      0.00
   -4    1   11      0.06      0.00
   -3    1   11      7.03      0.00
   -2    1   11      4.42      0.00
   -1    1   11     12.79      0.00
    0    1   11      1.45      0.00
    1    1   11     -2.44      0.00
    2    1   11      6.76      0.00
    3    1   11     -5.39      0.00
    4    1   11     -4.62      0.00
    5    1   11      4.90      0.00
    6    1   11     -4.77      0.00
    7    1   11     -1.69      0.00
  -12    2   11     -3.66      0.00
  -11    2   11      1.97      0.00
  -10    2   11     -0.09      0.00
   -9    2   11     -2.73      0.00
   -8    2   11      8.48      0.00
   -7    2   11      2.26      0.00
   -6    2   11     -3.46      0.00
   -5    2   11      0.32      0.00
   -4    2   11     -2.97      0.00
   -3    2   11      2.07      0.00
   -2    2   11     -7.43      0.00
   -1    2   11    -10.94      0.00
    0    2   11      6.15      0.00
    1    2   11     -4.92      0.00
    2    2   11     -5.40      0.00
    3    2   11      8.69      0.00
    4    2   11     -2.22      0.00
    5    2   11     -1.35      0.00
    6    2   11      5.01      0.00
  -12    3   11      1.63      0.00
  -11    3   11     -2.10      0.00
  -10    3   11      2.19      0.00
   -9    3   11     -3.07      0.00
   -8    3   11     -6.69      0.00
   -7    3   11     -0.83      0.00
   -6    3   11     -1.66      0.00
   -5    3   11      3.62      0.00
   -4    3   11     -1.66      0.00
   -3    3   11     -4.74      0.00
   -2    3   11     14.48      0.00
   -1    3   11      2.07      0.00
    0    3   11     -4.45      0.00
    1    3   11     10.50      0.00
    2    3   11     -0.75      0.00
    3    3   11     -4.11      0.00
    4    3   11      4.31      0.00
    5    3   11     -3.98      0.00
  -12    4   11      1.00      0.00
  -11    4   11      0.27      0.00
  -10    4   11      0.39      0.00
   -9    4   11      5.51      0.00
   -8    4   11      2.26      0.00
   -7    4   11      4.29      0.00
   -6    4   11      0.05      0.00
   -5    4   11     -4.85      0.00
   -4    4   11      8.42      0.00
   -3    4   11     -2.73      0.00
   -2    4   11    -13.66      0.00
   -1    4   11      5.29      0.00
    0    4   11     -3.08      0.00
    1    4   11     -7.78      0.00
    2    4   11      2.79      0.00
    3    4   11     -3.05      0.00
    4    4   11     -0.42      0.00
    5    4   11      4.33      0.00
  -12    5   11     -1.58      0.00
  -11    5   11     -0.14      0.00
  -10    5   11     -3.99      0.00
   -9    5   11     -2.09      0.00
   -8    5   11     -1.23      0.00
   -7    5   11     -5.43      0.00
   -6    5   11      4.56      0.00
   -5    5   11      0.40      0.00
   -4    5   11     -8.36      0.00
   -3    5   11      9.92      0.00
   -2    5   11      4.57      0.00
   -1    5   11     -4.22      0.00
    0    5   11      6.49      0.00
    1    5   11      1.76      0.00
    2    5   11      1.12      0.00
    3    5   11      4.34      0.00
    4    5   11     -2.66      0.00
  -11    6   11      2.21      0.00
  -10    6   11      3.72      0.00
   -9    6   11     -1.87      0.00
   -8    6   11      3.08      0.00
   -7    6   11      2.32      0.00
   -6    6   11     -5.51      0.00
   -5    6   11      4.29      0.00
   -4    6   11      2.06      0.00
   -3    6   11     -7.78      0.00
   -2    6   11      1.54      0.00
   -1    6   11     -0.52      0.00
    0    6   11     -3.23      0.00
    1    6   11      0.25      0.00
    2    6   11     -4.05      0.00
    3    6   11     -0.99      0.00
  -11    7   11     -3.38      0.00
  -10    7   11     -0.67      0.00
   -9    7   11      1.72      0.00
   -8    7   11     -4.08      0.00
   -7    7   11      0.64      0.00
   -6    7   11      2.49      0.00
   -5    7   11     -4.23      0.00
   -4    7   11      1.59      0.00
   -3    7   11      1.85      0.00
   -2    7   11     -0.96      0.00
   -1    7   11      1.81      0.00
    0    7   11     -1.23      0.00
    1    7   11      1.49      0.00
    2    7   11      2.61      0.00
  -10    8   11     -0.98      0.00
   -9    8   11      0.98      0.00
   -8    8   11      3.23      0.00
   -7    8   11     -1.13      0.00
   -6    8   11      0.43      0.00
   -5    8   11      1.69      0.00
   -4    8   11     -0.12      0.00
   -3    8   11      0.93      0.00
   -2    8   11     -1.67      0.00
   -1    8   11      1.37      0.00
    0    8   11      1.95      0.00
   -9    9   11     -2.41      0.00
   -8    9   11     -1.49      0.00
   -7    9   11      0.15      0.00
   -6    9   11     -0.81      0.00
   -5    9   11     -0.73      0.00
   -4    9   11     -2.60      0.00
   -3    9   11      0.40      0.00
   -2    9   11      1.35      0.00
   -1    9   11     -3.74      0.00
   -5   10   11      1.94      0.00
   -3  -11   12     -1.55      0.00
   -2  -11   12      0.15      0.00
   -1  -11   12      0.16      0.00
    0  -11   12     -2.74      0.00
    1  -11   12      1.32      0.00
    2  -11   12     -1.67      0.00
    3  -11   12     -1.95      0.00
    4  -11   12      2.09      0.00
   -4  -10   12      0.76      0.00
   -3  -10   12      0.96      0.00
   -2  -10   12     -3.55      0.00
   -1  -10   12      3.13      0.00
    0  -10   12      0.09      0.00
    1  -10   12     -4.75      0.00
    2  -10   12      3.22      0.00
    3  -10   12     -0.96      0.00
    4  -10   12     -5.16      0.00
    5  -10   12      3.08      0.00
   -6   -9   12      4.94      0.00
   -5   -9   12      1.47      0.00
   -4   -9   12     -2.41      0.00
   -3   -9   12      3.43      0.00
   -2   -9   12      3.22      0.00
   -1   -9   12     -5.79      0.00
    0   -9   12      5.92      0.00
    1   -9   12      4.97      0.00
    2   -9   12     -2.67      0.00
    3   -9   12      8.13      0.00
    4   -9   12      5.08      0.00
    5   -9   12     -2.12      0.00
    6   -9   12      4.57      0.00
   -7   -8   12     -2.41      0.00
   -6   -8   12     -7.52      0.00
   -5   -8   12      2.39      0.00
   -4   -8   12      2.36      0.00
   -3   -8   12     -7.05      0.00
   -2   -8   12      1.97      0.00
   -1   -8   12      4.61      0.00
    0   -8   12     -9.32      0.00
    1   -8   12     -1.86      0.00
    2   -8   12     -3.08      0.00
    3   -8   12    -12.45      0.00
    4   -8   12     -2.66      0.00
    5   -8   12     -5.05      0.00
    6   -8   12     -5.77      0.00
   -8   -7   12     -1.11      0.00
   -7   -7   12      5.99      0.00
   -6   -7   12      5.62      0.00
   -5   -7   12     -7.45      0.00
   -4   -7   12     -0.67      0.00
   -3   -7   12      5.60      0.00
   -2   -7   12     -7.90      0.00
   -1   -7   12     -1.51      0.00
    0   -7   12      6.28      0.00
    1   -7   12      0.59      0.00
    2   -7   12     10.25      0.00
    3   -7   12      8.04      0.00
    4   -7   12      5.94      0.00
    5   -7   12      9.87      0.00
    6   -7   12      2.00      0.00
    7   -7   12      1.71      0.00
   -9   -6   12     -1.54      0.00
   -8   -6   12      1.01      0.00
   -7   -6   12     -7.95      0.00
   -6   -6   12     -0.25      0.00
   -5   -6   12     10.87      0.00
   -4   -6   12     -1.38      0.00
   -3   -6   12      1.40      0.00
   -2   -6   12      9.89      0.00
   -1   -6   12      1.03      0.00
    0   -6   12     -0.13      0.00
    1   -6   12     -5.34      0.00
    2   -6   12     -8.38      0.00
    3   -6   12     -4.23      0.00
    4   -6   12    -11.95      0.00
    5   -6   12     -5.74      0.00
    6   -6   12     -0.58      0.00
    7   -6   12     -4.98      0.00
   -9   -5   12     -0.70      0.00
   -8   -5   12      0.59      0.00
   -7   -5   12      6.95      0.00
   -6   -5   12     -5.84      0.00
   -5   -5   12     -9.39      0.00
   -4   -5   12     -1.02      0.00
   -3   -5   12     -7.95      0.00
   -2   -5   12     -7.98      0.00
   -1   -5   12     -5.39      0.00
    0   -5   12     -0.49      0.00
    1   -5   12      8.85      0.00
    2   -5   12     -0.05      0.00
    3   -5   12      8.11      0.00
    4   -5   12     11.80      0.00
    5   -5   12     -1.34      0.00
    6   -5   12      3.85      0.00
    7   -5   12      2.99      0.00
  -10   -4   12     -2.09      0.00
   -9   -4   12      2.72      0.00
   -8   -4   12     -2.73      0.00
   -7   -4   12     -3.11      0.00
   -6   -4   12      8.33      0.00
   -5   -4   12      6.58      0.00
   -4   -4   12      8.13      0.00
   -3   -4   12      7.48      0.00
   -2   -4   12      7.61      0.00
   -1   -4   12     10.07      0.00
    0   -4   12     -5.94      0.00
    1   -4   12     -3.98      0.00
    2   -4   12      3.01      0.00
    3   -4   12    -13.85      0.00
    4   -4   12     -5.11      0.00
    5   -4   12      3.80      0.00
    6   -4   12     -6.04      0.00
    7   -4   12      1.95      0.00
  -10   -3   12     -1.10      0.00
   -9   -3   12     -1.54      0.00
   -8   -3   12      3.30      0.00
   -7   -3   12     -1.75      0.00
   -6   -3   12     -5.32      0.00
   -5   -3   12     -9.55      0.00
   -4   -3   12    -11.11      0.00
   -3   -3   12     -2.22      0.00
   -2   -3   12    -12.19      0.00
   -1   -3   12     -7.76      0.00
    0   -3   12     11.03      0.00
    1   -3   12     -4.21      0.00
    2   -3   12      2.46      0.00
    3   -3   12     14.07      0.00
    4   -3   12     -3.60      0.00
    5   -3   12     -0.71      0.00
    6   -3   12      3.21      0.00
    7   -3   12     -4.34      0.00
  -11   -2   12     -2.01      0.00
  -10   -2   12      2.08      0.00
   -9   -2   12     -1.56      0.00
   -8   -2   12     -0.59      0.00
   -7   -2   12      2.43      0.00
   -6   -2   12      2.81      0.00
   -5   -2   12     15.07      0.00
   -4   -2   12      4.86      0.00
   -3   -2   12      0.15      0.00
   -2   -2   12     16.90      0.00
   -1   -2   12     -2.55      0.00
    0   -2   12     -7.57      0.00
    1   -2   12      6.13      0.00
    2   -2   12     -9.20      0.00
    3   -2   12     -5.30      0.00
    4   -2   12      7.06      0.00
    5   -2   12     -1.99      0.00
    6   -2   12      1.64      0.00
    7   -2   12      3.50      0.00
  -11   -1   12     -0.26      0.00
  -10   -1   12      0.72      0.00
   -9   -1   12      2.63      0.00
   -8   -1   12     -2.83      0.00
   -7   -1   12      2.29      0.00
   -6   -1   12     -5.71      0.00
   -5   -1   12    -14.30      0.00
   -4   -1   12      5.11      0.00
   -3   -1   12     -4.93      0.00
   -2   -1   12    -12.05      0.00
   -1   -1   12     10.04      0.00
    0   -1   12      0.20      0.00
    1   -1   12     -0.16      0.00
    2   -1   12      7.24      0.00
    3   -1   12     -4.84      0.00
    4   -1   12     -3.61      0.00
    5   -1   12     -0.35      0.00
    6   -1   12     -4.36      0.00
  -11    0   12      0.39      0.00
  -10    0   12     -4.08      0.00
   -9    0   12      0.64      0.00
   -8    0   12      1.16      0.00
   -7    0   12     -5.70      0.00
   -6    0   12     10.37      0.00
   -5    0   12      5.50      0.00
   -4    0   12     -8.64      0.00
   -3    0   12      8.67      0.00
   -2    0   12      0.64      0.00
   -1    0   12     -7.01      0.00
    0    0   12      1.32      0.00
    1    0   12     -4.22      0.00
    2    0   12      1.96      0.00
    3    0   12      5.77      0.00
    4    0   12      0.68      0.00
    5    0   12      5.64      0.00
    6    0   12      3.27      0.00
  -11    1   12      1.47      0.00
  -10    1   12      3.65      0.00
   -9    1   12     -3.78      0.00
   -8    1   12      4.45      0.00
   -7    1   12      3.02      0.00
   -6    1   12    -10.84      0.00
   -5    1   12      3.72      0.00
   -4    1   12      4.28      0.00
   -3    1   12     -4.81      0.00
   -2    1   12      4.40      0.00
   -1    1   12      0.35      0.00
    0    1   12      2.53      0.00
    1    1   12      1.12      0.00
    2    1   12     -6.92      0.00
    3    1   12     -0.20      0.00
    4    1   12     -3.55      0.00
    5    1   12     -8.17      0.00
  -11    2   12     -2.94      0.00
  -10    2   12      0.13      0.00
   -9    2   12      2.16      0.00
   -8    2   12     -7.15      0.00
   -7    2   12      3.22      0.00
   -6    2   12      5.84      0.00
   -5    2   12     -5.19      0.00
   -4    2   12     -0.30      0.00
   -3    2   12     -1.22      0.00
   -2    2   12     -0.34      0.00
   -1    2   12      1.57      0.00
    0    2   12     -5.49      0.00
    1    2   12      4.46      0.00
    2    2   12      3.62      0.00
    3    2   12     -2.10      0.00
    4    2   12      8.71      0.00
    5    2   12      4.80      0.00
  -11    3   12      2.12      0.00
  -10    3   12     -2.43      0.00
   -9    3   12      1.79      0.00
   -8    3   12      3.48      0.00
   -7    3   12     -5.97      0.00
   -6    3   12     -1.08      0.00
   -5    3   12      0.83      0.00
   -4    3   12      1.59      0.00
   -3    3   12      2.77      0.00
   -2    3   12     -5.91      0.00
    0    3   12      4.10      0.00
    1    3   12     -6.01      0.00
    2    3   12      1.89      0.00
    3    3   12     -1.90      0.00
    4    3   12     -8.51      0.00
  -11    4   12     -0.28      0.00
  -10    4   12      1.33      0.00
   -9    4   12     -2.71      0.00
   -8    4   12      2.00      0.00
   -7    4   12      2.63      0.00
   -6    4   12      1.67      0.00
   -5    4   12      1.38      0.00
   -4    4   12     -5.82      0.00
   -3    4   12      2.01      0.00
   -2    4   12      5.48      0.00
   -1    4   12     -8.02      0.00
    0    4   12      0.28      0.00
    1    4   12      2.33      0.00
    2    4   12     -2.95      0.00
    3    4   12      5.61      0.00
  -11    5   12     -0.43      0.00
  -10    5   12      0.59      0.00
   -9    5   12     -0.40      0.00
   -8    5   12     -1.79      0.00
   -7    5   12      0.60      0.00
   -6    5   12     -3.88      0.00
   -5    5   12      1.86      0.00
   -4    5   12      6.04      0.00
   -3    5   12     -6.50      0.00
   -2    5   12      1.43      0.00
   -1    5   12      6.68      0.00
    0    5   12     -2.49      0.00
    1    5   12      1.89      0.00
    2    5   12      0.16      0.00
    3    5   12     -4.08      0.00
  -10    6   12     -0.32      0.00
   -9    6   12      2.06      0.00
   -8    6   12     -2.11      0.00
   -7    6   12     -0.71      0.00
   -6    6   12      2.61      0.00
   -5    6   12     -5.43      0.00
   -4    6   12     -1.54      0.00
   -3    6   12      3.95      0.00
   -2    6   12     -5.48      0.00
   -1    6   12     -2.00      0.00
    0    6   12      0.97      0.00
    1    6   12     -2.35      0.00
   -9    7   12     -0.49      0.00
   -8    7   12      3.68      0.00
   -7    7   12      0.54      0.00
   -6    7   12      0.21      0.00
   -5    7   12      4.83      0.00
   -4    7   12     -0.50      0.00
   -3    7   12      0.77      0.00
   -2    7   12      4.11      0.00
   -1    7   12     -0.13      0.00
    0    7   12      0.77      0.00
   -8    8   12     -2.89      0.00
   -7    8   12     -0.27      0.00
   -6    8   12     -1.26      0.00
   -5    8   12     -2.96      0.00
   -4    8   12     -0.57      0.00
   -3    8   12     -2.16      0.00
   -2    8   12     -1.52      0.00
   -3  -10   13      0.01      0.00
   -2  -10   13      3.81      0.00
   -1  -10   13      1.39      0.00
    0  -10   13      4.36      0.00
    1  -10   13      4.86      0.00
    2  -10   13      0.87      0.00
    3  -10   13      2.37      0.00
   -5   -9   13      1.66      0.00
   -4   -9   13      1.52      0.00
   -3   -9   13     -2.44      0.00
   -2   -9   13     -3.03      0.00
   -1   -9   13      0.21      0.00
    0   -9   13     -8.13      0.00
    1   -9   13     -4.11      0.00
    2   -9   13      0.45      0.00
    3   -9   13     -5.92      0.00
    4   -9   13     -2.14      0.00
   -6   -8   13     -0.93      0.00
   -5   -8   13     -5.29      0.00
   -4   -8   13     -1.95      0.00
   -3   -8   13      4.66      0.00
   -2   -8   13     -2.08      0.00
   -1   -8   13      0.31      0.00
    0   -8   13      9.29      0.00
    1   -8   13     -0.49      0.00
    2   -8   13      0.70      0.00
    3   -8   13      7.12      0.00
    4   -8   13     -2.28      0.00
    5   -8   13      0.26      0.00
   -7   -7   13      0.51      0.00
   -6   -7   13      3.43      0.00
   -5   -7   13      9.01      0.00
   -4   -7   13     -0.72      0.00
   -3   -7   13     -3.40      0.00
   -2   -7   13      7.08      0.00
   -1   -7   13     -3.19      0.00
    0   -7   13     -6.14      0.00
    1   -7   13      4.50      0.00
    2   -7   13     -4.31      0.00
    3   -7   13     -0.94      0.00
    4   -7   13      3.05      0.00
    5   -7   13     -2.06      0.00
   -8   -6   13     -4.23      0.00
   -7   -6   13      0.21      0.00
   -6   -6   13     -6.73      0.00
   -5   -6   13     -9.70      0.00
   -4   -6   13      5.47      0.00
   -3   -6   13     -1.51      0.00
   -2   -6   13     -6.61      0.00
   -1   -6   13      6.04      0.00
    0   -6   13     -0.06      0.00
    1   -6   13     -2.29      0.00
    2   -6   13      2.11      0.00
    3   -6   13     -4.38      0.00
    4   -6   13     -0.29      0.00
    5   -6   13     -1.38      0.00
    6   -6   13     -2.98      0.00
   -8   -5   13      3.53      0.00
   -7   -5   13     -0.85      0.00
   -6   -5   13     10.22      0.00
   -5   -5   13      4.44      0.00
   -4   -5   13     -6.79      0.00
   -3   -5   13      4.50      0.00
   -2   -5   13      0.48      0.00
   -1   -5   13     -4.31      0.00
    0   -5   13      2.60      0.00
    1   -5   13     -0.90      0.00
    2   -5   13      5.03      0.00
    3   -5   13      2.48      0.00
    4   -5   13      1.86      0.00
    5   -5   13      5.81      0.00
    6   -5   13     -0.06      0.00
   -9   -4   13     -5.13      0.00
   -8   -4   13     -0.43      0.00
   -7   -4   13     -0.93      0.00
   -6   -4   13    -10.09      0.00
   -5   -4   13      2.52      0.00
   -4   -4   13      3.54      0.00
   -3   -4   13     -0.20      0.00
   -2   -4   13      3.65      0.00
   -1   -4   13     -0.40      0.00
    0   -4   13      1.52      0.00
    1   -4   13     -2.72      0.00
    2   -4   13     -7.72      0.00
    3   -4   13     -0.60      0.00
    4   -4   13     -7.70      0.00
    5   -4   13     -5.95      0.00
    6   -4   13      2.21      0.00
   -9   -3   13      3.04      0.00
   -8   -3   13     -1.76      0.00
   -7   -3   13      4.01      0.00
   -6   -3   13      4.20      0.00
   -5   -3   13     -3.20      0.00
   -4   -3   13     -3.28      0.00
   -3   -3   13     -6.73      0.00
   -2   -3   13     -0.77      0.00
   -1   -3   13      0.13      0.00
    0   -3   13     -5.16      0.00
    1   -3   13      9.77      0.00
    2   -3   13      5.44      0.00
    3   -3   13      3.47      0.00
    4   -3   13     12.20      0.00
    5   -3   13      2.18      0.00
    6   -3   13     -0.94      0.00
  -10   -2   13     -3.05      0.00
   -9   -2   13      0.40      0.00
   -8   -2   13      0.79      0.00
   -7   -2   13     -3.05      0.00
   -6   -2   13      0.47      0.00
   -5   -2   13      0.08      0.00
   -4   -2   13      8.54      0.00
   -3   -2   13      7.98      0.00
   -2   -2   13     -3.99      0.00
   -1   -2   13      7.02      0.00
    0   -2   13      1.15      0.00
    1   -2   13    -12.36      0.00
    2   -2   13     -2.78      0.00
    3   -2   13     -8.72      0.00
    4   -2   13    -10.26      0.00
    5   -2   13      0.96      0.00
  -10   -1   13      1.16      0.00
   -9   -1   13     -1.63      0.00
   -8   -1   13      1.04      0.00
   -7   -1   13     -1.86      0.00
   -6   -1   13      1.26      0.00
   -5   -1   13     -0.30      0.00
   -4   -1   13    -13.33      0.00
   -3   -1   13     -1.66      0.00
   -2   -1   13      1.95      0.00
   -1   -1   13    -11.02      0.00
    1   -1   13      8.01      0.00
    2   -1   13      3.09      0.00
    3   -1   13     10.29      0.00
    4   -1   13      3.33      0.00
    5   -1   13     -0.46      0.00
  -10    0   13      0.60      0.00
   -9    0   13     -0.73      0.00
   -8    0   13      0.71      0.00
   -7    0   13      3.97      0.00
   -6    0   13     -5.20      0.00
   -5    0   13      4.61      0.00
   -4    0   13     11.28      0.00
   -3    0   13     -4.79      0.00
   -2    0   13      4.31      0.00
   -1    0   13      6.07      0.00
    0    0   13     -7.46      0.00
    1    0   13     -2.70      0.00
    2    0   13     -5.31      0.00
    3    0   13     -5.15      0.00
    4    0   13      0.61      0.00
    5    0   13     -1.79      0.00
  -10    1   13     -0.07      0.00
   -9    1   13      2.71      0.00
   -8    1   13     -4.65      0.00
   -7    1   13     -0.90      0.00
   -6    1   13      5.77      0.00
   -5    1   13     -8.43      0.00
   -4    1   13     -3.68      0.00
   -3    1   13      5.13      0.00
   -2    1   13     -6.09      0.00
   -1    1   13     -0.10      0.00
    0    1   13      2.78      0.00
    1    1   13      1.85      0.00
    2    1   13      4.83      0.00
    3    1   13     -0.28      0.00
    4    1   13      1.31      0.00
  -10    2   13     -1.94      0.00
   -9    2   13     -0.83      0.00
   -8    2   13      6.16      0.00
   -7    2   13     -3.77      0.00
   -6    2   13     -1.59      0.00
   -5    2   13      7.55      0.00
   -4    2   13     -1.95      0.00
   -3    2   13     -1.73      0.00
   -2    2   13      3.59      0.00
   -1    2   13     -0.86      0.00
    0    2   13      1.56      0.00
    1    2   13     -3.32      0.00
    2    2   13     -1.74      0.00
    3    2   13      0.30      0.00
    4    2   13     -4.24      0.00
  -10    3   13      2.39      0.00
   -9    3   13     -2.82      0.00
   -8    3   13     -3.30      0.00
   -7    3   13      4.68      0.00
   -6    3   13     -2.83      0.00
   -5    3   13     -3.44      0.00
   -4    3   13      1.87      0.00
   -3    3   13     -1.66      0.00
   -2    3   13      0.01      0.00
   -1    3   13     -2.62      0.00
    0    3   13     -2.60      0.00
    1    3   13      3.37      0.00
    2    3   13     -0.63      0.00
    3    3   13      2.79      0.00
  -10    4   13     -0.80      0.00
   -9    4   13      4.02      0.00
   -8    4   13     -0.69      0.00
   -7    4   13     -0.85      0.00
   -6    4   13      2.42      0.00
   -5    4   13      0.75      0.00
   -4    4   13      2.31      0.00
   -3    4   13      0.60      0.00
   -2    4   13     -0.89      0.00
   -1    4   13      6.48      0.00
    0    4   13      0.61      0.00
    1    4   13     -0.94      0.00
    2    4   13      0.75      0.00
   -9    5   13     -1.53      0.00
   -8    5   13      0.44      0.00
   -7    5   13     -1.43      0.00
   -6    5   13      0.70      0.00
   -5    5   13     -2.07      0.00
   -4    5   13     -3.84      0.00
   -3    5   13      3.13      0.00
   -2    5   13     -2.50      0.00
   -1    5   13     -5.40      0.00
    0    5   13      1.09      0.00
    1    5   13     -1.76      0.00
   -9    6   13     -0.40      0.00
   -8    6   13      1.79      0.00
   -7    6   13     -0.12      0.00
   -6    6   13     -1.38      0.00
   -5    6   13      3.95      0.00
   -4    6   13      0.27      0.00
   -3    6   13     -2.59      0.00
   -2    6   13      4.27      0.00
   -1    6   13      0.96      0.00
   -7    7   13      1.11      0.00
   -6    7   13      0.07      0.00
   -5    7   13     -2.63      0.00
   -4    7   13      1.74      0.00
   -3    7   13     -0.04      0.00
   -2   -9   14     -0.98      0.00
   -1   -9   14     -3.14      0.00
    0   -9   14     -0.60      0.00
    1   -9   14     -3.75      0.00
   -4   -8   14      0.74      0.00
   -3   -8   14     -0.27      0.00
   -2   -8   14      5.27      0.00
   -1   -8   14      3.52      0.00
    0   -8   14      1.33      0.00
    1   -8   14      7.36      0.00
    2   -8   14      3.99      0.00
    3   -8   14     -0.58      0.00
   -5   -7   14     -1.75      0.00
   -4   -7   14      2.73      0.00
   -3   -7   14     -0.68      0.00
   -2   -7   14     -8.14      0.00
   -1   -7   14     -1.33      0.00
    0   -7   14     -3.44      0.00
    1   -7   14    -10.24      0.00
    2   -7   14     -0.83      0.00
    3   -7   14     -2.94      0.00
   -6   -6   14      0.05      0.00
   -5   -6   14     -0.25      0.00
   -4   -6   14     -7.83      0.00
   -3   -6   14      4.09      0.00
   -2   -6   14      6.69      0.00
   -1   -6   14     -1.05      0.00
    0   -6   14      8.28      0.00
    1   -6   14      7.47      0.00
    2   -6   14      0.22      0.00
    3   -6   14      5.81      0.00
    4   -6   14      1.99      0.00
   -7   -5   14      5.90      0.00
   -6   -5   14     -1.66      0.00
   -5   -5   14      6.08      0.00
   -4   -5   14      8.22      0.00
   -3   -5   14     -6.99      0.00
   -2   -5   14     -2.13      0.00
   -1   -5   14     -1.20      0.00
    0   -5   14    -10.56      0.00
    1   -5   14     -2.43      0.00
    2   -5   14     -3.94      0.00
    3   -5   14     -3.74      0.00
    4   -5   14     -1.72      0.00
   -8   -4   14     -5.23      0.00
   -7   -4   14     -4.57      0.00
   -6   -4   14      1.42      0.00
   -5   -4   14    -10.72      0.00
   -4   -4   14     -2.64      0.00
   -3   -4   14      5.46      0.00
   -2   -4   14      0.36      0.00
   -1   -4   14      6.28      0.00
    0   -4   14      6.22      0.00
    1   -4   14      3.17      0.00
    2   -4   14      4.67      0.00
    3   -4   14      1.12      0.00
    4   -4   14      2.04      0.00
   -8   -3   14      7.01      0.00
   -7   -3   14      0.98      0.00
   -6   -3   14      2.17      0.00
   -5   -3   14      7.95      0.00
   -4   -3   14     -0.93      0.00
   -3   -3   14     -2.28      0.00
   -2   -3   14     -3.78      0.00
   -1   -3   14     -6.42      0.00
    0   -3   14     -1.70      0.00
    1   -3   14     -6.45      0.00
    2   -3   14     -0.92      0.00
    3   -3   14     -0.14      0.00
    4   -3   14     -0.80      0.00
   -9   -2   14     -4.56      0.00
   -8   -2   14     -5.11      0.00
   -7   -2   14      0.17      0.00
   -6   -2   14     -3.44      0.00
   -5   -2   14     -2.55      0.00
   -4   -2   14     -0.47      0.00
   -3   -2   14      2.30      0.00
   -2   -2   14      7.59      0.00
   -1   -2   14      0.38      0.00
    0   -2   14      2.39      0.00
    1   -2   14      4.69      0.00
    2   -2   14     -3.36      0.00
    3   -2   14     -0.18      0.00
    4   -2   14     -1.21      0.00
   -9   -1   14      4.25      0.00
   -8   -1   14      2.02      0.00
   -7   -1   14      1.21      0.00
   -6   -1   14      0.23      0.00
   -5   -1   14      0.92      0.00
   -4   -1   14      2.33      0.00
   -3   -1   14     -6.27      0.00
   -2   -1   14     -5.63      0.00
   -1   -1   14      4.27      0.00
    0   -1   14     -4.05      0.00
    1   -1   14      1.59      0.00
    2   -1   14      4.81      0.00
    3   -1   14      0.28      0.00
   -9    0   14     -1.70      0.00
   -8    0   14     -1.96      0.00
   -7    0   14     -0.96      0.00
   -6    0   14      3.09      0.00
   -5    0   14     -2.07      0.00
   -4    0   14     -0.78      0.00
   -3    0   14      9.50      0.00
   -2    0   14     -0.75      0.00
   -1    0   14     -3.42      0.00
    0    0   14      1.85      0.00
    1    0   14     -5.55      0.00
    2    0   14     -3.00      0.00
    3    0   14     -1.25      0.00
   -9    1   14      0.58      0.00
   -8    1   14      3.90      0.00
   -7    1   14     -1.69      0.00
   -6    1   14     -3.94      0.00
   -5    1   14      3.24      0.00
   -4    1   14     -3.44      0.00
   -3    1   14     -7.59      0.00
   -2    1   14      4.91      0.00
   -1    1   14      1.12      0.00
    0    1   14      1.37      0.00
    1    1   14      4.13      0.00
    2    1   14      1.52      0.00
   -9    2   14     -2.42      0.00
   -8    2   14     -4.01      0.00
   -7    2   14      4.75      0.00
   -6    2   14      1.74      0.00
   -5    2   14     -2.54      0.00
   -4    2   14      5.94      0.00
   -3    2   14      2.68      0.00
   -2    2   14     -5.05      0.00
   -1    2   14      0.18      0.00
    0    2   14     -2.48      0.00
    1    2   14     -1.16      0.00
    2    2   14     -1.59      0.00
   -9    3   14      4.18      0.00
   -8    3   14      0.96      0.00
   -7    3   14     -5.06      0.00
   -6    3   14      1.31      0.00
   -5    3   14      0.47      0.00
   -4    3   14     -4.95      0.00
   -3    3   14      1.63      0.00
   -2    3   14      1.75      0.00
   -1    3   14      0.44      0.00
    0    3   14      2.10      0.00
    1    3   14     -0.34      0.00
   -8    4   14      2.45      0.00
   -7    4   14      1.76      0.00
   -6    4   14     -1.64      0.00
   -5    4   14      0.97      0.00
   -4    4   14      1.07      0.00
   -3    4   14     -1.38      0.00
   -2    4   14      1.22      0.00
   -1    4   14     -2.73      0.00
    0    4   14     -0.33      0.00
   -7    5   14      0.37      0.00
   -6    5   14     -0.16      0.00
   -5    5   14      0.17      0.00
   -4    5   14      1.34      0.00
   -3    5   14     -2.24      0.00
   -2    5   14      0.19      0.00
   -3   -7   15      2.25      0.00
   -2   -7   15      3.80      0.00
   -1   -7   15     -0.15      0.00
    0   -7   15      0.35      0.00
   -4   -6   15      1.75      0.00
   -3   -6   15     -5.26      0.00
   -2   -6   15     -2.87      0.00
   -1   -6   15      1.61      0.00
    0   -6   15     -2.40      0.00
    1   -6   15      0.74      0.00
   -5   -5   15     -1.45      0.00
   -4   -5   15      0.98      0.00
   -3   -5   15      7.60      0.00
   -2   -5   15     -0.55      0.00
   -1   -5   15     -1.46      0.00
    0   -5   15      3.17      0.00
    1   -5   15     -5.03      0.00
    2   -5   15     -2.13      0.00
   -6   -4   15     -5.05      0.00
   -5   -4   15      1.90      0.00
   -4   -4   15     -6.35      0.00
   -3   -4   15     -5.74      0.00
   -2   -4   15      3.50      0.00
   -1   -4   15     -0.24      0.00
    0   -4   15      1.18      0.00
    1   -4   15      5.74      0.00
    2   -4   15      2.10      0.00
   -7   -3   15      4.54      0.00
   -6   -3   15      3.15      0.00
   -5   -3   15      0.90      0.00
   -4   -3   15      8.04      0.00
   -3   -3   15      2.14      0.00
   -2   -3   15     -3.12      0.00
   -1   -3   15     -0.91      0.00
    0   -3   15     -5.88      0.00
    1   -3   15     -4.47      0.00
    2   -3   15     -4.13      0.00
   -7   -2   15     -4.92      0.00
   -6   -2   15     -1.18      0.00
   -5   -2   15     -3.27      0.00
   -4   -2   15     -5.72      0.00
   -3   -2   15     -0.65      0.00
   -2   -2   15      1.23      0.00
   -1   -2   15      5.28      0.00
    0   -2   15      5.92      0.00
    1   -2   15      4.83      0.00
    2   -2   15      4.07      0.00
   -7   -1   15      2.61      0.00
   -6   -1   15      1.30      0.00
   -5   -1   15      2.54      0.00
   -4   -1   15      2.86      0.00
   -3   -1   15      1.77      0.00
   -2   -1   15     -1.75      0.00
   -1   -1   15     -7.32      0.00
    0   -1   15     -3.34      0.00
    1   -1   15     -4.85      0.00
   -7    0   15     -1.71      0.00
   -6    0   15     -1.46      0.00
   -5    0   15     -0.29      0.00
   -4    0   15     -1.02      0.00
   -3    0   15     -3.09      0.00
   -2    0   15      4.54      0.00
   -1    0   15      4.49      0.00
    0    0   15      1.52      0.00
    1    0   15      2.96      0.00
   -7    1   15      2.54      0.00
   -6    1   15      0.75      0.00
   -5    1   15     -2.40      0.00
   -4    1   15      1.33      0.00
   -3    1   15      1.80      0.00
   -2    1   15     -5.55      0.00
   -1    1   15     -0.81      0.00
    0    1   15     -0.84      0.00
   -7    2   15     -3.27      0.00
   -6    2   15      1.25      0.00
   -5    2   15      3.16      0.00
   -4    2   15     -2.40      0.00
   -3    2   15      0.72      0.00
   -2    2   15      4.19      0.00
   -1    2   15     -0.90      0.00
   -6    3   15     -2.81      0.00
   -5    3   15     -1.44      0.00
   -4    3   15      2.70      0.00
   -3    3   15     -2.53      0.00
   -2    3   15     -1.36      0.00
   -3   -3   16      5.23      0.00
   -2   -3   16      5.66      0.00
   -4   -2   16     -0.93      0.00
   -3   -2   16     -5.60      0.00
   -2   -2   16     -3.12      0.00
   -3   -1   16      3.55      0.00
    1    0    0     45.51      0.00
   -1    1    0   -109.80      0.00
    0    1    0   -142.75      0.00
    2    1    0    -38.95      0.00
   11    6    0      3.55      0.00
  -14    9    0      0.34      0.00
  -10   10    0     -1.82      0.00
   -9   11    0     -2.84      0.00
   -6   13    0      0.35      0.00
    4   13    0      0.15      0.00
   -7  -11    1      0.49      0.00
   13  -11    1      0.36      0.00
   -8  -10    1     -0.47      0.00
   -9   -9    1      1.82      0.00
   14   -8    1     -1.48      0.00
    0   -1    1     82.08      0.00
  -14    0    1     -1.30      0.00
   -1    0    1     -5.45      0.00
    0    0    1    -69.27      0.00
   12    4    1      0.34      0.00
   10    7    1     -0.96      0.00
    5   12    1     -2.05      0.00
   -8   15    1      2.24      0.00
   -1   15    1     -3.25      0.00
   10  -14    2      3.04      0.00
   -6  -12    2      1.01      0.00
   12  -12    2      1.15      0.00
   -4  -11    2     -0.12      0.00
  -10   -8    2      0.84      0.00
   14   -7    2      2.28      0.00
   14   -3    2      3.56      0.00
    2   -2    2      1.52      0.00
   13    1    2     -1.89      0.00
    0    2    2    -57.35      0.00
   11    5    2     -1.49      0.00
    8    9    2      2.22      0.00
    7   10    2     -1.43      0.00
    3   13    2      1.59      0.00
  -10   14    2      1.76      0.00
    1   14    2      3.12      0.00
   -2   15    2      0.23      0.00
    8  -15    3      2.14      0.00
   -3  -14    3     -0.30      0.00
   11  -13    3     -2.38      0.00
   10   -9    3     -0.14      0.00
  -14   -1    3      3.05      0.00
   10    6    3      1.11      0.00
  -13   11    3      0.07      0.00
    4   12    3     -1.86      0.00
   -6   15    3     -1.32      0.00
   -5   15    3      0.83      0.00
   -4   15    3     -1.38      0.00
   -3  -14    4     -0.76      0.00
   12  -11    4      0.01      0.00
  -11   -7    4      1.01      0.00
   13   -2    4      0.04      0.00
  -14   -1    4     -0.29      0.00
  -14    9    4      0.05      0.00
    7    9    4     -1.76      0.00
  -12   12    4      1.29      0.00
   -9   14    4     -2.24      0.00
   -1   14    4     -0.61      0.00
    7  -15    5     -0.29      0.00
   10  -13    5      0.02      0.00
   11  -12    5      2.88      0.00
   12  -10    5      2.19      0.00
  -11   -7    5     -0.56      0.00
   13   -5    5     -1.03      0.00
  -14   -1    5     -2.26      0.00
   12    0    5      1.12      0.00
    9    6    5     -2.32      0.00
    4   11    5     -2.64      0.00
   -8   14    5      0.45      0.00
    6  -15    6     -0.24      0.00
    8  -14    6     -0.17      0.00
   -6  -12    6     -0.38      0.00
   11  -11    6     -2.66      0.00
    9    5    6     -4.52      0.00
    3   11    6     -2.59      0.00
  -11   12    6     -0.07      0.00
   -1   13    6     -2.96      0.00
    2  -15    7      5.57      0.00
    3  -15    7      1.53      0.00
    4  -15    7     -0.60      0.00
   -2  -14    7      0.17      0.00
   -7  -11    7     -4.42      0.00
  -10   -8    7     -1.23      0.00
  -12   -5    7     -0.88      0.00
   -9   -5    7      2.62      0.00
  -13   -3    7     -1.38      0.00
  -14    0    7     -0.03      0.00
    9    4    7     -1.89      0.00
  -14    7    7     -0.69      0.00
  -13    9    7      1.13      0.00
    2   11    7      2.61      0.00
    0   12    7      0.76      0.00
   -8   13    7     -2.17      0.00
   -3   13    7     -2.41      0.00
    6  -14    8     -1.16      0.00
  -10   -3    8     -8.89      0.00
   11   -3    8      3.06      0.00
  -14    2    8     -1.05      0.00
  -14    5    8     -0.97      0.00
    6    7    8      1.77      0.00
    5    8    8     -0.47      0.00
   -9   12    8      1.60      0.00
    0  -14    9      3.19      0.00
    4  -14    9     -2.81      0.00
   -3  -13    9     -1.31      0.00
  -12   -4    9     -2.60      0.00
    8    3    9     -0.76      0.00
  -13    7    9      0.35      0.00
    5    7    9      1.40      0.00
    1   10    9     -2.91      0.00
   -1   11    9     -1.84      0.00
    5  -13   10      4.56      0.00
   -4  -12   10     -0.40      0.00
   -7  -10   10     -1.45      0.00
   -8   -9   10      5.57      0.00
   -9   -8   10     -4.59      0.00
  -11   -5   10      0.10      0.00
  -12   -3   10      0.96      0.00
    9   -1   10      0.22      0.00
  -13    0   10     -1.78      0.00
  -13    5   10      0.01      0.00
    0    6   10      2.87      0.00
   -7   11   10      0.43      0.00
   -6   11   10     -2.69      0.00
   -5   11   10      3.19      0.00
   -4   11   10      2.68      0.00
    5  -12   11      1.34      0.00
    8   -1   11     -1.09      0.00
    6    3   11     -2.01      0.00
  -12    6   11      0.71      0.00
    1    8   11     -2.68      0.00
   -7   10   11      0.43      0.00
   -6   10   11     -0.08      0.00
   -4   10   11      2.56      0.00
    0  -12   12      1.20      0.00
    1  -12   12      1.21      0.00
   -5  -10   12     -2.21      0.00
    7   -8   12      1.02      0.00
    6    1   12      0.00      0.00
  -12    2   12      1.13      0.00
   -1    3   12      3.03      0.00
    4    4   12      3.16      0.00
    2    6   12      1.46      0.00
  -10    7   12     -0.85      0.00
   -9    8   12     -0.68      0.00
   -1    8   12     -0.80      0.00
   -6    9   12      1.23      0.00
   -5    9   12      1.89      0.00
   -9   -5   13      3.60      0.00
  -10   -3   13      2.96      0.00
    6   -2   13     -1.34      0.00
    0   -1   13      6.25      0.00
  -11    1   13      0.26      0.00
  -11    2   13      0.44      0.00
  -10    5   13     -0.83      0.00
    0    6   13     -0.41      0.00
   -8    7   13     -1.45      0.00
   -2    7   13     -2.07      0.00
   -3   -9   14     -0.53      0.00
    2   -9   14     -3.59      0.00
   -6   -7   14      0.16      0.00
    4   -7   14     -3.83      0.00
   -7   -6   14     -3.70      0.00
   -9   -3   14      2.30      0.00
    4   -1   14      2.57      0.00
    3    1   14      1.91      0.00
   -9    4   14     -3.30      0.00
   -8    5   14     -1.98      0.00
   -1    5   14      2.56      0.00
   -6    6   14      0.72      0.00
   -5    6   14     -2.02      0.00
   -4    6   14      0.63      0.00
    1   -7   15      1.44      0.00
   -5   -6   15      0.09      0.00
    2   -6   15      4.07      0.00
   -6   -5   15      3.40      0.00
   -8   -1   15      1.56      0.00
    2   -1   15     -1.79      0.00
   -8    0   15     -0.65      0.00
   -8    1   15     -0.13      0.00
    0    2   15      0.86      0.00
   -7    3   15      2.29      0.00
   -5    4   15     -0.60      0.00
   -4    4   15     -1.24      0.00
   -3   -4   16     -2.85      0.00
   -2   -4   16     -6.05      0.00
   -4   -3   16     -0.49      0.00
   -1   -3   16     -0.33      0.00
   -1   -2   16     -0.22      0.00
   -5   -1   16      0.62      0.00
   -4   -1   16      1.52      0.00
   -2   -1   16      1.04      0.00
   -4    0   16     -1.04      0.00
   -3    0   16     -0.36      0.00
    0    0    0      0.00      0.00
# SQUEEZE RESULTS (Version = 120716)
# Note: Data are Listed for all Voids in the P1 Unit Cell
# i.e. Centre of Gravity, Solvent Accessible Volume,
# Recovered number of Electrons in the Void and
# Details about the Squeezed Material
loop_
  _platon_squeeze_void_nr
  _platon_squeeze_void_average_x
  _platon_squeeze_void_average_y
  _platon_squeeze_void_average_z
  _platon_squeeze_void_volume
  _platon_squeeze_void_count_electrons
  _platon_squeeze_void_content
   1  0.000  0.500  0.353       453       180 ' '
# Missing Reflections Below sin(th)/lambda = 0.25
loop_
  _platon_missing_refln_index_h
  _platon_missing_refln_index_k
  _platon_missing_refln_index_l
  _platon_missing_refln_theta
    1    0    0     1.789
   -1    1    0     2.024
    0    1    0     1.661
    2    1    0     4.397
    0   -1    1     2.070
   -1    0    1     2.088
    0    0    1     1.598
    2   -2    2     5.306
    0    2    2     5.042
_platon_squeeze_void_probe_radius                  1.20
_platon_squeeze_details
)
TITL shelx     P -1         R = 0.33
CELL   12.2256   13.0137   13.2500     97.29    101.38    106.26
SPGR P-1
# Solvent Accessible Volume =       455
# Electrons Found in S.A.V. =       180
# Note: Atoms in Void as Cxxx and Qxxx all others
C101 0.642 0.310 0.500 !      28.90 eA-3
C102 0.918 0.456 0.128 !      19.48 eA-3
C103 0.703 0.468 0.356 !      18.22 eA-3
C104 0.043 0.439 0.324 !      17.82 eA-3
C105 0.969 0.376 0.200 !       5.23 eA-3
C106 0.704 0.328 0.395 !       5.18 eA-3
Q107 0.545 0.687 0.289 !       2.32 eA-3
Q108 0.411 0.937 0.201 !       2.13 eA-3
C109 0.943 0.401 0.268 !       2.05 eA-3
Q110 0.260 0.350 0.080 !       1.90 eA-3
Q111 0.157 0.133 0.300 !       1.79 eA-3
Q112 0.854 1.001 0.152 !       1.75 eA-3
Q113 0.047 0.709 0.452 !       1.74 eA-3
Q114 0.106 0.966 0.434 !       1.63 eA-3
Q115 0.998 0.222 0.504 !       1.62 eA-3
Q116 0.211 0.266 0.153 !       1.60 eA-3
Q117 0.329 0.399 0.382 !       1.52 eA-3
C118 0.310 0.752 0.468 !       1.49 eA-3
Q119 0.239 0.895 0.127 !       1.46 eA-3
Q120 0.955 0.047 0.154 !       1.46 eA-3
Q121 0.392 0.072 0.008 !       1.40 eA-3
Q122 0.371 0.423 0.400 !       1.38 eA-3
Q123 0.422 0.071 0.254 !       1.35 eA-3
Q124 0.817 0.045 0.004 !       1.29 eA-3
Q125 0.897 0.142 0.231 !       1.25 eA-3
Q126 0.932 0.981 0.135 !       1.22 eA-3
Q127 0.997 0.676 0.374 !       1.22 eA-3
Q128 0.973 0.346 0.284 !       1.21 eA-3
Q129 0.747 0.901 0.158 !       1.20 eA-3
Q130 0.543 0.764 0.068 !       1.18 eA-3
Q131 0.830 0.820 0.295 !       1.17 eA-3
C132 0.585 0.375 0.477 !       1.16 eA-3
Q133 0.768 0.206 0.244 !       1.16 eA-3
Q134 0.453 0.743 0.067 !       1.15 eA-3
Q135 0.143 0.695 0.156 !       1.14 eA-3
Q136 0.761 0.876 0.124 !       1.11 eA-3
Q137 0.791 0.998 0.455 !       1.11 eA-3
Q138 0.095 0.158 0.079 !       1.10 eA-3
C139 0.045 0.469 0.248 !       1.09 eA-3
Q140 0.626 0.735 0.129 !       1.09 eA-3
C141 1.003 0.451 0.191 !       1.09 eA-3
Q142 0.051 0.113 0.120 !       1.08 eA-3
Q143 0.258 0.686 0.480 !       1.08 eA-3
Q144 0.610 0.215 0.465 !       1.08 eA-3
Q145 0.714 1.004 0.475 !       1.06 eA-3
Q146 0.125 0.906 0.078 !       1.05 eA-3
Q147 0.971 0.923 0.301 !       1.05 eA-3
Q148 0.314 0.594 0.466 !       1.03 eA-3
Q149 0.593 0.296 0.107 !       1.03 eA-3
Q150 0.623 0.253 0.411 !       1.01 eA-3
Q151 0.328 0.955 0.489 !       0.99 eA-3
Q152 0.811 0.171 0.251 !       0.98 eA-3
Q153 0.872 0.263 0.206 !       0.98 eA-3
Q154 0.905 0.029 0.216 !       0.98 eA-3
C155 0.658 0.395 0.444 !       0.98 eA-3
Q156 0.262 0.965 0.046 !       0.95 eA-3
C157 0.288 0.656 0.419 !       0.93 eA-3
Q158 0.467 0.058 0.033 !       0.93 eA-3
C159 0.344 0.721 0.421 !       0.93 eA-3
Q160 0.826 0.431 0.080 !       0.93 eA-3
C161 0.727 0.296 0.474 !       0.92 eA-3
Q162 0.766 0.299 0.437 !       0.91 eA-3
Q163 0.198 0.457 0.073 !       0.91 eA-3
Q164 0.037 0.466 0.420 !       0.91 eA-3
C165 0.846 0.440 0.173 !       0.91 eA-3
Q166 0.314 1.007 0.011 !       0.91 eA-3
Q167 0.078 0.046 0.344 !       0.91 eA-3
C168 0.544 0.324 0.486 !       0.90 eA-3
Q169 0.723 0.812 0.157 !       0.90 eA-3
Q170 0.109 0.407 0.397 !       0.89 eA-3
C171 0.792 0.431 0.490 !       0.89 eA-3
Q172 0.844 0.293 0.128 !       0.88 eA-3
Q173 0.077 0.518 0.315 !       0.88 eA-3
Q174 0.722 0.533 0.292 !       0.88 eA-3
Q175 0.066 0.980 0.334 !       0.87 eA-3
Q176 0.277 0.957 0.099 !       0.87 eA-3
Q177 0.407 0.658 0.441 !       0.86 eA-3
Q178 0.326 0.898 0.163 !       0.85 eA-3
Q179 0.032 0.517 0.293 !       0.84 eA-3
Q180 0.974 0.170-0.007 !       0.83 eA-3
Q181 0.532 0.077 0.039 !       0.82 eA-3
C182 0.548 0.253 0.484 !       0.82 eA-3
Q183 0.015 0.125 0.174 !       0.82 eA-3
Q184 0.955 0.540 0.073 !       0.82 eA-3
Q185 0.647 0.841 0.054 !       0.81 eA-3
C186 0.965 0.497 0.221 !       0.81 eA-3
Q187 0.846 0.340 0.203 !       0.81 eA-3
Q188 0.016 0.837 0.401 !       0.80 eA-3
Q189 0.139 0.434 0.044 !       0.79 eA-3
Q190 0.545 0.299 0.437 !       0.79 eA-3
Q191 0.192 0.775 0.231 !       0.79 eA-3
Q192 0.832 0.406 0.140 !       0.79 eA-3
Q193 0.877 0.498 0.062 !       0.78 eA-3
Q194 0.138 0.164 0.205 !       0.78 eA-3
Q195 0.644 0.517 0.295 !       0.77 eA-3
Q196 0.983 0.608 0.474 !       0.77 eA-3
C197 0.752 0.423 0.299 !       0.76 eA-3
Q198 0.344 0.308 0.274 !       0.76 eA-3
Q199 0.012 0.451 0.112 !       0.75 eA-3
)
;
_shelx_fab_checksum              12796
loop_
_space_group_symop_operation_xyz
'x, y, z'
'-x, -y, -z'
loop_
_atom_site_label
_atom_site_type_symbol
_atom_site_fract_x
_atom_site_fract_y
_atom_site_fract_z
_atom_site_U_iso_or_equiv
_atom_site_adp_type
_atom_site_occupancy
_atom_site_site_symmetry_order
_atom_site_calc_flag
_atom_site_refinement_flags_posn
_atom_site_refinement_flags_adp
Mn1 Mn 0.90060(5) 0.01894(5) 0.15701(5) 0.01642(16) Uani 1 1 d . .
Cl1 Cl 0.80662(11) 0.13275(9) 0.24722(9) 0.0345(3) Uani 1 1 d . .
N1 N 0.7601(3) -0.1121(3) 0.1314(3) 0.0175(7) Uani 1 1 d . .
N2 N 0.9797(3) -0.0331(3) 0.2778(3) 0.0195(7) Uani 1 1 d . .
N3 N 1.0570(3) 0.1247(3) 0.1618(3) 0.0186(7) Uani 1 1 d . .
N4 N 0.8370(3) 0.0460(3) 0.0162(2) 0.0162(7) Uani 1 1 d . .
C1 C 0.6503(3) -0.1222(3) 0.0713(3) 0.0172(8) Uani 1 1 d . .
C2 C 0.5644(3) -0.2169(3) 0.0882(3) 0.0213(9) Uani 1 1 d . .
C3 C 0.6231(4) -0.2635(3) 0.1567(3) 0.0216(9) Uani 1 1 d . .
C4 C 0.7440(4) -0.1949(3) 0.1878(3) 0.0198(9) Uani 1 1 d . .
C5 C 0.8287(4) -0.2034(3) 0.2694(3) 0.0213(9) Uani 1 1 d . .
H5 H 0.8113 -0.2690 0.2961 0.026 Uiso 1 1 calc R U
C6 C 0.9351(4) -0.1266(3) 0.3155(3) 0.0202(9) Uani 1 1 d . .
C7 C 1.0126(4) -0.1263(3) 0.4122(3) 0.0228(9) Uani 1 1 d . .
C8 C 1.1029(4) -0.0306(3) 0.4355(3) 0.0234(9) Uani 1 1 d . .
C9 C 1.0840(4) 0.0255(3) 0.3497(3) 0.0219(9) Uani 1 1 d . .
C10 C 1.1603(4) 0.1195(3) 0.3369(3) 0.0227(9) Uani 1 1 d . .
H10 H 1.2254 0.1576 0.3944 0.027 Uiso 1 1 calc R U
C11 C 1.1506(4) 0.1638(3) 0.2470(3) 0.0206(9) Uani 1 1 d . .
C12 C 1.2409(4) 0.2506(3) 0.2257(3) 0.0231(9) Uani 1 1 d . .
C13 C 1.2030(3) 0.2610(3) 0.1253(3) 0.0210(9) Uani 1 1 d . .
C14 C 1.0865(3) 0.1827(3) 0.0863(3) 0.0186(9) Uani 1 1 d . .
C15 C 1.0123(3) 0.1743(3) -0.0095(3) 0.0185(9) Uani 1 1 d . .
H15 H 1.0449 0.2131 -0.0582 0.022 Uiso 1 1 calc R U
C16 C 0.8943(3) 0.1141(3) -0.0407(3) 0.0175(8) Uani 1 1 d . .
C17 C 0.8121(4) 0.1226(3) -0.1306(3) 0.0190(9) Uani 1 1 d . .
C18 C 0.7033(4) 0.0642(3) -0.1253(3) 0.0197(9) Uani 1 1 d . .
C19 C 0.7190(3) 0.0158(3) -0.0321(3) 0.0169(8) Uani 1 1 d . .
C20 C 0.6303(3) -0.0536(3) 0.0024(3) 0.0183(9) Uani 1 1 d . .
C21 C 0.4361(4) -0.2642(3) 0.0308(3) 0.0252(10) Uani 1 1 d . .
H21A H 0.4010 -0.2044 0.0272 0.030 Uiso 1 1 calc R U
H21B H 0.3944 -0.3145 0.0710 0.030 Uiso 1 1 calc R U
C22 C 0.4181(4) -0.3256(4) -0.0798(4) 0.0338(11) Uani 1 1 d . .
H22A H 0.3341 -0.3513 -0.1148 0.051 Uiso 1 1 calc R U
H22B H 0.4474 -0.3883 -0.0765 0.051 Uiso 1 1 calc R U
H22C H 0.4611 -0.2769 -0.1194 0.051 Uiso 1 1 calc R U
C23 C 0.5752(4) -0.3630(3) 0.1995(4) 0.0287(10) Uani 1 1 d . .
H23A H 0.6361 -0.3995 0.2139 0.034 Uiso 1 1 calc R U
H23B H 0.5070 -0.4145 0.1460 0.034 Uiso 1 1 calc R U
C24 C 0.5366(5) -0.3367(4) 0.3011(4) 0.0450(14) Uani 1 1 d . .
H24A H 0.5063 -0.4043 0.3261 0.067 Uiso 1 1 calc R U
H24B H 0.4748 -0.3023 0.2869 0.067 Uiso 1 1 calc R U
H24C H 0.6041 -0.2868 0.3548 0.067 Uiso 1 1 calc R U
C25 C 0.9928(4) -0.2165(4) 0.4737(3) 0.0261(10) Uani 1 1 d . .
H25A H 0.9093 -0.2404 0.4765 0.031 Uiso 1 1 calc R U
H25B H 1.0414 -0.1883 0.5465 0.031 Uiso 1 1 calc R U
C26 C 1.0236(5) -0.3139(4) 0.4259(4) 0.0413(13) Uani 1 1 d . .
H26A H 1.0121 -0.3694 0.4697 0.062 Uiso 1 1 calc R U
H26B H 1.1059 -0.2905 0.4220 0.062 Uiso 1 1 calc R U
H26C H 0.9727 -0.3446 0.3552 0.062 Uiso 1 1 calc R U
C27 C 1.2069(4) 0.0114(4) 0.5275(3) 0.0287(10) Uani 1 1 d . .
H27A H 1.1849 -0.0184 0.5884 0.034 Uiso 1 1 calc R U
H27B H 1.2277 0.0917 0.5456 0.034 Uiso 1 1 calc R U
C28 C 1.3151(4) -0.0177(4) 0.5094(4) 0.0403(12) Uani 1 1 d . .
H28A H 1.3817 0.0185 0.5700 0.060 Uiso 1 1 calc R U
H28B H 1.3344 0.0067 0.4462 0.060 Uiso 1 1 calc R U
H28C H 1.2987 -0.0969 0.5003 0.060 Uiso 1 1 calc R U
C29 C 1.3540(4) 0.3168(4) 0.3051(4) 0.0295(10) Uani 1 1 d . .
H29A H 1.3886 0.2664 0.3402 0.035 Uiso 1 1 calc R U
H29B H 1.4103 0.3556 0.2676 0.035 Uiso 1 1 calc R U
C30 C 1.3384(4) 0.3987(4) 0.3872(4) 0.0403(13) Uani 1 1 d . .
H30A H 1.4146 0.4384 0.4360 0.060 Uiso 1 1 calc R U
H30B H 1.2841 0.3609 0.4258 0.060 Uiso 1 1 calc R U
H30C H 1.3063 0.4503 0.3533 0.060 Uiso 1 1 calc R U
C31 C 1.2622(4) 0.3407(3) 0.0667(4) 0.0264(10) Uani 1 1 d . .
H31A H 1.2394 0.3070 -0.0088 0.032 Uiso 1 1 calc R U
H31B H 1.3483 0.3574 0.0914 0.032 Uiso 1 1 calc R U
C32 C 1.2319(5) 0.4470(4) 0.0798(4) 0.0387(12) Uani 1 1 d . .
H32A H 1.2744 0.4968 0.0407 0.058 Uiso 1 1 calc R U
H32B H 1.2546 0.4810 0.1543 0.058 Uiso 1 1 calc R U
H32C H 1.1471 0.4315 0.0527 0.058 Uiso 1 1 calc R U
C33 C 0.8428(4) 0.1912(3) -0.2101(3) 0.0218(9) Uani 1 1 d . .
H33A H 0.7957 0.1509 -0.2810 0.026 Uiso 1 1 calc R U
H33B H 0.9269 0.2047 -0.2093 0.026 Uiso 1 1 calc R U
C34 C 0.8196(5) 0.3003(4) -0.1878(4) 0.0353(12) Uani 1 1 d . .
H34A H 0.8417 0.3433 -0.2403 0.053 Uiso 1 1 calc R U
H34B H 0.8662 0.3403 -0.1177 0.053 Uiso 1 1 calc R U
H34C H 0.7359 0.2871 -0.1910 0.053 Uiso 1 1 calc R U
C35 C 0.5921(4) 0.0417(3) -0.2079(3) 0.0229(9) Uani 1 1 d . .
H35A H 0.6050 0.0934 -0.2563 0.027 Uiso 1 1 calc R U
H35B H 0.5299 0.0533 -0.1743 0.027 Uiso 1 1 calc R U
C36 C 0.5518(4) -0.0746(4) -0.2698(4) 0.0331(11) Uani 1 1 d . .
H36A H 0.4786 -0.0872 -0.3227 0.050 Uiso 1 1 calc R U
H36B H 0.5384 -0.1259 -0.2221 0.050 Uiso 1 1 calc R U
H36C H 0.6124 -0.0857 -0.3047 0.050 Uiso 1 1 calc R U
C37 C 0.5106(3) -0.0415(3) -0.0264(3) 0.0213(9) Uani 1 1 d . .
H37A H 0.4508 -0.0923 -0.0816 0.026 Uiso 1 1 calc R U
loop_
_atom_site_aniso_label
_atom_site_aniso_U_11
_atom_site_aniso_U_22
_atom_site_aniso_U_33
_atom_site_aniso_U_23
_atom_site_aniso_U_13
_atom_site_aniso_U_12
Mn1 0.0147(3) 0.0172(3) 0.0167(3) 0.0069(2) 0.0022(2) 0.0036(2)
Cl1 0.0426(7) 0.0324(6) 0.0291(7) 0.0066(5) 0.0089(5) 0.0123(5)
N1 0.0155(17) 0.0184(17) 0.0192(18) 0.0074(14) 0.0048(14) 0.0042(14)
N2 0.0190(18) 0.0189(17) 0.0197(19) 0.0050(14) 0.0034(14) 0.0050(15)
N3 0.0147(17) 0.0193(17) 0.0186(19) 0.0025(14) 0.0004(14) 0.0031(14)
N4 0.0149(17) 0.0189(17) 0.0171(18) 0.0058(14) 0.0051(14) 0.0068(14)
C1 0.016(2) 0.017(2) 0.018(2) 0.0011(17) 0.0046(16) 0.0047(17)
C2 0.017(2) 0.024(2) 0.021(2) 0.0037(18) 0.0049(17) 0.0031(18)
C3 0.021(2) 0.023(2) 0.022(2) 0.0074(18) 0.0098(18) 0.0043(18)
C4 0.020(2) 0.023(2) 0.021(2) 0.0084(18) 0.0074(17) 0.0098(18)
C5 0.028(2) 0.016(2) 0.021(2) 0.0070(17) 0.0092(18) 0.0061(18)
C6 0.023(2) 0.025(2) 0.017(2) 0.0070(17) 0.0062(17) 0.0114(19)
C7 0.026(2) 0.028(2) 0.020(2) 0.0090(19) 0.0067(18) 0.016(2)
C8 0.026(2) 0.027(2) 0.018(2) 0.0050(18) 0.0031(18) 0.011(2)
C9 0.021(2) 0.025(2) 0.020(2) 0.0024(18) 0.0028(18) 0.0106(19)
C10 0.020(2) 0.018(2) 0.023(2) -0.0016(18) -0.0027(18) 0.0042(18)
C11 0.020(2) 0.019(2) 0.023(2) 0.0041(17) 0.0019(18) 0.0085(18)
C12 0.019(2) 0.020(2) 0.031(3) 0.0044(19) 0.0047(18) 0.0077(18)
C13 0.018(2) 0.017(2) 0.028(3) 0.0025(18) 0.0047(18) 0.0086(17)
C14 0.019(2) 0.0151(19) 0.022(2) 0.0021(17) 0.0084(17) 0.0047(17)
C15 0.021(2) 0.019(2) 0.020(2) 0.0068(17) 0.0109(17) 0.0076(18)
C16 0.020(2) 0.018(2) 0.019(2) 0.0066(17) 0.0075(17) 0.0094(17)
C17 0.022(2) 0.019(2) 0.020(2) 0.0044(17) 0.0071(17) 0.0120(18)
C18 0.023(2) 0.0150(19) 0.025(2) 0.0064(17) 0.0072(18) 0.0099(18)
C19 0.016(2) 0.018(2) 0.018(2) 0.0032(17) 0.0031(16) 0.0084(17)
C20 0.015(2) 0.021(2) 0.019(2) 0.0040(17) 0.0034(16) 0.0074(17)
C21 0.016(2) 0.023(2) 0.037(3) 0.009(2) 0.0060(19) 0.0044(18)
C22 0.021(2) 0.033(3) 0.039(3) -0.001(2) 0.000(2) 0.004(2)
C23 0.029(2) 0.022(2) 0.032(3) 0.010(2) 0.004(2) 0.002(2)
C24 0.040(3) 0.047(3) 0.050(3) 0.027(3) 0.022(3) 0.003(3)
C25 0.028(2) 0.031(2) 0.021(2) 0.0118(19) 0.0045(19) 0.009(2)
C26 0.049(3) 0.038(3) 0.043(3) 0.022(2) 0.009(3) 0.017(3)
C27 0.032(3) 0.034(3) 0.016(2) 0.009(2) -0.0037(19) 0.010(2)
C28 0.037(3) 0.047(3) 0.034(3) 0.008(2) -0.006(2) 0.019(3)
C29 0.021(2) 0.025(2) 0.036(3) 0.006(2) -0.001(2) 0.0007(19)
C30 0.039(3) 0.026(3) 0.038(3) -0.005(2) -0.003(2) -0.004(2)
C31 0.022(2) 0.025(2) 0.030(3) 0.0061(19) 0.0062(19) 0.0046(19)
C32 0.041(3) 0.024(2) 0.055(3) 0.017(2) 0.017(3) 0.008(2)
C33 0.022(2) 0.028(2) 0.018(2) 0.0106(18) 0.0059(17) 0.0083(19)
C34 0.048(3) 0.028(2) 0.039(3) 0.018(2) 0.019(2) 0.017(2)
C35 0.020(2) 0.029(2) 0.020(2) 0.0098(19) -0.0005(17) 0.0100(19)
C36 0.035(3) 0.034(3) 0.027(3) 0.005(2) -0.001(2) 0.011(2)
C37 0.014(2) 0.026(2) 0.023(2) 0.0091(18) 0.0017(17) 0.0060(18)
loop_
_atom_type_symbol
_atom_type_description
_atom_type_scat_dispersion_real
_atom_type_scat_dispersion_imag
_atom_type_scat_source
C C 0.0033 0.0016 'International Tables Vol C Tables 4.2.6.8 and 6.1.1.4'
H H 0.0000 0.0000 'International Tables Vol C Tables 4.2.6.8 and 6.1.1.4'
N N 0.0061 0.0033 'International Tables Vol C Tables 4.2.6.8 and 6.1.1.4'
Mn Mn 0.3368 0.7283 'International Tables Vol C Tables 4.2.6.8 and 6.1.1.4'
Cl Cl 0.1484 0.1585 'International Tables Vol C Tables 4.2.6.8 and 6.1.1.4'
loop_
_geom_angle_atom_site_label_1
_geom_angle_atom_site_label_2
_geom_angle_atom_site_label_3
_geom_angle
_geom_angle_site_symmetry_1
N4 Mn1 N1 88.63(13) .
N4 Mn1 N2 165.73(13) .
N1 Mn1 N2 89.85(13) .
N4 Mn1 N3 89.60(13) .
N1 Mn1 N3 165.44(13) .
N2 Mn1 N3 88.31(13) .
N4 Mn1 Cl1 93.80(10) .
N1 Mn1 Cl1 91.69(10) .
N2 Mn1 Cl1 100.42(10) .
N3 Mn1 Cl1 102.84(10) .
C4 N1 C1 106.2(3) .
C4 N1 Mn1 127.4(3) .
C1 N1 Mn1 124.6(3) .
C9 N2 C6 105.8(3) .
C9 N2 Mn1 126.0(3) .
C6 N2 Mn1 127.7(3) .
C11 N3 C14 106.3(3) .
C11 N3 Mn1 126.0(3) .
C14 N3 Mn1 127.3(3) .
C16 N4 C19 106.3(3) .
C16 N4 Mn1 128.2(3) .
C19 N4 Mn1 124.2(3) .
N1 C1 C20 123.5(4) .
N1 C1 C2 109.4(3) .
C20 C1 C2 127.0(4) .
C3 C2 C1 107.2(3) .
C3 C2 C21 125.3(4) .
C1 C2 C21 127.1(4) .
C2 C3 C4 107.0(3) .
C2 C3 C23 128.4(4) .
C4 C3 C23 124.5(4) .
N1 C4 C5 124.5(4) .
N1 C4 C3 110.0(3) .
C5 C4 C3 125.2(4) .
C6 C5 C4 126.3(4) .
C5 C6 N2 123.9(4) .
C5 C6 C7 125.8(4) .
N2 C6 C7 110.2(4) .
C8 C7 C6 107.1(4) .
C8 C7 C25 128.4(4) .
C6 C7 C25 124.5(4) .
C7 C8 C9 106.8(4) .
C7 C8 C27 129.2(4) .
C9 C8 C27 123.9(4) .
C10 C9 N2 124.2(4) .
C10 C9 C8 125.7(4) .
N2 C9 C8 110.0(4) .
C9 C10 C11 125.4(4) .
N3 C11 C10 124.3(4) .
N3 C11 C12 110.0(3) .
C10 C11 C12 125.4(4) .
C13 C12 C11 107.3(4) .
C13 C12 C29 128.5(4) .
C11 C12 C29 124.3(4) .
C12 C13 C14 106.2(4) .
C12 C13 C31 128.4(4) .
C14 C13 C31 125.3(4) .
N3 C14 C15 124.9(4) .
N3 C14 C13 110.2(3) .
C15 C14 C13 124.7(4) .
C14 C15 C16 125.5(4) .
N4 C16 C15 124.2(4) .
N4 C16 C17 110.2(3) .
C15 C16 C17 125.2(4) .
C18 C17 C16 107.4(3) .
C18 C17 C33 127.2(4) .
C16 C17 C33 125.3(4) .
C17 C18 C19 106.5(4) .
C17 C18 C35 125.7(4) .
C19 C18 C35 127.2(4) .
N4 C19 C20 124.3(3) .
N4 C19 C18 109.4(3) .
C20 C19 C18 126.3(4) .
C1 C20 C19 123.7(4) .
C1 C20 C37 118.9(4) .
C19 C20 C37 116.9(3) .
C2 C21 C22 112.6(4) .
C3 C23 C24 112.6(4) .
C7 C25 C26 112.2(4) .
C8 C27 C28 114.1(4) .
C30 C29 C12 113.7(4) .
C13 C31 C32 113.1(4) .
C17 C33 C34 111.6(3) .
C18 C35 C36 111.4(3) .
C37 C37 C20 118.9(5) 2_655
loop_
_geom_bond_atom_site_label_1
_geom_bond_atom_site_label_2
_geom_bond_distance
_geom_bond_site_symmetry_2
Mn1 N4 1.988(3) .
Mn1 N1 1.990(3) .
Mn1 N2 1.996(3) .
Mn1 N3 2.003(3) .
Mn1 Cl1 2.4471(13) .
N1 C4 1.379(5) .
N1 C1 1.379(5) .
N2 C9 1.381(5) .
N2 C6 1.385(5) .
N3 C11 1.364(5) .
N3 C14 1.372(5) .
N4 C16 1.370(5) .
N4 C19 1.378(5) .
C1 C20 1.390(5) .
C1 C2 1.452(5) .
C2 C3 1.354(6) .
C2 C21 1.513(6) .
C3 C4 1.441(6) .
C3 C23 1.495(6) .
C4 C5 1.380(6) .
C5 C6 1.367(6) .
C6 C7 1.434(6) .
C7 C8 1.366(6) .
C7 C25 1.504(6) .
C8 C9 1.442(6) .
C8 C27 1.494(6) .
C9 C10 1.368(6) .
C10 C11 1.387(6) .
C11 C12 1.441(6) .
C12 C13 1.358(6) .
C12 C29 1.513(6) .
C13 C14 1.448(6) .
C13 C31 1.486(6) .
C14 C15 1.378(6) .
C15 C16 1.384(6) .
C16 C17 1.435(6) .
C17 C18 1.356(6) .
C17 C33 1.502(5) .
C18 C19 1.459(5) .
C18 C35 1.496(6) .
C19 C20 1.398(6) .
C20 C37 1.495(5) .
C21 C22 1.521(6) .
C23 C24 1.541(7) .
C25 C26 1.519(7) .
C27 C28 1.527(7) .
C29 C30 1.503(7) .
C31 C32 1.528(6) .
C33 C34 1.529(6) .
C35 C36 1.521(6) .
C37 C37 1.327(8) 2_655
