#------------------------------------------------------------------------------
#$Date: 2020-05-05 15:49:06 +0300 (Tue, 05 May 2020) $
#$Revision: 251584 $
#$URL: file:///home/coder/svn-repositories/cod/cif/7/12/62/7126258.cif $
#------------------------------------------------------------------------------
#
# This file is available in the Crystallography Open Database (COD),
# http://www.crystallography.net/
#
# All data on this site have been placed in the public domain by the
# contributors.
#
data_7126258
loop_
_publ_author_name
'Ren, Demin'
'Koniarz, Sebastian'
'Li, Xiaofang'
'Chmielewski, Piotr J.'
_publ_section_title
;
 First imidazole-fused carbaporphyrinoid and its conversion to a
 N-heterocyclic carbene precursor.
;
_journal_issue                   35
_journal_name_full
'Chemical communications (Cambridge, England)'
_journal_page_first              4836
_journal_page_last               4839
_journal_paper_doi               10.1039/d0cc01013h
_journal_volume                  56
_journal_year                    2020
_chemical_formula_moiety         '2(C47 H30 Ag Au Cl N5), 3(C H2 Cl2) '
_chemical_formula_sum            'C48.5 H33 Ag Au Cl4 N5'
_chemical_formula_weight         1132.43
_space_group_crystal_system      triclinic
_space_group_IT_number           2
_space_group_name_Hall           '-P 1'
_space_group_name_H-M_alt        'P -1'
_atom_sites_solution_hydrogens   geom
_audit_creation_method           SHELXL-2018/3
_audit_update_record
;
2020-02-07 deposited with the CCDC.	2020-03-17 downloaded from the CCDC.
;
_cell_angle_alpha                75.013(5)
_cell_angle_beta                 84.724(4)
_cell_angle_gamma                78.550(4)
_cell_formula_units_Z            2
_cell_length_a                   9.9193(5)
_cell_length_b                   13.7034(8)
_cell_length_c                   15.7321(8)
_cell_measurement_reflns_used    7411
_cell_measurement_temperature    100(2)
_cell_measurement_theta_max      68.0300
_cell_measurement_theta_min      5.2050
_cell_volume                     2022.72(19)
_computing_structure_refinement  'SHELXL-2018/3 (Sheldrick, 2018)'
_diffrn_ambient_temperature      100(2)
_diffrn_detector_area_resol_mean 10.3456
_diffrn_measured_fraction_theta_full 0.990
_diffrn_measured_fraction_theta_max 0.990
_diffrn_measurement_device_type  'Xcalibur, Ruby, Gemini ultra'
_diffrn_measurement_method       '\w scans'
_diffrn_radiation_type           CuK\a
_diffrn_radiation_wavelength     1.54184
_diffrn_reflns_av_R_equivalents  0.0689
_diffrn_reflns_av_unetI/netI     0.0804
_diffrn_reflns_Laue_measured_fraction_full 0.990
_diffrn_reflns_Laue_measured_fraction_max 0.990
_diffrn_reflns_limit_h_max       7
_diffrn_reflns_limit_h_min       -11
_diffrn_reflns_limit_k_max       14
_diffrn_reflns_limit_k_min       -15
_diffrn_reflns_limit_l_max       18
_diffrn_reflns_limit_l_min       -18
_diffrn_reflns_number            13937
_diffrn_reflns_point_group_measured_fraction_full 0.990
_diffrn_reflns_point_group_measured_fraction_max 0.990
_diffrn_reflns_theta_full        62.494
_diffrn_reflns_theta_max         62.494
_diffrn_reflns_theta_min         3.891
_diffrn_source                   'Enhance Ultra (Cu) X-ray Source'
_exptl_absorpt_coefficient_mu    13.379
_exptl_absorpt_correction_T_max  0.736
_exptl_absorpt_correction_T_min  0.212
_exptl_absorpt_correction_type   analytical
_exptl_absorpt_process_details
;
CrysAlisPro 1.171.40.53 (Rigaku Oxford Diffraction, 2019)
Analytical numeric absorption correction using a multifaceted crystal
			model based on expressions derived by R.C. Clark & J.S. Reid.
(Clark, R. C. & Reid, J. S. (1995). Acta Cryst. A51, 887-897)
Empirical absorption correction using spherical harmonics,
 implemented in SCALE3 ABSPACK scaling algorithm.
;
_exptl_crystal_colour            purple
_exptl_crystal_density_diffrn    1.859
_exptl_crystal_description       needle
_exptl_crystal_F_000             1106
_exptl_crystal_recrystallization_method
'Re-crystallisation from solvent: Dichloromethane/ hexane'
_exptl_crystal_size_max          0.335
_exptl_crystal_size_mid          0.034
_exptl_crystal_size_min          0.031
_refine_diff_density_max         1.740
_refine_diff_density_min         -1.471
_refine_diff_density_rms         0.208
_refine_ls_extinction_method     none
_refine_ls_goodness_of_fit_ref   1.017
_refine_ls_hydrogen_treatment    constr
_refine_ls_matrix_type           full
_refine_ls_number_parameters     552
_refine_ls_number_reflns         6395
_refine_ls_number_restraints     0
_refine_ls_restrained_S_all      1.017
_refine_ls_R_factor_all          0.0574
_refine_ls_R_factor_gt           0.0449
_refine_ls_shift/su_max          0.002
_refine_ls_shift/su_mean         0.000
_refine_ls_structure_factor_coef Fsqd
_refine_ls_weighting_details
'w=1/[\s^2^(Fo^2^)+(0.0695P)^2^] where P=(Fo^2^+2Fc^2^)/3'
_refine_ls_weighting_scheme      calc
_refine_ls_wR_factor_gt          0.1083
_refine_ls_wR_factor_ref         0.1180
_reflns_Friedel_coverage         0.000
_reflns_number_gt                5470
_reflns_number_total             6395
_reflns_threshold_expression     'I > 2\s(I)'
_cod_data_source_file            d0cc01013h2.cif
_cod_data_source_block           SK17_5a
_cod_depositor_comments
'Adding full bibliography for 7126257--7126258.cif.'
_cod_original_formula_sum        'C48.50 H33 Ag Au Cl4 N5'
_cod_database_code               7126258
_shelx_shelxl_version_number     2018/3
_shelx_space_group_comment
;
The symmetry employed for this shelxl refinement is uniquely defined
by the following loop, which should always be used as a source of
symmetry information in preference to the above space-group names.
They are only intended as comments.
;
_shelx_res_file
;
TITL shelxt_a.res in P-1
    shelx.res
    created by SHELXL-2018/3 at 21:23:15 on 13-Jan-2020
REM Old TITL 2 in P-1
REM SHELXT solution in P-1: R1 0.101, Rweak 0.005, Alpha 0.074
REM <I/s>   0.000 for    0 systematic absences,  Orientation as input
REM Formula found by SHELXT:  C48 N7 Cl3 Ag Au

CELL  1.54184   9.9193  13.7034  15.7321   75.013   84.724   78.550
ZERR   2  0.0005   0.0008   0.0008    0.005    0.004    0.004
LATT  1
SFAC C H N CL AG AU
UNIT 97 66 10.00 8 2 2
L.S. 10
ACTA
OMIT -4 125
OMIT     8   8  11
OMIT    -5 -12   6
OMIT     9   8  11
OMIT     9   9   5
OMIT     9   8   9
OMIT     9   7  10
OMIT     4  -1  16
OMIT     5  -1  15
OMIT     4   6   6
OMIT -7  -5  10
OMIT  9   9  10
OMIT  -7  -4  10
OMIT      5  -1  14
OMIT     2 -13   1
OMIT     7  12   2
OMIT     4   6   8
OMIT     2   0   1
OMIT    -1   0   8
OMIT      2   1   3
OMIT    3  -2  16
OMIT    -1   3   4
OMIT      0   0   5
OMIT    -1   6   3
OMIT     3  -5  10
OMIT     4   6   7
OMIT     9   7   8
OMIT     -1   1   1
OMIT      9   9   4
OMIT      7   8   0
OMIT      9   6   5
OMIT     -6   4   7
OMIT      2   3   4
OMIT      1   4   1
OMIT     10   6   7
OMIT     0  -1   1
OMIT     3   4   3
BOND
FMAP 2
PLAN 20
WGHT    0.069500
FVAR       2.39136   0.45669
AU1   6    1.074926    0.350779    0.329337    11.00000    0.02496    0.02385 =
         0.02255   -0.00852    0.00210   -0.00796
PART   1
AG1   5    0.642686    0.062222    0.595940    11.00000    0.02253    0.01395 =
         0.01331   -0.00397   -0.00019   -0.00502
CL1   4    1.182042    0.486242    0.323511    11.00000    0.03004    0.02880 =
         0.03543   -0.01623    0.00541   -0.01187
CL41  4    1.151793    0.464334    0.076583    11.00000    0.05563    0.06293 =
         0.04259   -0.02100    0.00101   -0.00212
CL42  4    1.026178    0.680119    0.049398    11.00000    0.05466    0.05410 =
         0.03677   -0.01503    0.00118   -0.01434
N2    3    0.900258    0.180441    0.380778    11.00000    0.02285    0.01880 =
         0.01753   -0.00493   -0.00121   -0.00676
N22   3    0.644268   -0.079332    0.574795    11.00000    0.02543    0.01987 =
         0.01567   -0.00077    0.00223   -0.00444
N23   3    0.540531    0.020244    0.715902    11.00000    0.02564    0.01886 =
         0.02511   -0.00858   -0.00187   -0.00412
N24   3    0.643639    0.202535    0.615678    11.00000    0.02463    0.02269 =
         0.01398   -0.00310    0.00182   -0.00537
N32   3    1.056250    0.160414    0.281189    11.00000    0.02423    0.03021 =
         0.02119   -0.00916    0.00048   -0.00544
C1    1    0.799440    0.194507    0.451224    11.00000    0.02648    0.01762 =
         0.01924   -0.00513   -0.00377   -0.00275
C3    1    0.904362    0.083100    0.368131    11.00000    0.02120    0.02317 =
         0.01682   -0.00290   -0.00121   -0.00867
C4    1    0.810917    0.031750    0.432051    11.00000    0.02128    0.02385 =
         0.01603   -0.00169   -0.00472   -0.00658
C5    1    0.784475   -0.065924    0.437123    11.00000    0.02109    0.02266 =
         0.01504   -0.00488   -0.00085   -0.00209
C6    1    0.698306   -0.114024    0.502673    11.00000    0.02576    0.01088 =
         0.01889   -0.00362   -0.00282    0.00047
C7    1    0.655566   -0.209209    0.505794    11.00000    0.03090    0.01915 =
         0.02013   -0.00984    0.00342   -0.00487
AFIX  43
H7A   2    0.678656   -0.248504    0.464671    11.00000   -1.20000
AFIX   0
C8    1    0.574191   -0.230916    0.581081    11.00000    0.02516    0.01788 =
         0.02039   -0.00519   -0.00052   -0.00979
AFIX  43
H8A   2    0.530085   -0.287151    0.599876    11.00000   -1.20000
AFIX   0
C9    1    0.569435   -0.150716    0.625809    11.00000    0.01936    0.01783 =
         0.02118   -0.00290   -0.00600   -0.00278
C10   1    0.507490   -0.152145    0.708879    11.00000    0.02257    0.01835 =
         0.01964   -0.00371   -0.00336   -0.00095
C11   1    0.505001   -0.074463    0.753375    11.00000    0.02430    0.01803 =
         0.01724   -0.00487   -0.00356   -0.00270
C12   1    0.470080   -0.081960    0.845190    11.00000    0.02889    0.01882 =
         0.01774    0.00064    0.00365   -0.00674
AFIX  43
H12A  2    0.443857   -0.138290    0.885733    11.00000   -1.20000
AFIX   0
C13   1    0.482283    0.008039    0.862051    11.00000    0.03264    0.02312 =
         0.01780   -0.00556   -0.00050   -0.00765
AFIX  43
H13A  2    0.466375    0.024472    0.916314    11.00000   -1.20000
AFIX   0
C14   1    0.524071    0.073099    0.781206    11.00000    0.03094    0.02181 =
         0.01388   -0.00768    0.00225   -0.00459
C15   1    0.538643    0.175290    0.768272    11.00000    0.02271    0.02584 =
         0.01949   -0.00965   -0.00097   -0.00512
C16   1    0.582224    0.235604    0.687899    11.00000    0.02604    0.01856 =
         0.02308   -0.00796   -0.00434   -0.00526
C17   1    0.568304    0.345196    0.668758    11.00000    0.02588    0.02152 =
         0.02192   -0.01076   -0.00050   -0.00379
AFIX  43
H17A  2    0.531817    0.386380    0.706954    11.00000   -1.20000
AFIX   0
C18   1    0.617344    0.377844    0.585817    11.00000    0.02607    0.02675 =
         0.02475   -0.00686   -0.00337   -0.00682
AFIX  43
H18A  2    0.616531    0.445796    0.555200    11.00000   -1.20000
AFIX   0
C19   1    0.671445    0.288152    0.553034    11.00000    0.02448    0.01743 =
         0.01759   -0.00401   -0.00361   -0.00543
C20   1    0.753020    0.288517    0.474598    11.00000    0.02334    0.02251 =
         0.01757   -0.00473   -0.00370   -0.00623
C21   1    0.752967    0.100926    0.483219    11.00000    0.02507    0.01451 =
         0.01848   -0.00074   -0.00169   -0.00463
C31   1    1.002457    0.072253    0.302563    11.00000    0.02590    0.01869 =
         0.02672   -0.00815   -0.00270   -0.00377
AFIX  43
H31A  2    1.027473    0.016342    0.277608    11.00000   -1.20000
AFIX   0
C33   1    0.996382    0.226887    0.330108    11.00000    0.02362    0.02378 =
         0.02023   -0.00890    0.00016   -0.01013
C34   1    1.158827    0.180358    0.208533    11.00000    0.02060    0.02764 =
         0.03232   -0.00916    0.00822   -0.00744
AFIX 137
H34A  2    1.215227    0.116549    0.202966    11.00000   -1.50000
H34B  2    1.215573    0.224087    0.220378    11.00000   -1.50000
H34C  2    1.112818    0.213491    0.154701    11.00000   -1.50000
AFIX   0
C40   1    1.023809    0.553862    0.115579    11.00000    0.04133    0.06151 =
         0.03253   -0.01641    0.00953   -0.01126
AFIX  23
H40A  2    1.040029    0.550973    0.176125    11.00000   -1.20000
H40B  2    0.934053    0.536449    0.114152    11.00000   -1.20000
AFIX   0
C51   1    0.853744   -0.120027    0.368760    11.00000    0.02475    0.01873 =
         0.01984   -0.00842    0.00380   -0.00741
C52   1    0.815544   -0.085830    0.281393    11.00000    0.02653    0.02305 =
         0.01986   -0.00217   -0.00266   -0.00805
AFIX  43
H52A  2    0.740616   -0.032969    0.265867    11.00000   -1.20000
AFIX   0
C53   1    0.889652   -0.130872    0.217360    11.00000    0.03409    0.03333 =
         0.01445   -0.00503   -0.00280   -0.01225
AFIX  43
H53A  2    0.863829   -0.108662    0.159150    11.00000   -1.20000
AFIX   0
C54   1    1.001373   -0.208472    0.240678    11.00000    0.03322    0.03233 =
         0.03549   -0.01874    0.00906   -0.01490
AFIX  43
H54A  2    1.051362   -0.237564    0.197542    11.00000   -1.20000
AFIX   0
C55   1    1.040016   -0.243405    0.325748    11.00000    0.02927    0.02475 =
         0.03595   -0.01258   -0.00176   -0.00315
AFIX  43
H55A  2    1.115384   -0.296118    0.340373    11.00000   -1.20000
AFIX   0
C56   1    0.966622   -0.200112    0.390379    11.00000    0.03145    0.02330 =
         0.02582   -0.00857   -0.00129   -0.00963
AFIX  43
H56A  2    0.992477   -0.224388    0.448518    11.00000   -1.20000
AFIX   0
C101  1    0.452157   -0.244014    0.760182    11.00000    0.02810    0.02093 =
         0.01474   -0.00400   -0.00064   -0.00774
C102  1    0.535777   -0.341646    0.778679    11.00000    0.03018    0.02524 =
         0.02521   -0.00867    0.00045   -0.00640
AFIX  43
H10A  2    0.625106   -0.350702    0.754415    11.00000   -1.20000
AFIX   0
C103  1    0.485344   -0.424782    0.833170    11.00000    0.04156    0.02319 =
         0.02347   -0.00546   -0.00221   -0.00788
AFIX  43
H10B  2    0.541829   -0.489148    0.845610    11.00000   -1.20000
AFIX   0
C104  1    0.352877   -0.413455    0.869135    11.00000    0.04439    0.03525 =
         0.01819   -0.00331   -0.00248   -0.02199
AFIX  43
H10C  2    0.320533   -0.469594    0.906069    11.00000   -1.20000
AFIX   0
C105  1    0.268789   -0.318428    0.849985    11.00000    0.04180    0.03785 =
         0.01756   -0.01013    0.00711   -0.01897
AFIX  43
H10D  2    0.179213   -0.310843    0.873997    11.00000   -1.20000
AFIX   0
C106  1    0.315410   -0.234263    0.795698    11.00000    0.02576    0.03116 =
         0.01825   -0.00993   -0.00097   -0.01021
AFIX  43
H10E  2    0.256656   -0.170899    0.782429    11.00000   -1.20000
AFIX   0
C151  1    0.506134    0.223828    0.843736    11.00000    0.03556    0.01778 =
         0.01829   -0.00053    0.00201   -0.00526
C152  1    0.377476    0.232619    0.885468    11.00000    0.03297    0.02498 =
         0.02044   -0.00553   -0.00213   -0.00555
AFIX  43
H15A  2    0.307532    0.208655    0.865976    11.00000   -1.20000
AFIX   0
C153  1    0.351778    0.277826    0.957570    11.00000    0.04180    0.02270 =
         0.02461   -0.00400    0.00857   -0.00214
AFIX  43
H15B  2    0.264987    0.283269    0.985768    11.00000   -1.20000
AFIX   0
C154  1    0.454328    0.313914    0.986428    11.00000    0.05177    0.02427 =
         0.02053   -0.00371   -0.00299   -0.00503
AFIX  43
H15C  2    0.436215    0.343870    1.033966    11.00000   -1.20000
AFIX   0
C155  1    0.584876    0.306176    0.945398    11.00000    0.04659    0.02764 =
         0.02617   -0.01022   -0.00531   -0.00837
AFIX  43
H15D  2    0.654349    0.330527    0.964997    11.00000   -1.20000
AFIX   0
C156  1    0.609364    0.261012    0.874082    11.00000    0.03225    0.02929 =
         0.02329   -0.01394   -0.00085   -0.00866
AFIX  43
H15E  2    0.696311    0.255512    0.846094    11.00000   -1.20000
AFIX   0
C201  1    0.777969    0.389421    0.420728    11.00000    0.02727    0.02319 =
         0.01932   -0.00705   -0.00069   -0.00293
C202  1    0.834604    0.454804    0.456086    11.00000    0.02600    0.02291 =
         0.02415   -0.00904    0.00186   -0.00705
AFIX  43
H20A  2    0.865451    0.432321    0.513164    11.00000   -1.20000
AFIX   0
C203  1    0.845419    0.552781    0.407185    11.00000    0.02185    0.02427 =
         0.03353   -0.01298    0.00242   -0.00458
AFIX  43
H20B  2    0.883910    0.595666    0.431234    11.00000   -1.20000
AFIX   0
C204  1    0.799170    0.586647    0.322976    11.00000    0.02540    0.01901 =
         0.03668   -0.00380    0.00265   -0.00763
AFIX  43
H20C  2    0.803665    0.653287    0.290822    11.00000   -1.20000
AFIX   0
C205  1    0.745844    0.521830    0.285793    11.00000    0.02932    0.02929 =
         0.01854   -0.00161    0.00504   -0.00481
AFIX  43
H20D  2    0.718212    0.544002    0.227966    11.00000   -1.20000
AFIX   0
C206  1    0.733896    0.424898    0.334454    11.00000    0.02102    0.02376 =
         0.02501   -0.00620    0.00123   -0.00691
AFIX  43
H20E  2    0.696007    0.382312    0.309706    11.00000   -1.20000
AFIX   0
PART  -1
C60   1    1.127521    0.924127   -0.011454    10.50000    0.07629    0.07581 =
         0.06398    0.03596   -0.02621   -0.04166
AFIX  23
H60A  2    1.187409    0.921880   -0.063513    10.50000   -1.20000
H60B  2    1.146315    0.856856    0.029089    10.50000   -1.20000
AFIX   0
CL61  4    0.958978    0.947038   -0.041735    10.50000    0.09226    0.10568 =
         0.05266   -0.00032   -0.01012   -0.04345
CL62  4    1.170992    1.015023    0.038573    10.50000    0.10080    0.10021 =
         0.05689   -0.00800   -0.00932   -0.04691
PART   0

HKLF 4




REM  shelxt_a.res in P-1
REM wR2 = 0.1180, GooF = S = 1.017, Restrained GooF = 1.017 for all data
REM R1 = 0.0449 for 5470 Fo > 4sig(Fo) and 0.0574 for all 6395 data
REM 552 parameters refined using 0 restraints

END

WGHT      0.0695      0.0000

REM Highest difference peak  1.740,  deepest hole -1.471,  1-sigma level  0.208
Q1    1   0.6473  0.0734  0.6119  11.00000  0.05    1.74
Q2    1   1.0680  0.3380  0.2776  11.00000  0.05    1.49
Q3    1   1.1488  0.4013  0.2613  11.00000  0.05    1.45
Q4    1   1.0716  0.4233  0.3125  11.00000  0.05    1.32
Q5    1   1.0945  0.0180  0.2224  11.00000  0.05    1.29
Q6    1   0.9761  0.3799  0.3350  11.00000  0.05    1.29
Q7    1   1.0212  0.3948  0.2643  11.00000  0.05    1.24
Q8    1   0.9901  0.4118  0.2715  11.00000  0.05    1.21
Q9    1   1.0783  0.2812  0.3476  11.00000  0.05    1.17
Q10   1   0.9954  0.2990  0.4042  11.00000  0.05    1.17
Q11   1   1.1700  0.3307  0.3217  11.00000  0.05    1.16
Q12   1   1.1275  0.2950  0.4002  11.00000  0.05    1.15
Q13   1   0.5337 -0.5197  0.7849  11.00000  0.05    1.12
Q14   1   0.5446  0.0160  0.6814  11.00000  0.05    0.85
Q15   1   0.7913  0.1195  0.4767  11.00000  0.05    0.84
Q16   1   0.5695  0.1219  0.5356  11.00000  0.05    0.83
Q17   1   1.1878  0.4130  0.3328  11.00000  0.05    0.83
Q18   1   0.9565  0.3177  0.4328  11.00000  0.05    0.81
Q19   1   0.7994  0.5809  0.2257  11.00000  0.05    0.80
Q20   1   0.7511  0.0815  0.4605  11.00000  0.05    0.77
;
_shelx_res_checksum              2979
_shelx_hkl_file
;
   0   0   2 19814.5 1340.12   7
   0   0   3 233528. 5611.00   7
   0   0   4 240.031 1530.94   5
   0   0   4 75564.6 3664.28   7
   0   0   5 430.016 274.146   5
   0   0   5 502.621 384.564   7
   0   0   6 6437.17 916.031   3
   0   0   6 7895.07 1000.06   5
   0   0   6 5458.63 1227.93   7
   0   0   7 308.068 455.799   7
   0   0   8 52852.9 4410.66   7
   0   0   9 12431.5 2293.30   7
   0   0  10 827.345 710.903   7
   0   0  11 167659. 4651.35  27
   0   0  11 170520. 9679.10   7
   0   0  12 38339.9 2346.81  27
   0   0  13 168.253 203.881  27
   0   0 -13 399.861 346.614  11
   0   0  14 20636.6 1655.05  26
   0   0  14 21479.5 1818.71  27
   0   0 -14 23707.9 1745.25  11
   0   0  15 35228.6 2071.90  26
   0   0 -15 40700.1 2173.18  11
   0   0  16 7928.45 909.311  26
   0   0 -16 9658.71 988.135  11
   0   0 -17 5369.17 685.751  11
   0   0  18 7508.43 755.674  25
   0   0 -18 16635.2 1110.21  11
   0   1 -17 8094.99 835.082  11
   0  -1  16 846.409 307.635  26
   0   1 -16 1272.78 349.626  11
   0  -1  15 4521.43 827.583  27
   0  -1  15 3708.73 667.417  26
   0   1 -15 4983.39 717.002  11
   0  -1  14 542.694 260.859  27
   0  -1  14 745.102 312.201  26
   0   1 -14 1263.67 385.123  11
   0  -1  13 7555.83 1087.85  27
   0   1 -13 9667.77 1064.46  11
   0  -1  12 11408.5 1309.49  27
   0   1 -12 12912.2 1271.03  11
   0  -1  11 14429.2 1411.83  27
   0  -1  11 15718.2 3049.84   7
   0  -1  10 55731.7 5482.23   7
   0  -1   9 80071.3 6271.56   7
   0  -1   8 312.306 404.757   7
   0  -1   7 72587.7 4931.05   5
   0  -1   7 140845. 7215.46   7
   0  -1   6 212272. 8140.09   7
   0  -1   5 39601.3 1550.56   3
   0  -1   5 32768.1 2994.89   7
   0   1  -4 27527.9 948.043   6
   0  -1   4 44897.2 3112.86   7
   0  -1   3 189229. 5741.43   7
   0  -1   2 7991.31 1055.26   7
   0  -1   1 231.564 190.913   7
   0   1   1 141894. 2482.26   4
   0   1   1 146601. 2398.87   7
   0   1   2 121443. 2856.56   7
   0   1   3 144.524 114.520   7
   0   1   4 1630.59 194.534   1
   0   1   4 4112.49 738.736   7
   0   1   5 147309. 2055.05   1
   0   1   5 389965. 8516.31   7
   0   1   6 52599.8 3490.77   7
   0   1   7 7100.01 1176.79   3
   0   1   7 6047.52 1251.50   7
   0   1   8 264548. 9379.30   7
   0   1   9 62379.2 5004.55   7
   0   1  10 5093.66 1490.05   7
   0   1  11 14405.7 1330.51  27
   0   1  11 15240.8 2803.81   7
   0   1  12 20047.2 1536.49  26
   0   1  12 18811.4 1597.46  27
   0   1  13 10900.1 1159.91  26
   0   1  13 11933.6 1324.41  27
   0   1  14 12658.0 1381.73  27
   0   1  14 12703.6 1263.25  26
   0  -1 -14 10505.9 1278.51  11
   0   1  15 7664.67 953.578  26
   0  -1 -15 8847.07 1050.60  11
   0  -1 -16 33898.1 1960.69  11
   0   1  17 7034.73 869.138  25
   0  -1 -17 10054.3 964.119  11
   0   1  18 225.723 124.259  25
   0  -1 -18-142.720 113.155  11
   0   2 -17 22852.9 1291.59  11
   0  -2  16 41190.4 1976.34  26
   0   2 -16 50783.1 2088.45  11
   0  -2  15 340.138 208.778  27
   0  -2  15 53.3728 108.320  26
   0   2 -15 248.979 133.614  11
   0  -2  14 17523.1 1663.26  27
   0   2 -14 18803.1 1437.83  11
   0  -2  13 48039.3 2801.26  27
   0   2 -13 53157.7 2441.61  11
   0  -2  12 25826.5 2040.17  27
   0   2 -12 29756.2 1814.44  11
   0  -2  11 9613.80 1210.34  27
   0  -2  11 9798.69 2473.53   7
   0  -2  11 11705.8 1390.35  12
   0   2 -11 9698.72 1031.89  11
   0  -2  10 6084.28 1936.62   7
   0   2 -10 8296.65 941.855  11
   0  -2  10 8702.62 1129.93  12
   0  -2   9 458.844 636.085   7
   0  -2   8 9944.58 2225.61   7
   0  -2   7 10813.4 2177.81   7
   0  -2   6 43450.6 4125.84   7
   0  -2   5 125472. 6461.22   7
   0  -2   4 26928.0 2614.15   7
   0  -2   3 275.738 399.722   7
   0  -2   2 123859. 5540.51   7
   0   2  -1 154079. 2519.77   3
   0   2   0 613.658 247.096   4
   0   2   0 604.395 232.203   3
   0   2   1 78023.7 2440.29   4
   0   2   1 83458.5 2819.75   2
   0   2   2 46495.3 1924.23   7
   0   2   2 48204.3 2361.60   2
   0   2   2 43817.1 1946.89   4
   0   2   3 535.019 259.419   7
   0   2   4 4297.63 769.884   7
   0   2   5 66494.0 3402.31   7
   0   2   6 53538.2 3368.16   7
   0   2   7 44833.6 3409.58   7
   0   2   7 43314.9 3246.67   3
   0   2   8 36253.3 3347.18   7
   0   2   8 28725.0 2685.97   3
   0   2   9 77652.8 5308.89   7
   0   2  10 137257. 7650.64   7
   0   2  11 22143.6 3305.77   7
   0   2  11 19748.8 1522.44  27
   0  -2 -12 8288.72 1030.30  23
   0   2  12 9418.46 2334.39   7
   0   2  12 9096.78 999.946  26
   0   2  12 8476.96 1044.93  27
   0   2  13 55664.3 2607.36  26
   0  -2 -13 55649.3 2750.24  23
   0   2  14 7796.90 959.304  26
   0  -2 -14 7496.69 1006.49  23
   0   2  15 672.712 244.917  26
   0  -2 -15 721.355 358.757  11
   0   2  16 9212.48 1107.13  25
   0  -2 -16 12178.7 1193.82  11
   0   2  17 3944.87 656.347  25
   0  -2 -17 4586.29 679.219  11
   0   2  18 1073.69 299.494  25
   0  -2 -18 1460.39 324.691  11
   0  -3  16 1717.64 385.590  26
   0   3 -16 2007.44 373.291  11
   0  -3  15 2338.10 575.605  27
   0  -3  15 2364.50 521.449  26
   0   3 -15 2721.20 511.338  11
   0  -3  14 2183.78 589.075  27
   0   3 -14 2412.38 500.176  11
   0  -3  13 15015.9 1574.45  27
   0   3 -13 13719.1 1313.45  11
   0  -3  12 32629.9 2339.21  27
   0  -3  12 38488.7 2697.96  12
   0   3 -12 35330.2 1922.26  11
   0  -3  11 103552. 4251.96  12
   0   3 -11 95337.5 3097.92  11
   0   3 -10 4623.67 659.816  11
   0  -3  10 4537.64 854.064  12
   0  -3   9 57934.2 6108.29   7
   0  -3   8 86907.9 6870.81   7
   0  -3   7 79170.0 6172.73   7
   0  -3   6 4729.39 1617.72   7
   0  -3   5 22382.3 2854.44   7
   0  -3   4 60881.2 4505.24   7
   0  -3   3 68813.9 5371.47   7
   0  -3   2 52868.0 4305.03   7
   0   3  -1 15521.4 1026.64   3
   0   3   0 47792.4 2311.40   3
   0   3   1 5586.46 925.286   3
   0   3   1 7168.43 911.111   4
   0   3   2 14617.6 1336.37   4
   0   3   2 10092.9 1524.16   3
   0   3   3 111476. 3923.12   4
   0   3   3 113208. 4563.51   2
   0   3   4 195312. 5248.80   7
   0   3   4 193306. 5449.05   4
   0   3   5 8776.74 1232.00   7
   0   3   5 9307.89 1286.99   4
   0   3   6 92295.2 4404.82   7
   0   3   6 89407.8 5084.57   3
   0   3   7 65193.4 4064.09   7
   0   3   7 65640.4 4386.89   3
   0   3   8 4717.38 1225.86   7
   0   3   8 4024.92 1124.22   3
   0   3   9 146.940 184.909   7
   0   3   9 486.658 391.446   3
   0   3  10 26816.6 3321.75   7
   0  -3 -11 13594.5 1327.69  23
   0   3  11 12343.1 2425.06   7
   0  -3 -12 14885.3 1429.90  23
   0   3  12 14209.2 2801.80   7
   0   3  12 13983.0 1238.17  26
   0   3  13 6946.56 888.994  26
   0  -3 -13 5694.68 925.445  23
   0   3  14 40786.6 2205.48  26
   0  -3 -14 35928.0 2283.31  23
   0   3  15 65089.8 2728.93  26
   0   3  15 62635.4 3001.88  25
   0  -3 -15 58790.2 2807.67  23
   0   3  16 6840.99 947.737  25
   0  -3 -16 6207.62 841.644  23
   0  -3 -16 8399.73 1043.38  11
   0   3  17 8010.59 943.921  25
   0  -3 -17 9086.33 971.132  11
   0   3  18 25548.0 1482.07  25
   0  -3 -18 31930.6 1630.28  11
   0  -4  15 8389.73 920.641  26
   0  -4  15 8416.41 1028.98  27
   0  -4  14 5879.61 936.649  27
   0  -4  13 3604.63 801.000  27
   0   4 -13 4767.49 688.775  11
   0  -4  12 5475.00 971.289  27
   0   4 -12 6240.45 835.403  11
   0  -4  12 7546.65 1233.89  12
   0  -4  11 285.022 258.158  12
   0   4 -11 300.603 285.738  11
   0  -4  10 12726.0 1511.17  12
   0   4 -10 12140.6 1046.80  11
   0  -4   9 420.153 256.763  12
   0  -4   9 695.206 686.135   7
   0  -4   8 18205.7 3357.94   7
   0  -4   7 51698.6 5327.69   7
   0  -4   6 80136.8 6234.00   7
   0  -4   5 26735.8 3495.20   7
   0  -4   4 38565.6 3985.12   7
   0   4  -4 40571.2 3316.15   2
   0  -4   3 127856. 7219.38   7
   0   4  -3 215544. 7168.51   2
   0  -4   2 22778.4 3036.50   7
   0   4  -2 26386.7 2369.55   2
   0   4  -1 46954.7 3031.58   2
   0   4  -1 44313.8 2021.89   3
   0   4   0 6616.76 879.224   3
   0   4   1 51819.1 2880.66   4
   0   4   1 52072.7 2753.88   3
   0   4   2 21006.2 2037.53   2
   0   4   2 18775.2 1916.53   3
   0   4   2 19598.8 1740.32   4
   0   4   3 3498.43 766.576   4
   0   4   3 4959.42 1052.35   2
   0   4   3 3550.72 933.084   3
   0   4   4 4189.50 1141.94   3
   0   4   4 5628.68 1097.47   4
   0   4   5 69151.4 3779.96   7
   0   4   5 67288.7 3750.66   4
   0   4   5 78201.7 4929.82   3
   0   4   6 6868.50 1248.42   7
   0   4   6 7626.41 1592.06   3
   0   4   6 7113.48 1297.42   4
   0   4   7 2848.78 851.832   7
   0   4   7 2770.67 978.822   3
   0   4   7 2722.27 883.084   4
   0   4   8 76800.6 5023.56   7
   0   4   8 72385.5 5030.50   3
   0   4   8 78658.8 5059.03   4
   0   4   9 61706.6 4692.47   7
   0   4   9 60061.3 4798.75   4
   0   4  10 10259.0 2109.33   7
   0   4  10 9313.55 1823.95   3
   0   4  10 9031.76 2002.10   4
   0  -4 -11 32670.9 2124.14  23
   0   4  11 30663.2 1719.08  26
   0   4  11 30937.4 3872.53   7
   0   4  11 32089.3 4018.42   4
   0  -4 -12 24961.4 1955.28  23
   0   4  12 24592.9 1633.55  26
   0   4  12 19468.7 3230.93   7
   0   4  12 26387.0 3900.73   4
   0   4  13 29.8956 117.570  25
   0   4  13 99.3093 86.3825  26
   0  -4 -13 260.580 258.614  23
   0   4  14 344.381 161.112  26
   0   4  14 412.466 259.066  25
   0  -4 -14 581.624 303.967  23
   0   4  15 584.912 294.410  25
   0  -4 -15 429.646 286.982  23
   0   4  16 530.136 198.895  25
   0  -4 -16 328.696 231.376  23
   0  -4 -16 439.089 267.789  11
   0   4  17 221.393 95.0766  25
   0  -4 -17 172.998 78.2499  23
   0  -4 -17 83.3987 126.353  11
   0  -4 -18 962.914 290.531  11
   0   4  18 893.864 292.148  25
   0  -5  15 14.2802 85.5210  26
   0  -5  15-49.4887 116.444  27
   0  -5  14 14320.7 1403.18  27
   0  -5  13 26085.5 2033.87  27
   0  -5  12 6783.64 1181.22  12
   0  -5  12 5136.09 940.696  27
   0  -5  11 1225.69 504.794  12
   0  -5  10 29285.8 2374.85  12
   0  -5   9 19443.6 3770.87   7
   0  -5   9 29646.4 2331.59  12
   0   5  -8 437.102 482.063   2
   0  -5   8 516.270 383.000  18
   0  -5   8 769.279 372.393  12
   0  -5   8 287.897 467.535   7
   0  -5   7 1161.86 867.926   7
   0   5  -7 451.781 454.958   2
   0  -5   6 6009.20 2004.71   7
   0   5  -6 5931.17 1600.34   2
   0  -5   5 55229.3 5296.36   7
   0   5  -5 58273.2 4632.45   2
   0  -5   4 8541.64 2245.49   7
   0   5  -4 16266.5 2321.34   2
   0  -5   3 537.145 798.448   7
   0   5  -3 14729.7 2077.57   2
   0  -5   2 60884.5 5076.49   7
   0   5  -2 73941.3 4571.40   2
   0   5  -1 153093. 4179.10   3
   0   5  -1 147818. 6424.06   2
   0   5   0 11465.1 1256.97   3
   0   5   0 11907.6 1730.40   2
   0   5   1 118313. 5419.12   2
   0   5   1 120609. 5067.70   4
   0   5   2 317508. 8135.34   4
   0   5   2 328180. 9189.92   2
   0   5   2 324327. 8035.60   3
   0   5   3 554.708 446.513   3
   0   5   3 628.443 358.546   4
   0   5   3 170.794 251.982   2
   0   5   4 1619.89 727.950   2
   0   5   4 1220.46 519.518   4
   0   5   4 1434.80 639.806   3
   0   5   5 69610.5 4085.75   4
   0   5   5 75570.9 4958.81   3
   0   5   6 10691.7 1948.95   3
   0   5   6 8789.93 1560.63   4
   0   5   7 3262.47 1081.17   3
   0   5   7 2551.06 879.300   4
   0   5   8 6987.40 1470.92   7
   0   5   8 5400.32 1389.21   3
   0   5   8 5124.74 1375.04   4
   0   5   9 7042.42 1689.89   7
   0   5   9 7186.81 1663.23   4
   0   5   9 4230.24 1341.55   3
   0   5  10 37237.0 4144.62   7
   0   5  10 42558.1 4355.38   4
   0   5  10 38836.5 3983.82   3
   0  -5 -11 1924.89 554.015  23
   0   5  11 2407.90 1075.75   7
   0   5  11 3026.80 1271.71   4
   0   5  11 2658.68 561.349  25
   0   5  11 2564.34 499.522  26
   0   5  12 18001.8 1508.63  25
   0   5  12 17678.1 1367.13  26
   0  -5 -12 18501.5 1724.78  23
   0   5  13 47728.4 2551.49  25
   0   5  13 48202.5 2336.18  26
   0  -5 -13 49595.6 2788.88  23
   0   5  14 30183.6 2050.92  25
   0   5  14 28836.7 1809.05  26
   0  -5 -14 30815.9 2196.00  23
   0   5  15 1418.50 427.139  25
   0  -5 -15 1284.19 426.426  23
   0   5  16 30217.9 1948.10  25
   0  -5 -16 29445.7 1977.33  23
   0   5  17 33931.9 1905.18  25
   0  -5 -17 35169.1 1945.61  11
   0  -5 -17 31213.1 1849.28  23
   0   5  18 855.104 252.101  25
   0  -5 -18 1003.36 297.085  11
   0  -5 -18 863.667 263.640  23
   0  -6  15 180.680 149.921  27
   0  -6  14 1492.07 416.339  27
   0  -6  14 1970.73 415.237  15
   0  -6  13 421.222 220.083  27
   0  -6  12 6212.15 1098.51  12
   0  -6  12 6582.37 1050.61  27
   0  -6  11 7256.86 1199.26  12
   0  -6  10 627.666 349.218  12
   0  -6   9 34340.1 2636.84  12
   0  -6   8 58618.3 3351.22  18
   0  -6   8 60910.8 3432.33  12
   0  -6   7 4311.43 1752.88   7
   0  -6   7 6894.86 1108.82  18
   0  -6   7 6781.51 1124.61  12
   0   6  -7 7573.36 1967.13   2
   0   6  -6 47750.7 4845.52   2
   0  -6   6 36730.2 4999.66   7
   0   6  -5 59489.7 5088.50   2
   0  -6   5 59543.2 5959.87   7
   0   6  -4 48208.6 4413.59   2
   0  -6   4 21836.2 3834.04   7
   0   6  -3 26121.1 3245.72   2
   0  -6   3 20479.8 3500.72   7
   0   6  -2 22612.7 2854.55   2
   0  -6   2 357.557 2656.38   7
   0   6  -1 16072.1 2316.18   2
   0   6  -1 15789.6 1476.84   3
   0   6   0 2882.45 1025.63   2
   0   6   0 2459.73 621.589   3
   0   6   1 2291.38 619.393   3
   0   6   1 1939.68 775.812   2
   0   6   2 27652.9 2949.31   2
   0   6   2 27214.3 2646.07   4
   0   6   2 25661.1 2428.90   3
   0   6   3 188553. 7965.67   2
   0   6   3 188041. 6988.62   4
   0   6   3 182926. 6862.65   3
   0   6   4 16489.9 2216.32   3
   0   6   4 16592.0 2072.13   4
   0   6   4 17140.5 2485.56   2
   0   6   5 39613.5 3310.99   4
   0   6   5 41896.9 3719.95   3
   0   6   6 64278.0 4422.62   4
   0   6   6 69419.5 5007.03   3
   0   6   7 194548. 8134.01   4
   0   6   7 184892. 8602.01   3
   0   6   8 29.8910 132.471   4
   0   6   8-145.930 253.905   3
   0   6   9 7398.95 1813.73   3
   0   6   9 10555.7 2129.99   4
   0   6  10 100963. 6630.02   3
   0   6  10 100841. 6884.19   4
   0  -6 -10 104470. 3822.56  23
   0   6  10 94891.9 3210.59  25
   0   6  11 4954.19 1473.08   3
   0   6  11 5060.74 1587.22   4
   0   6  11 5042.45 785.721  25
   0  -6 -11 5584.33 946.270  23
   0   6  12 3786.80 683.717  25
   0  -6 -12 4651.67 838.474  23
   0   6  13 1571.74 480.193  25
   0  -6 -13 1967.40 530.474  23
   0   6  14 927.735 343.918  25
   0  -6 -14 484.763 290.808  23
   0   6  15 23263.8 1760.09  25
   0  -6 -15 23041.3 1867.38  23
   0   6  16-11.1371 135.616  25
   0  -6 -16 39.3671 132.929  23
   0  -6 -16 226.255 209.872  11
   0  -6 -17 16116.4 1282.00  11
   0   6  17 15335.0 1257.16  25
   0  -6 -17 14691.8 1286.07  23
   0   6  18 49187.2 1986.81  25
   0  -6 -18 48695.0 2018.38  23
   0  -7  14 19552.1 1385.66  27
   0  -7  13 143.973 145.062  27
   0  -7  12 32141.8 2378.02  12
   0  -7  12 26975.4 2060.04  27
   0  -7  11 27744.2 2324.42  12
   0  -7  10 2039.80 641.936  12
   0  -7   9 11625.6 1576.73  12
   0  -7   8 606.771 361.072  18
   0  -7   8 36.8079 179.097  12
   0  -7   7 14628.1 1681.26  18
   0  -7   7 14740.8 1750.80  12
   0  -7   6 12311.6 1679.02  18
   0   7  -6 16516.1 3042.08   2
   0  -7   6 17531.1 1848.65  12
   0  -7   5 11774.7 2808.46   7
   0  -7   5 15640.7 1589.80  18
   0  -7   5 14950.2 1687.79  12
   0   7  -5 15381.9 2842.15   2
   0   7  -4 89297.3 6573.58   2
   0  -7   4 66188.2 6727.46   7
   0   7  -3 99540.3 6773.92   2
   0  -7   3 66535.4 7118.85   7
   0   7  -2 15449.1 2607.21   2
   0  -7   2 15785.0 3198.58   7
   0   7  -1 131998. 7251.63   2
   0   7   0 221005. 9258.16   2
   0   7   0 231464. 6552.46   3
   0   7   1 71716.8 3882.53   3
   0   7   1 63889.8 4931.75   2
   0   7   2 26795.1 2534.75   3
   0   7   2 24053.1 3081.43   2
   0   7   3 73660.9 4477.04   3
   0   7   3 69653.7 5270.50   2
   0   7   3 64392.2 4545.66   4
   0   7   4 3683.51 1068.02   4
   0   7   4 4243.54 1190.91   3
   0   7   4 4200.04 1375.02   2
   0   7   5 7553.50 1577.12   4
   0   7   5 5975.98 1547.12   3
   0   7   5 6415.67 1718.43   2
   0   7   6 2.78541 153.059   4
   0   7   6 310.732 381.938   3
   0   7   7 13852.6 2294.11   4
   0   7   7 11198.0 2217.48   3
   0   7   8 106604. 6893.36   3
   0   7   8 98642.2 6382.50   4
   0   7   9 21723.1 3144.79   3
   0   7   9 19759.0 2999.33   4
   0  -7  -9 20158.1 1680.31  23
   0   7   9 19655.5 1446.47  25
   0   7  10 11981.1 2357.47   3
   0   7  10 12084.2 2523.62   4
   0   7  10 12026.1 1169.85  25
   0   7  10 11122.5 1133.19  29
   0  -7 -10 13036.6 1377.96  23
   0   7  11 109825. 3687.98  25
   0   7  11 109551. 3513.14  29
   0  -7 -11 112189. 4243.59  23
   0   7  12 91161.4 3466.27  25
   0  -7 -12 99072.8 4029.13  23
   0   7  13 321.104 247.792  25
   0  -7 -13 273.801 177.428  23
   0   7  14 15800.5 1452.93  25
   0  -7 -14 16993.8 1668.52  23
   0   7  15 26933.2 1862.23  25
   0  -7 -15 29099.3 2107.57  23
   0   7  16 305.779 185.867  25
   0  -7 -16 358.488 267.237  23
   0  -7 -16 524.096 297.513  11
   0  -7 -17 4642.15 648.922  11
   0  -7 -17 4684.85 716.394  23
   0   7  17 4802.11 671.616  25
   0  -7 -18 1361.41 309.138  11
   0  -7 -18 1138.27 304.272  23
   0  -8  13 16313.6 1296.92  27
   0  -8  12 3758.08 770.520  12
   0  -8  12 2885.66 615.756  27
   0  -8  11 21828.0 1991.28  12
   0  -8  10 39155.1 2818.34  12
   0  -8   9 34654.9 2728.44  12
   0  -8   8 15071.3 1804.77  12
   0  -8   8 14991.0 1809.48  18
   0  -8   7 55999.1 3515.12  12
   0  -8   7 58981.0 3522.57  18
   0  -8   6 55945.4 3491.62  12
   0  -8   6 51042.0 3304.05  18
   0  -8   5 13435.0 1715.26  12
   0   8  -5 12371.5 2737.23   2
   0  -8   5 13752.6 1609.47  18
   0  -8   4 12241.7 1480.48  18
   0   8  -4 11951.4 2657.86   2
   0  -8   3 597.178 691.317   7
   0  -8   3 1999.21 581.421  18
   0   8  -3 2269.18 424.888  20
   0   8  -3 2162.45 1078.57   2
   0   8  -2 408.284 258.051   2
   0  -8   2 761.888 767.089   7
   0   8  -1 14470.9 2637.75   2
   0  -8   1 2223.84 1255.23   7
   0   8   0 19982.1 3183.09   2
   0   8   1 51711.9 3499.71   3
   0   8   1 45677.0 4701.33   2
   0   8   2 114768. 7251.68   2
   0   8   2 117545. 5553.17   3
   0   8   3 2603.37 1109.92   2
   0   8   3 2763.09 911.352   3
   0   8   4 61365.2 4842.71   4
   0   8   4 71153.4 4779.91   3
   0   8   4 67899.5 5669.52   2
   0   8   5 151519. 7730.74   4
   0   8   5 169181. 7906.03   3
   0   8   5 155053. 8808.77   2
   0   8   6 59925.2 4857.44   3
   0   8   6 51272.9 4604.72   4
   0   8   7 22248.1 3109.87   4
   0   8   7 27540.1 3417.72   3
   0   8   8 75064.7 2882.96  25
   0   8   8 80916.3 3009.51  29
   0   8   8 90500.8 6440.01   3
   0   8   8 79808.7 6070.90   4
   0  -8  -8 79832.7 3259.54  23
   0   8   9 15626.9 1343.57  25
   0   8   9 16858.4 1397.51  29
   0   8   9 15862.1 2865.31   4
   0   8   9 17313.1 2903.50   3
   0  -8  -9 14749.8 1491.99  23
   0   8  10 12818.2 1232.25  29
   0   8  10 12677.0 1257.85  25
   0  -8 -10 13280.0 1425.62  23
   0   8  11 17708.9 1516.51  25
   0   8  11 17890.3 1459.65  29
   0  -8 -11 18703.1 1769.43  23
   0   8  12 1593.94 461.615  25
   0  -8 -12 1381.58 502.814  23
   0   8  13 16253.9 1483.24  25
   0  -8 -13 18061.1 1747.73  23
   0  -8 -14 4100.47 833.348  23
   0   8  14 3389.06 667.343  25
   0  -8 -14 3122.89 767.511  19
   0  -8 -15 3592.44 753.350  23
   0   8  15 3148.33 642.709  25
   0  -8 -16 53725.8 2686.44  23
   0   8  16 51394.0 2399.22  25
   0  -8 -17 15489.0 1170.74  11
   0  -8 -17 18864.2 1419.93  23
   0  -8 -18 1177.04 302.455  23
   0  -9  12 345.359 200.612  27
   0  -9  12-65.1425 151.669  12
   0  -9  11 2612.70 595.133  27
   0  -9  11 2160.97 583.543  12
   0  -9  10 276.527 340.244  12
   0  -9   9 837.154 426.719  12
   0  -9   8 10104.0 1499.34  12
   0  -9   8 7186.45 1409.09  18
   0  -9   7 262.786 240.833  12
   0  -9   7 353.404 258.520  18
   0  -9   6 73191.3 4139.54  12
   0  -9   6 70248.8 3937.40  18
   0  -9   5 45078.4 3240.28  12
   0  -9   5 40349.9 2911.45  18
   0  -9   4 19478.2 2205.90  12
   0  -9   4 33740.5 2605.74  18
   0  -9   3 6133.03 1095.16  18
   0   9  -3 5069.91 1891.98   2
   0  -9   2 63817.6 3466.65  18
   0   9  -2 62024.4 6081.43   2
   0   9  -2 60773.9 2349.22  20
   0  -9   1 56701.5 3292.49  18
   0   9  -1 61968.9 2351.39  20
   0   9  -1 53394.5 5693.39   2
   0   9   0 1753.99 414.881  20
   0   9   0 1257.02 828.722   2
   0   9   1 7854.16 2075.66   2
   0   9   2 15578.7 2885.92   2
   0   9   2 15040.3 2087.93   3
   0   9   3 261.578 294.367   3
   0   9   3 1363.23 929.671   2
   0   9   4 28047.7 3120.03   3
   0   9   4 27848.0 3943.70   2
   0  -9  -5 33460.7 2349.09  19
   0   9   5 27201.7 3579.61   4
   0   9   5 28130.1 4071.10   2
   0   9   5 34329.0 3630.54   3
   0   9   5 29334.7 1728.59  29
   0  -9  -6 30811.5 2315.46  19
   0   9   6 25947.6 1691.42  29
   0   9   6 30097.1 3553.22   3
   0   9   6 25886.6 3484.97   4
   0  -9  -7 75423.0 3854.99  19
   0   9   7 71775.9 2850.53  29
   0   9   7 69246.8 5834.96   4
   0   9   7 81147.0 6050.07   3
   0  -9  -7 65947.3 2931.11  23
   0   9   8 1995.88 487.373  29
   0  -9  -8 2044.49 545.993  23
   0  -9  -8 3353.66 791.401  19
   0   9   8 2203.09 1053.68   4
   0   9   8 2744.41 1157.92   3
   0  -9  -9 56482.6 2958.12  23
   0   9   9 57953.4 2656.06  29
   0  -9  -9 59968.3 3529.65  19
   0  -9 -10 86991.0 3716.09  23
   0   9  10 89122.8 3310.18  29
   0  -9 -10 98261.2 4533.79  19
   0  -9 -11 13766.8 1510.69  23
   0  -9 -11 11538.2 1735.06  19
   0  -9 -12 19237.7 1812.98  23
   0  -9 -12 20545.2 2157.07  19
   0  -9 -13 32066.0 2329.13  23
   0  -9 -13 29444.3 2414.56  19
   0  -9 -14 8409.57 1161.12  23
   0  -9 -14 6273.46 1162.60  19
   0  -9 -15 1553.83 599.044  19
   0  -9 -15 4617.01 814.862  23
   0  -9 -16 1433.75 405.624  19
   0  -9 -16 5037.37 792.008  23
   0  -9 -17 198.661 101.339  23
   0 -10  11 13229.2 1172.72  27
   0 -10  11 15139.2 1353.13  12
   0 -10  10-90.5019 227.228  12
   0 -10   9 22117.6 1983.89  12
   0 -10   8 26729.2 2334.53  12
   0 -10   7 4041.91 930.193  18
   0 -10   7 5297.65 1094.42  12
   0 -10   6-39.6819 258.799  18
   0 -10   6 272.368 265.630  12
   0 -10   5 2371.97 838.298  18
   0 -10   5 2427.04 767.924  12
   0 -10   4 183.848 322.334  18
   0 -10   4 638.822 456.269  12
   0 -10   3 19867.6 2054.27  18
   0 -10   2 2685.88 742.488  18
   0 -10   1 9400.45 1388.35  18
   0  10  -1 9884.45 981.266  20
   0 -10   0 34296.4 3057.20  18
   0  10   0 52422.8 2285.56  20
   0  10   1 18649.0 3447.81   2
   0  10   1 19816.6 1388.01  20
   0 -10  -1 19070.3 1826.24  19
   0  10   2 28417.6 4223.04   2
   0 -10  -2 30807.5 2280.89  19
   0  10   2 27110.2 1645.33  20
   0  10   3 68726.2 6575.00   2
   0  10   3 71415.7 4949.06   3
   0 -10  -3 74157.0 3551.23  19
   0  10   3 71553.4 2665.73  20
   0  10   4 93501.3 5914.63   3
   0  10   4 88084.5 7489.01   2
   0 -10  -4 89909.0 4099.16  19
   0  10   4 93868.6 3040.33  20
   0 -10  -5-196.513 299.971  19
   0  10   5-194.158 368.057   2
   0  10   5 435.156 423.148   3
   0  10   5 51.4682 158.440  20
   0  10   6 7685.10 1836.80   3
   0  10   6 6376.76 1833.11   4
   0  10   6 7411.27 856.698  20
   0 -10  -6 7378.07 1178.03  19
   0 -10  -7 16157.2 1858.41  19
   0  10   7 15913.7 1250.02  20
   0 -10  -8 2329.04 563.614  23
   0 -10  -8 2418.71 802.004  19
   0 -10  -9 11181.1 1319.80  23
   0 -10  -9 13953.2 1734.60  19
   0 -10 -10 7326.56 1099.44  23
   0 -10 -10 8776.09 1404.64  19
   0 -10 -11 15655.4 1624.71  23
   0 -10 -11 17532.3 2048.33  19
   0 -10 -12 29050.2 2173.43  23
   0 -10 -12 32576.3 2674.55  19
   0 -10 -13 412.328 236.328  23
   0 -10 -13 368.609 240.732  19
   0 -10 -14 40285.5 2456.17  23
   0 -10 -14 32879.0 2379.58  19
   0 -10 -15 52744.9 2658.12  23
   0 -10 -15 36062.8 2257.40  19
   0 -10 -16 9053.77 1007.04  23
   0 -10 -16 2723.67 586.419  19
   0 -10 -17 7783.32 824.865  23
   0 -11  10 3145.76 557.934  27
   0 -11  10 4177.65 680.297  12
   0 -11   9 138.770 100.478  12
   0 -11   8 4737.78 929.766  12
   0 -11   7 26192.2 2272.40  12
   0 -11   7 22198.2 2200.48  18
   0 -11   6 9978.97 1497.22  12
   0 -11   6 8350.55 1289.70  18
   0 -11   5 734.038 422.984  12
   0 -11   5 725.218 392.744  18
   0 -11   4 25715.8 2514.55  12
   0 -11   4 23271.8 2241.29  18
   0 -11   3 30089.8 2808.41  12
   0 -11   3 32051.4 2659.62  18
   0 -11   2 1389.79 604.407  18
   0 -11   1 18783.4 2037.21  18
   0  11   0 1856.46 436.789  20
   0 -11   0 2021.30 642.608  18
   0  11   1 3136.58 589.185  20
   0 -11  -2 4171.04 967.207  19
   0  11   2 4440.71 695.501  20
   0 -11  -3 9359.79 1333.71  19
   0  11   3 9474.65 1010.67  20
   0 -11  -4 25790.3 2255.97  19
   0  11   4 25608.8 1657.12  20
   0 -11  -5 46141.7 3021.80  19
   0  11   5 42640.7 2118.73  20
   0  11   6 2510.19 514.783  20
   0 -11  -6 2625.01 746.495  19
   0 -11  -7 7407.42 1276.70  19
   0  11   7 6671.23 844.944  20
   0 -11  -8 24480.5 2310.68  19
   0 -11  -9 30340.7 2163.60  23
   0 -11  -9 36693.2 2871.06  19
   0 -11 -10 180.896 169.570  23
   0 -11 -10 234.340 208.829  19
   0 -11 -11 4153.16 818.618  23
   0 -11 -11 4025.76 934.057  19
   0 -11 -12 9296.50 1202.66  23
   0 -11 -12 8488.15 1394.61  19
   0 -11 -13 414.890 290.158  23
   0 -11 -13 389.839 240.183  19
   0 -11 -14 351.901 242.988  23
   0 -11 -14 412.361 255.094  19
   0 -11 -15 131.863 142.802  23
   0 -11 -15 152.845 191.140  19
   0 -11 -16 2525.48 491.603  23
   0 -12   8 912.113 381.736  12
   0 -12   7 4319.26 878.092  12
   0 -12   6 9097.71 1325.48  12
   0 -12   6 9211.63 1347.88  18
   0 -12   5 7949.09 1278.37  12
   0 -12   5 8472.41 1281.99  18
   0 -12   4 199.878 232.101  12
   0 -12   4 3.32032 206.644  18
   0 -12   3 27614.4 2580.75  12
   0 -12   3 24203.4 2296.48  18
   0 -12   2 18966.1 2753.83  12
   0 -12   2 81564.9 4226.13  18
   0 -12   1 24607.5 2344.57  18
   0 -12   0 5292.64 1106.12  18
   0  12   1 17675.5 1366.93  20
   0 -12  -1 15674.3 2041.45  18
   0  12   2 3631.09 628.295  20
   0 -12  -2 4049.86 882.782  19
   0  12   3 346.105 179.004  20
   0 -12  -3 364.900 288.815  19
   0  12   4 3099.17 575.822  20
   0 -12  -4 2252.15 714.131  19
   0  12   5 445.818 226.274  20
   0 -12  -5 392.163 386.019  19
   0  12   6 2171.20 483.063  20
   0 -12  -6 1326.66 580.073  19
   0  12   7 3892.41 613.190  20
   0 -12  -7 4256.84 972.116  19
   0  12   8 153.596 121.296  20
   0 -12  -8 470.996 336.596  19
   0 -12  -9 23372.2 2237.37  19
   0 -12 -10 26848.9 1958.54  23
   0 -12 -10 31670.7 2572.92  19
   0 -12 -11 522.054 316.360  23
   0 -12 -11 116.793 143.254  19
   0 -12 -12 13616.2 1362.37  23
   0 -12 -12 16556.4 1755.36  19
   0 -12 -13 37856.3 2178.57  23
   0 -12 -13 38361.3 2483.47  19
   0 -12 -14 10308.4 1080.76  23
   0 -12 -14 9393.69 1137.30  19
   0 -12 -15 1669.45 399.024  23
   0 -12 -15 785.849 291.452  19
   0 -13   7 1352.38 388.185  12
   0 -13   6 9766.56 1175.50  12
   0 -13   5 14715.5 1556.74  12
   0 -13   5 12905.0 1480.87  18
   0 -13   4 12097.8 1537.85  12
   0 -13   4 11309.9 1417.35  18
   0 -13   3 122.326 308.127  12
   0 -13   3 139.715 183.542  18
   0 -13   2 189.345 229.595  12
   0 -13   2 364.858 320.441  18
   0 -13   1 2363.89 1232.64  12
   0 -13   1 8572.70 1348.87  18
   0 -13   0 1240.54 563.576  18
   0 -13  -1 826.646 443.527  18
   0 -13  -2 17445.4 2142.24  18
   0  13   3 49036.1 2222.45  20
   0 -13  -3 45108.3 2976.45  19
   0 -13  -4 32065.9 2569.20  19
   0  13   4 31244.6 1762.17  20
   0 -13  -5 4956.79 1012.64  19
   0  13   5 4830.06 689.385  20
   0 -13  -6 79157.8 4045.13  19
   0  13   6 79829.4 2747.33  20
   0  13   7 54829.2 2223.06  20
   0 -13  -7 63321.7 3586.08  19
   0  13   8 1954.60 409.769  20
   0 -13  -8 2468.21 704.592  19
   0 -13  -9 9857.67 1430.23  19
   0 -13 -10 3434.94 809.189  19
   0 -13 -11 745.764 394.427  19
   0 -13 -12 719.175 349.208  19
   0 -13 -13 267.267 167.088  23
   0 -13 -13 188.771 210.432  19
   0 -13 -14 10333.7 1099.15  19
   0 -14   5 1843.04 457.238  12
   0 -14   4 36371.6 2232.39  12
   0 -14   4 30224.2 1981.60  18
   0 -14   3 27798.3 2103.45  12
   0 -14   3 30066.9 2086.76  18
   0 -14   2 8332.88 1222.04  12
   0 -14   2 7431.19 1105.86  18
   0 -14   1 20371.2 1990.34  12
   0 -14   1 16621.8 1755.50  18
   0 -14   0 30864.3 2543.89  12
   0 -14   0 29793.7 2347.85  18
   0 -14  -1 323.202 417.986  12
   0 -14  -1 11434.4 1469.26  18
   0 -14  -2 2203.20 654.569  18
   0 -14  -3 2127.03 693.358  18
   0 -14  -4 524.025 535.113  18
   0 -14  -4 1344.32 540.833  19
   0 -14  -5 6005.70 1069.31  19
   0 -14  -6 386.384 320.672  19
   0 -14  -7 23891.6 2109.69  19
   0 -14  -8 30261.2 2307.80  19
   0 -14  -9 9446.60 1260.11  19
   0 -14 -10 9870.23 1259.43  19
   0 -14 -11 38841.8 2358.02  19
   0 -14 -12 16666.5 1513.63  19
   0 -14 -13 23.9529 129.591  19
   0 -15   2 8502.18 999.571  12
   0 -15   1 8697.09 1081.51  12
   0 -15   1 7258.03 979.259  18
   0 -15   0 4318.53 803.808  12
   0 -15   0 3157.45 686.468  18
   0 -15  -1 37262.7 2455.35  12
   0 -15  -1 29965.3 2144.45  18
   0 -15  -2 26541.9 2226.37  12
   0 -15  -2 32890.2 2257.14  18
   0 -15  -3 1225.83 417.620  18
   0 -15  -4 26355.8 2085.07  18
   0 -15  -5 36549.5 2348.26  19
   0 -15  -5 38399.8 2565.06  18
   0 -15  -6 11410.3 1296.38  19
   0 -15  -6 10272.6 1378.04  18
   0 -15  -7 5108.39 868.137  19
   0 -15  -7 4898.14 1019.26  18
   0 -15  -8 5558.34 885.089  19
   0 -15  -9 39.2977 105.704  19
   0 -15 -10 7027.65 940.288  19
   0 -16  -4 1430.50 393.391  18
   0 -16  -5 7121.59 905.003  18
   0 -16  -6 19436.1 1484.59  18
   1 -15  -9 310.232 203.212  18
   1 -15  -8 2251.29 627.779  18
   1 -15  -8 2894.29 559.392  19
   1 -15  -7 29966.3 2086.27  18
   1 -15  -6 9992.32 1174.21  18
   1 -15  -5 1959.31 510.252  18
   1 -15  -4 25934.3 1874.55  18
   1 -15  -3 19165.6 1594.34  18
   1 -15  -2 16.9984 124.034  12
   1 -15  -2-129.323 133.630  18
   1 -15  -1 3113.17 697.873  12
   1 -15  -1 2520.28 544.391  18
   1 -15   0 4031.04 755.290  12
   1 -15   1 1812.69 478.866  12
   1 -14 -12 260.929 181.945  19
   1 -14 -11 5459.63 823.456  19
   1 -14 -10 19685.2 1652.93  19
   1 -14  -9 93.7193 114.863  19
  -1  14   8 174.173 77.6316  20
   1 -14  -8-108.446 134.612  19
  -1  14   7 1958.24 371.316  20
   1 -14  -7 1888.64 604.814  19
  -1  14   6 1214.42 316.542  20
   1 -14  -6 1102.87 447.306  19
  -1  14   5 10072.3 899.379  20
   1 -14  -5 7491.02 1242.15  18
  -1  14   4 167.202 126.854  20
   1 -14  -4-9.72088 114.514  18
   1 -14  -3 21383.0 1954.28  18
   1 -14  -2 50595.5 2953.41  18
   1 -14  -1 10420.4 1310.36  18
   1 -14   0 39.6519 175.562  12
   1 -14   0 444.863 244.166  18
   1 -14   1 24118.2 2100.36  12
   1 -14   1 17186.2 1620.81  18
   1 -14   2 25524.2 2063.07  12
   1 -14   2 22432.1 1726.34  18
   1 -14   3 407.490 232.877  12
   1 -14   3 245.832 203.478  18
   1 -14   4 1034.61 369.527  12
  -1  14  -4 835.347 222.571  21
   1 -13 -13 3010.95 623.936  19
   1 -13 -12 19710.2 1668.17  19
   1 -13 -11 2740.13 702.256  19
   1 -13 -10 3716.85 794.364  19
  -1  13   9 32877.7 1559.11  20
   1 -13  -9 37380.2 2605.01  19
  -1  13   8 16568.9 1172.25  20
   1 -13  -8 18597.3 1869.83  19
  -1  13   7 33.4141 83.6904  20
   1 -13  -7 56.6523 177.234  19
  -1  13   6 7211.41 819.770  20
   1 -13  -6 7222.81 1163.90  19
  -1  13   5 14032.2 1164.22  20
   1 -13  -5 12230.5 1517.76  19
  -1  13   4 119.052 98.9887  20
  -1  13   3 1222.76 345.340  20
   1 -13  -3 994.353 407.999  18
  -1  13   2 541.123 247.816  20
   1 -13  -2 786.964 441.908  18
   1 -13  -1 1366.17 516.341  18
   1 -13   0 7272.86 1203.90  18
   1 -13   1-23.6801 182.699  12
   1 -13   1 280.210 265.649  18
   1 -13   2 19544.2 2082.62  12
   1 -13   2 15945.0 1700.83  18
   1 -13   3 37852.6 2720.86  12
   1 -13   3 30454.6 2225.76  18
   1 -13   4 5298.36 996.927  12
   1 -13   4 4565.69 857.698  18
   1 -13   5 180.632 174.671  12
   1 -13   6 22100.2 1671.16  12
   1 -12 -14 3963.80 597.003  23
   1 -12 -14 2693.84 586.872  19
   1 -12 -13 4154.17 652.187  23
   1 -12 -13 3654.56 739.364  19
   1 -12 -12 5153.74 946.956  19
   1 -12 -11 1926.97 605.809  19
   1 -12 -10 378.869 350.761  19
   1 -12  -9 4868.32 1015.00  19
  -1  12   9 4287.15 615.694  20
  -1  12   8 3556.94 576.367  20
   1 -12  -8 3515.04 867.570  19
   1 -12  -7 18836.2 1951.23  19
  -1  12   7 17806.8 1337.45  20
   1 -12  -6 5631.68 1067.08  19
  -1  12   6 5454.33 761.473  20
  -1  12   5 12388.2 1140.91  20
   1 -12  -5 10761.9 1458.76  19
   1 -12  -4 48850.1 3064.09  19
  -1  12   4 53677.7 2397.29  20
  -1  12   3 37919.9 2000.19  20
  -1  12   2 575.270 240.388  20
   1 -12  -2 215.172 342.413  18
  -1  12   1 23824.4 1589.25  20
   1 -12  -1 22737.0 2261.97  18
  -1  12   0 9132.73 972.721  20
   1 -12   0 9596.02 1427.53  18
   1 -12   1 326.258 306.162  18
   1 -12   2 861.690 434.502  18
   1 -12   2 80.8125 196.405  12
   1 -12   3 4390.71 1035.12  18
   1 -12   3 6718.77 1282.89  12
   1 -12   4 2415.48 707.716  18
   1 -12   4 3086.36 798.438  12
   1 -12   5 1381.32 481.730  18
   1 -12   5 1290.65 513.662  12
   1 -12   6-35.4595 146.630  12
   1 -12   7 6248.01 964.279  12
   1 -12   8 16737.0 1399.94  12
   1 -11 -15 7786.87 881.985  23
   1 -11 -15 3239.36 643.936  19
   1 -11 -14 24986.1 1687.86  23
   1 -11 -14 15464.2 1536.00  19
   1 -11 -13 22404.1 1727.48  23
   1 -11 -13 20261.6 1946.10  19
   1 -11 -12 2865.05 628.695  23
   1 -11 -12 2786.95 743.068  19
   1 -11 -11 24438.8 1894.36  23
   1 -11 -11 24987.9 2361.94  19
   1 -11 -10 86760.5 3526.54  23
   1 -11 -10 96699.6 4549.14  19
   1 -11  -9 13255.9 1671.68  19
  -1  11   9 10916.8 1023.74  20
   1 -11  -8 10686.1 1509.44  19
  -1  11   8 9231.40 979.915  20
   1 -11  -7 5737.64 1137.27  19
  -1  11   7 5557.69 769.300  20
  -1  11   6 174.579 90.5313  20
   1 -11  -6 121.484 268.837  19
  -1  11   5 11511.0 1114.06  20
   1 -11  -5 9989.02 1479.49  19
  -1  11   4-8.23384 80.9954  20
   1 -11  -4 48.2028 271.263  19
   1 -11  -3 4826.65 1015.43  19
  -1  11   3 5510.35 776.863  20
  -1  11   2 17966.4 1385.34  20
  -1  11   1 3093.97 577.383  20
   1 -11  -1 2043.49 677.449  18
  -1  11   0 23455.8 1555.81  20
   1 -11   0 20708.8 2127.94  18
  -1  11  -1 36416.9 1919.69  20
   1 -11   1 36471.8 2773.42  18
   1 -11   2 11529.8 1563.96  18
   1 -11   3 4807.62 1014.72  18
   1 -11   3 1420.95 773.356  12
   1 -11   4 36236.3 2750.32  18
   1 -11   4 44063.5 3308.08  12
   1 -11   5 25329.9 2232.27  18
   1 -11   5 28273.9 2553.77  12
   1 -11   6-200.364 192.882  18
   1 -11   6 70.5226 352.864  12
   1 -11   7 3323.74 803.855  12
   1 -11   8 11614.2 1380.37  12
   1 -11   9-176.405 192.735  12
   1 -10 -16 2692.45 595.992  19
   1 -10 -16 13598.4 1139.96  23
   1 -10 -15 5565.90 859.606  19
   1 -10 -15 9561.17 1055.46  23
   1 -10 -14 2682.18 689.212  19
   1 -10 -14 3029.93 641.304  23
   1 -10 -13 2072.09 677.044  19
   1 -10 -13 2587.03 616.682  23
   1 -10 -12 9007.56 1636.54  19
   1 -10 -12 10298.7 1262.87  23
   1 -10 -11 2831.75 670.414  23
   1 -10 -11 2200.48 776.533  19
  -1  10  11 2829.94 570.671  29
   1 -10 -10 16423.9 1974.58  19
   1 -10 -10 12735.1 1401.79  23
  -1  10  10 14686.3 1380.59  29
   1 -10  -9 44400.2 3111.61  19
   1 -10  -9 39582.4 2414.73  23
  -1  10   9 39904.1 2247.45  29
  -1  10   8 37836.6 2186.77  29
   1 -10  -8 41554.0 2952.57  19
  -1  10   8 38651.8 1995.60  20
   1 -10  -7 700.507 381.613  19
  -1  10   7 463.686 223.227  29
  -1  10   7 582.154 265.219  20
  -1  10   6 33066.5 1967.76  29
   1 -10  -6 34975.4 2590.31  19
  -1  10   6 31035.9 1819.23  20
  -1  10   5 132032. 3809.78  29
   1 -10  -5 142084. 5099.93  19
  -1  10   5 138734. 3793.90  20
  -1  10   4 5684.17 775.510  29
  -1  10   4 5544.79 1465.22   3
   1 -10  -4 6176.89 1061.21  19
  -1  10   4 6414.27 821.890  20
  -1  10   3 21946.2 1529.67  20
   1 -10  -3 21409.3 1911.75  19
  -1  10   2 31047.3 1794.47  20
  -1  10   1 9377.14 981.803  20
   1 -10   0 843.831 837.925  18
  -1  10   0 3966.64 650.317  20
   1 -10   1 763.721 424.947  18
  -1  10  -1 1138.46 350.474  20
   1 -10   2 2875.71 757.744  18
  -1  10  -2 3163.61 562.486  20
   1 -10   3 15685.9 1806.25  18
   1 -10   4 1144.33 491.156  18
   1 -10   4 572.823 567.189  12
   1 -10   5 17963.4 2023.08  18
   1 -10   5 19835.8 2184.91  12
   1 -10   6 77120.0 3950.17  18
   1 -10   6 83561.5 4415.06  12
   1 -10   7 6106.15 1155.44  18
   1 -10   7 7439.85 1245.82  12
   1 -10   8 17715.2 1853.92  12
   1 -10   9 20113.5 1838.21  12
   1 -10  10 17224.1 1554.43  12
   1 -10  11 1104.09 328.189  27
   1 -10  11 1427.49 401.871  12
   1  -9 -17 3094.43 521.359  23
   1  -9 -16 30765.4 1868.44  23
   1  -9 -16 6673.88 941.536  19
   1  -9 -15 44669.0 2440.63  23
   1  -9 -15 23636.3 1872.13  19
   1  -9 -14 2493.95 616.248  23
   1  -9 -14 1519.33 484.528  19
   1  -9 -13 18708.4 1706.16  23
   1  -9 -12 55210.4 3019.81  23
  -1   9  12 53413.2 2504.04  29
   1  -9 -11 11677.5 1370.62  23
  -1   9  11 11707.1 1206.04  29
   1  -9 -10 13503.4 1493.96  23
  -1   9  10 14641.7 1361.18  29
   1  -9  -9 18345.3 1647.54  23
  -1   9   9 18024.6 1504.71  29
   1  -9  -8 7966.42 1050.37  23
  -1   9   8 8370.00 908.749  20
  -1   9   8 9060.92 1057.95  29
  -1   9   7 22559.2 1505.23  20
  -1   9   7 24574.9 1719.53  29
  -1   9   7 22203.9 3433.15   4
  -1   9   7 25419.5 3475.99   3
  -1   9   6 8086.81 900.516  20
   1  -9  -6 9405.23 1346.68  19
  -1   9   6 8212.65 968.727  29
  -1   9   6 8126.91 2031.17   4
  -1   9   6 8900.75 1967.88   3
   1  -9  -5 11493.4 1385.34  19
  -1   9   5 9905.87 973.484  20
  -1   9   5 9955.22 1034.44  29
  -1   9   5 7671.66 1967.29   4
  -1   9   5 9482.09 1950.13   3
  -1   9   4 58078.6 2359.30  20
   1  -9  -4 64496.9 3208.21  19
  -1   9   4 57407.5 2404.18  29
  -1   9   4 61031.7 4752.21   3
  -1   9   4 60684.3 6094.14   2
  -1   9   3 31786.4 4398.01   2
  -1   9   3 29598.6 3170.77   3
  -1   9   3 31394.3 1709.72  20
  -1   9   2 9098.20 1691.38   3
  -1   9   2 10020.6 2430.87   2
  -1   9   2 9595.03 958.712  20
  -1   9   1 99472.7 7647.23   2
  -1   9   1 102148. 3079.65  20
  -1   9   0 110733. 8118.97   2
  -1   9   0 116709. 3304.19  20
   1  -9   1 1989.59 1385.17   7
   1  -9   1 85.9786 335.705  18
  -1   9  -1 867.511 733.846   2
  -1   9  -1 1158.75 328.345  20
   1  -9   2 13631.6 3996.15   7
  -1   9  -2 14683.6 1168.93  20
  -1   9  -2 13995.1 3070.15   2
   1  -9   2 13385.9 1556.14  18
   1  -9   3 65231.7 3513.24  18
  -1   9  -3 60795.2 2364.97  20
   1  -9   4 10471.3 1415.80  18
   1  -9   5 4982.77 1107.47  18
   1  -9   5 6548.50 1235.47  12
   1  -9   6 412.717 280.324  18
   1  -9   6 800.827 504.169  12
   1  -9   7 67.5425 181.047  18
   1  -9   7 574.674 420.761  12
   1  -9   8 2570.44 729.524  12
   1  -9   9 108.075 175.295  12
   1  -9  10 7138.66 1102.07  12
   1  -9  11 27296.3 1904.44  27
   1  -9  11 28095.5 1988.47  12
   1  -9  12 1346.16 366.869  27
   1  -9  12-325.956 240.048  12
   1  -8 -17 38.8149 77.3631  11
   1  -8 -17-74.2814 82.7230  23
   1  -8 -16 12152.9 1214.25  23
   1  -8 -16 3626.29 664.667  19
   1  -8 -15 584.204 581.841  19
   1  -8 -15 5671.47 912.792  23
   1  -8 -14 2877.80 662.106  23
  -1   8  14 1980.82 494.109  25
   1  -8 -13 25768.4 2094.94  23
  -1   8  13 22990.2 1730.26  25
  -1   8  13 23239.2 1582.35  29
   1  -8 -12 573.495 287.836  23
  -1   8  12 585.518 316.827  29
  -1   8  12 187.097 197.154  25
   1  -8 -11 38702.3 2475.19  23
  -1   8  11 34669.3 2110.06  25
  -1   8  11 38286.4 2183.20  29
   1  -8 -10 46629.7 2673.25  23
  -1   8  10 42592.9 2295.23  25
  -1   8  10 47297.1 2422.09  29
  -1   8   9 369.799 444.857   4
  -1   8   9 305.098 400.282   3
   1  -8  -9 608.751 293.365  23
  -1   8   9 673.481 296.010  29
  -1   8   8 54111.2 5229.34   4
  -1   8   8 64663.2 5671.47   3
   1  -8  -8 53725.6 2653.53  23
  -1   8   8 55337.2 2554.27  29
  -1   8   7 123938. 3738.31  29
  -1   8   7 141543. 8105.18   3
  -1   8   7 124932. 7669.81   4
  -1   8   6 27314.1 3416.58   3
  -1   8   6 24326.3 3293.47   4
  -1   8   5 19390.6 2906.54   4
  -1   8   5 20742.5 2841.86   3
  -1   8   4 112084. 7790.34   2
  -1   8   4 121925. 6476.26   3
  -1   8   4 103200. 6661.59   4
  -1   8   3 7318.95 1508.72   3
  -1   8   3 7789.38 2021.18   2
  -1   8   2 22579.1 2534.33   3
  -1   8   2 23995.7 3476.76   2
  -1   8   1 11405.6 2420.73   2
  -1   8   1 10777.9 1660.18   3
  -1   8   0 3369.35 1434.41   2
  -1   8  -1 27116.2 3819.63   2
   1  -8   2 15748.1 4023.96   7
  -1   8  -2 16813.3 3052.46   2
   1  -8   3 5564.95 2262.56   7
   1  -8   3 6529.17 1032.87  18
  -1   8  -3 6009.94 1898.59   2
  -1   8  -3 5879.43 695.181  20
   1  -8   4 79351.2 3752.04  18
  -1   8  -4 69506.7 6489.17   2
   1  -8   5 112990. 10089.2   7
   1  -8   5 123367. 5299.20  12
   1  -8   6 9566.20 1389.32  18
   1  -8   6 10744.0 1553.15  12
   1  -8   7 78040.8 4007.39  18
   1  -8   7 83269.0 4297.25  12
   1  -8   8 57112.6 3458.92  18
   1  -8   8 64735.1 3732.40  12
   1  -8   9 1864.20 652.404  12
   1  -8  10 5057.20 981.380  12
   1  -8  11 7500.79 1137.74  12
   1  -8  12 220.949 177.601  27
   1  -8  12 477.257 256.164  12
   1  -8  13 1643.92 397.024  27
   1  -7 -18 15991.9 1120.45  23
   1  -7 -17 26742.9 1682.33  23
   1  -7 -17 20197.3 1370.95  11
   1  -7 -16 43116.1 2352.01  23
  -1   7  16 37390.2 2002.43  25
   1  -7 -15 5268.54 886.823  23
  -1   7  15 5399.86 799.547  25
   1  -7 -14 52409.2 2964.44  23
  -1   7  14 52278.8 2593.74  25
   1  -7 -13 71108.8 3425.22  23
  -1   7  13 64773.8 2911.16  25
   1  -7 -12 18367.4 1715.20  23
  -1   7  12 16937.9 1467.99  25
  -1   7  12 16765.9 1392.02  29
   1  -7 -11 10032.9 1287.88  23
  -1   7  11 8928.57 1036.33  25
  -1   7  11 10152.9 1106.09  29
  -1   7  10 6944.02 1861.28   3
  -1   7  10 6117.93 1823.80   4
   1  -7 -10 5450.34 942.531  23
  -1   7  10 3068.13 806.533  17
  -1   7  10 5969.99 844.514  29
  -1   7  10 5379.61 792.618  25
  -1   7   9 252.863 364.130   4
  -1   7   9 668.854 578.192   3
   1  -7  -9 517.141 222.636  23
  -1   7   9 389.234 298.861  17
  -1   7   9 282.317 183.613  29
  -1   7   9 210.000 91.8087  25
  -1   7   8 14105.0 2508.94   4
  -1   7   8 17369.9 2901.25   3
  -1   7   7 1244.20 689.920   4
  -1   7   7 1192.16 760.207   3
  -1   7   6 106493. 6707.97   3
  -1   7   6 91026.3 5947.99   4
  -1   7   5 84956.6 5641.75   4
  -1   7   5 98148.1 6003.94   3
  -1   7   4 338.188 294.631   3
  -1   7   4 276.154 318.398   4
  -1   7   4 226.410 216.715   2
  -1   7   3 105611. 5536.40   3
  -1   7   3 98724.8 6734.03   2
  -1   7   3 93252.4 5834.01   4
  -1   7   2 186917. 8952.92   2
  -1   7   2 186659. 6930.79   3
  -1   7   1 69189.4 5396.14   2
  -1   7   1 65160.2 3917.93   3
  -1   7   0 9846.37 2065.92   2
  -1   7  -1 138369. 7817.27   2
  -1   7  -2 78211.5 5990.45   2
   1  -7   2 48850.3 5959.00   7
  -1   7  -3 5187.68 1569.88   2
   1  -7   3 3541.00 1959.17   7
  -1   7  -4 9990.74 2265.85   2
   1  -7   4 6219.46 2263.75   7
   1  -7   5-48.0503 294.583  12
  -1   7  -5 1394.85 881.134   2
   1  -7   5 1653.74 522.700  18
   1  -7   6 22899.0 2150.92  12
  -1   7  -6 21883.0 3633.47   2
   1  -7   6 18201.5 1839.70  18
   1  -7   6 13860.2 3540.21   7
   1  -7   7 4261.87 945.183  12
   1  -7   7 4168.29 901.441  18
   1  -7   8 3454.40 798.109  12
   1  -7   8 2766.32 842.669  18
   1  -7   9 42566.7 2965.86  12
   1  -7  10 52864.3 3254.84  12
   1  -7  11 1708.61 548.783  12
   1  -7  12 19137.4 1731.33  27
   1  -7  12 21921.9 1901.93  12
   1  -7  13 32555.2 2034.04  27
   1  -7  14 1539.64 393.960  27
   1  -6 -18 2523.22 432.981  11
   1  -6 -18 2539.59 439.773  23
  -1   6  17 62.9085 60.9754  25
   1  -6 -17 414.319 259.925  11
   1  -6 -17 234.504 130.688  23
  -1   6  16-18.9788 83.0829  25
   1  -6 -16 20.6141 119.515  23
  -1   6  15 6521.27 903.408  25
   1  -6 -15 7016.71 1015.38  23
  -1   6  14 4608.34 763.953  25
   1  -6 -14 5002.63 897.542  23
  -1   6  13 24161.3 1776.44  25
   1  -6 -13 26167.8 2058.27  23
  -1   6  12 46002.7 2401.82  25
   1  -6 -12 47811.5 2881.11  23
   1  -6 -11 40741.0 2570.32  23
  -1   6  11 37582.0 2614.24  17
  -1   6  11 39178.0 2119.62  29
  -1   6  11 38675.7 2136.77  25
  -1   6  10 34920.8 4015.19   3
  -1   6  10 37033.3 4368.01   4
   1  -6 -10 39983.9 2389.35  23
  -1   6  10 32489.6 2494.86  17
  -1   6  10 35721.1 1966.68  25
  -1   6  10 36270.8 2043.08  29
  -1   6   9 91391.9 6483.74   3
  -1   6   9 86051.5 6290.99   4
  -1   6   8 116918. 6997.45   4
  -1   6   8 125439. 7578.10   3
  -1   6   7 8662.74 2017.54   3
  -1   6   7 6798.01 1578.41   4
  -1   6   6 50396.7 4622.43   3
  -1   6   6 40215.6 3722.74   4
  -1   6   5 7548.33 1561.10   4
  -1   6   5 8246.30 1731.24   3
  -1   6   4 11777.7 1899.92   3
  -1   6   4 10436.0 2112.61   2
  -1   6   4 10299.1 1768.22   4
  -1   6   3 11595.1 1875.79   4
  -1   6   3 13697.5 2279.30   2
  -1   6   3 13163.4 1858.37   3
  -1   6   2 11037.5 1844.70   4
  -1   6   2 9881.74 1550.37   3
  -1   6   2 12420.6 2124.85   2
  -1   6   1 20435.0 2696.86   2
  -1   6   1 19923.0 2037.86   3
  -1   6   0 40171.7 2717.53   3
  -1   6   0 41872.7 3908.93   2
  -1   6  -1 2859.35 1008.70   2
  -1   6  -2 66526.7 5052.17   2
  -1   6  -3 59071.0 4905.06   2
   1  -6   3 31508.1 5672.43   7
  -1   6  -4 24406.9 3281.79   2
   1  -6   4 12635.4 3194.58   7
  -1   6  -5 39561.6 4311.49   2
   1  -6   5 35851.4 5122.09   7
   1  -6   6 61108.3 3306.59  12
  -1   6  -6 59987.5 5585.69   2
   1  -6   6 55322.4 6470.62   7
   1  -6   7 29578.3 2351.08  12
  -1   6  -7 29079.4 4024.53   2
   1  -6   7 28212.8 2210.09  18
   1  -6   7 20105.9 4216.34   7
   1  -6   8 1041.50 524.742  18
   1  -6   8 2015.61 660.692  12
   1  -6   9 4397.94 951.891  12
   1  -6  10 4793.47 982.120  12
   1  -6  11 5314.76 1009.28  12
   1  -6  12 1408.96 475.131  27
   1  -6  12 1364.40 475.505  12
   1  -6  13 774.245 306.708  27
   1  -6  13-87.6303 198.047  12
   1  -6  14 24230.4 1696.66  27
   1  -6  15 8575.66 863.198  27
   1  -5 -18 15988.9 1113.46  23
   1  -5 -18 17491.8 1196.46  11
   1  -5 -17 54.1224 82.9337  23
  -1   5  17-11.8523 121.579  25
   1  -5 -17 75.5036 134.800  11
  -1   5  16 10487.6 1084.88  25
   1  -5 -16 10327.8 1160.25  23
  -1   5  15 13822.2 1328.19  25
   1  -5 -15 13769.2 1427.26  23
  -1   5  14 1035.86 393.595  26
  -1   5  14 1053.42 371.094  25
   1  -5 -14 1146.93 475.679  23
  -1   5  13 14323.5 1376.62  25
  -1   5  13 15644.3 1381.25  26
   1  -5 -13 15101.6 1601.96  23
   1  -5 -12 830.349 338.794  23
  -1   5  12 595.881 327.090  17
  -1   5  12 668.051 269.725  25
  -1   5  12 554.022 247.275  26
   1  -5 -11 291.306 219.097  23
  -1   5  11-51.9880 131.433  17
  -1   5  11 348.110 213.321  25
  -1   5  11 323.905 170.329  26
  -1   5  10 1644.27 885.446   4
  -1   5  10 924.031 640.417   3
   1  -5 -10 2231.28 557.712  23
  -1   5  10 1402.56 562.305  17
  -1   5  10 1750.98 427.433  25
  -1   5  10 1804.91 409.139  26
  -1   5   9 6938.98 1685.36   3
  -1   5   9 7352.33 1748.87   4
  -1   5   8 36299.3 3916.63   3
  -1   5   8 33523.5 3580.80   4
  -1   5   7 68440.1 5559.27   3
  -1   5   7 61780.2 4532.72   4
  -1   5   6 63311.7 5431.30   3
  -1   5   6 48691.2 3837.64   4
  -1   5   5 31548.6 3502.57   3
  -1   5   5 27777.0 2755.61   4
  -1   5   4 96071.9 4952.98   4
  -1   5   4 95622.2 5727.56   2
  -1   5   4 98928.7 5486.04   3
  -1   5   3 142806. 5898.96   4
  -1   5   3 139696. 5931.61   3
  -1   5   3 147569. 6850.25   2
  -1   5   2 1088.58 514.966   3
  -1   5   2 1319.29 726.645   2
  -1   5   2 2103.45 727.492   4
  -1   5   1 44060.0 3549.71   2
  -1   5   1 39783.4 2690.34   3
  -1   5   1 40144.6 3180.73   4
  -1   5   0 44322.3 3573.89   2
  -1   5   0 42434.8 2606.10   3
  -1   5  -1 3892.75 1106.57   2
  -1   5  -2 28614.7 3035.53   2
  -1   5  -3 29759.0 3120.17   2
   1  -5   3 15393.5 3066.68   7
  -1   5  -4 4292.82 1221.21   2
   1  -5   4 1665.22 1112.66   7
  -1   5  -5 41062.1 3993.11   2
   1  -5   5 41822.3 5092.94   7
  -1   5  -6 49.9126 213.436   2
   1  -5   6 404.665 739.528   7
  -1   5  -7 33716.6 4021.14   2
   1  -5   7 30496.1 4693.04   7
   1  -5   8 44691.5 2772.60  12
  -1   5  -8 38398.4 4564.18   2
   1  -5   8 39524.7 2590.40  18
   1  -5   8 31979.0 5003.94   7
   1  -5   9 13950.8 1585.77  12
   1  -5  10 10050.1 1387.99  12
   1  -5  11 33471.4 2516.40  12
   1  -5  12 6245.07 1064.31  27
   1  -5  12 7626.30 1179.44  12
   1  -5  13 4102.87 809.061  27
   1  -5  13-177.484 157.104  12
   1  -5  14 2731.51 626.828  27
   1  -5  15 2648.40 532.798  27
   1  -4 -18 2850.87 456.131  23
  -1   4  18 2645.31 433.086  25
   1  -4 -18 3593.02 536.676  11
   1  -4 -17 8353.85 919.320  23
  -1   4  17 8163.52 892.362  25
   1  -4 -17 8228.74 914.203  11
  -1   4  16 141.615 101.803  25
   1  -4 -16 535.846 243.310  23
  -1   4  15 16302.7 1396.76  26
  -1   4  15 15751.4 1437.12  25
   1  -4 -15 15205.7 1467.87  23
  -1   4  14 40506.4 2236.91  26
  -1   4  14 40218.1 2335.08  25
   1  -4 -14 41824.6 2548.51  23
  -1   4  13 37186.6 2228.33  25
  -1   4  13 37933.3 2157.30  26
   1  -4 -13 38153.6 2466.17  23
   1  -4 -12 5462.08 905.447  23
  -1   4  12 3092.26 887.605  17
  -1   4  12 4847.10 778.860  25
  -1   4  12 4494.25 720.530  26
  -1   4  11 33421.5 1861.51  26
  -1   4  11 33335.1 1933.49  25
  -1   4  11 31613.1 4116.28   4
  -1   4  11 27819.0 3809.49   7
  -1   4  11 33154.6 2553.70  17
  -1   4  10 90252.9 6352.51   7
  -1   4  10 94739.7 6661.13   4
  -1   4   9 17947.1 2637.16   7
  -1   4   9 15835.2 2563.39   4
  -1   4   9 16845.2 2442.35   3
  -1   4   8 2601.12 933.958   7
  -1   4   8 2472.01 906.793   3
  -1   4   8 2778.55 1013.64   4
  -1   4   7 7714.62 1628.08   7
  -1   4   7 9185.33 1955.30   3
  -1   4   7 7381.67 1461.62   4
  -1   4   6 258.707 255.263   3
  -1   4   6 19.2383 144.582   4
  -1   4   5 29922.4 2725.73   4
  -1   4   5 35841.4 4245.33   3
  -1   4   4 14157.1 1740.27   4
  -1   4   4 14707.7 2177.73   3
  -1   4   3 23211.6 2156.84   4
  -1   4   3 22115.9 2285.30   3
  -1   4   3 24787.9 2540.14   2
  -1   4   2 122588. 4820.91   4
  -1   4   2 121740. 5541.91   2
  -1   4   2 108846. 4533.16   3
  -1   4   1 9346.97 1460.05   2
  -1   4   1 9130.60 1351.29   4
  -1   4   1 8427.07 1147.53   3
  -1   4   0 112899. 3901.01   3
  -1   4   0 121583. 5278.67   2
  -1   4  -1 112668. 5140.59   2
  -1   4  -2 74163.7 4263.46   2
   1  -4   3 214.275 752.743   7
  -1   4  -3 1136.41 570.260   2
   1  -4   4 1684.50 2850.34   7
  -1   4  -4 49244.9 3746.03   2
   1  -4   5 16306.5 3007.95   7
  -1   4  -5 20699.0 2588.97   2
   1  -4   6-53.7740 198.703   7
  -1   4  -6 37.6508 167.600   2
   1  -4   7 1347.74 1033.17   7
  -1   4  -7 2106.82 976.345   2
   1  -4   8-97.3165 310.853   7
  -1   4  -8-126.210 256.854   2
   1  -4   9 3879.13 1774.75   7
   1  -4   9 2739.44 677.076  12
  -1   4  -9 2871.52 519.422  11
  -1   4  -9 2261.49 1072.46   2
   1  -4  10 6609.88 1068.86  12
  -1   4 -10 6378.58 793.856  11
   1  -4  11 13223.4 1559.07  12
  -1   4 -11 13429.8 1191.45  11
   1  -4  12 17554.5 1782.68  27
  -1   4 -12 17010.8 1425.78  11
   1  -4  12 19942.2 1893.51  12
   1  -4  13 25337.1 2073.55  27
  -1   4 -13 24677.2 1700.35  11
   1  -4  14 4452.23 825.130  27
  -1   4 -14 3359.58 654.234  11
   1  -4  15 11544.5 1210.30  27
  -1   4 -15 9412.20 902.146  11
   1  -4  16 16241.7 1256.06  27
  -1   3  18 7469.05 732.675  25
   1  -3 -18 11166.2 934.426  11
   1  -3 -17 32103.4 1756.18  23
  -1   3  17 34071.0 1831.34  25
   1  -3 -16 5745.18 835.268  23
  -1   3  16 7158.84 861.463  26
  -1   3  16 6838.01 905.421  25
   1  -3 -16 4168.14 747.894  11
  -1   3  15 2118.82 498.993  26
  -1   3  15 2348.69 581.567  25
   1  -3 -15 1777.96 499.918  23
  -1   3  14 4054.21 716.797  26
  -1   3  14 3459.96 691.116  25
   1  -3 -14 3891.36 753.414  23
  -1   3  13 4604.32 735.441  26
   1  -3 -13 4236.66 796.796  23
  -1   3  12 20169.2 1896.09  17
  -1   3  12 18401.0 1457.88  26
  -1   3  11 1388.18 375.394  26
  -1   3  11 757.165 636.485   4
  -1   3  11 336.308 424.398   7
  -1   3  11 1016.23 475.966  17
  -1   3  10 38304.5 4097.78   7
  -1   3  10 40199.3 4304.34   4
  -1   3   9 124855. 6905.99   7
  -1   3   9 120036. 5932.02   3
  -1   3   8 64218.9 4631.45   7
  -1   3   8 63580.4 4349.41   3
  -1   3   7 22893.3 2547.72   7
  -1   3   7 20866.2 2472.29   4
  -1   3   7 21640.3 2592.79   3
  -1   3   6 99514.7 4880.09   7
  -1   3   6 93227.8 4777.37   4
  -1   3   6 102501. 6182.79   3
  -1   3   5 220281. 6727.18   7
  -1   3   5 236720. 10924.4   3
  -1   3   4 2269.93 894.679   3
  -1   3   4 3173.33 666.241   1
  -1   3   4 2862.17 728.850   4
  -1   3   3 82392.0 3690.84   4
  -1   3   3 55737.0 3518.30   3
  -1   3   2 11057.1 1351.43   3
  -1   3   2 12960.5 1400.20   4
  -1   3   1 865.830 331.479   3
  -1   3   1 1544.75 434.429   4
  -1   3   0 6746.49 855.167   3
  -1   3   0 6775.77 1030.85   4
  -1   3  -1 481.270 313.481   2
  -1   3  -2 96526.1 4197.45   2
   1  -3   3 72630.1 5473.92   7
  -1   3  -3 78290.2 3993.42   2
   1  -3   4 3358.81 1519.36   7
  -1   3  -4 5864.06 1189.18   2
   1  -3   5 68198.6 5455.17   7
   1  -3   6 203202. 9824.65   7
   1  -3   7 51652.5 5302.32   7
   1  -3   8 33356.8 4484.26   7
   1  -3   9 12984.6 3026.83   7
   1  -3  10 39811.5 2523.70  12
  -1   3 -10 36225.9 1917.17  11
  -1   3 -11 498.689 215.938  11
   1  -3  11 600.773 294.186  12
  -1   3 -12-63.6824 170.687  11
   1  -3  12-1.37047 117.452  27
  -1   3 -13-175.069 211.843  11
   1  -3  13-8.79539 120.957  27
  -1   3 -14 4517.71 746.355  11
   1  -3  14 4753.62 878.134  27
  -1   3 -15 1238.42 325.132  11
   1  -3  15 1091.79 373.881  27
  -1   3 -16 4509.80 595.412  11
   1  -3  16 5324.12 774.882  27
   1  -2 -18 9819.05 866.785  11
  -1   2  18 5421.93 620.962  25
   1  -2 -17 95.2990 148.340  11
  -1   2  17-48.7536 160.443  25
  -1   2  17 68.7487 54.3274  26
   1  -2 -16 65947.6 2811.84  11
  -1   2  16 63351.1 2639.75  26
  -1   2  16 57776.4 2636.32  25
   1  -2 -16 55475.3 2483.35  23
  -1   2  15 53644.7 2568.49  26
   1  -2 -15 48989.0 2533.05  23
  -1   2  14 8802.72 1069.17  26
   1  -2 -14 7503.21 1049.94  23
  -1   2  13 33042.4 2073.31  26
   1  -2 -13 32867.4 2187.86  23
  -1   2  12 57018.2 2609.92  26
  -1   2  12 56438.2 3190.45  17
  -1   2  11 2205.18 487.271  26
  -1   2  11 2687.45 544.920  27
  -1   2  11 2448.35 1119.03   7
  -1   2  11 1275.47 657.810  17
  -1   2  10 4199.36 1350.65   7
  -1   2   9 9760.66 1889.79   7
  -1   2   8 9098.69 1699.11   7
  -1   2   8 8118.90 1357.36   3
  -1   2   7 42675.4 3404.23   7
  -1   2   7 42019.5 3130.78   3
  -1   2   6 4499.40 1039.40   7
  -1   2   6 3565.73 932.071   3
  -1   2   5 61299.5 3376.58   7
  -1   2   5 56887.0 2371.53   1
  -1   2   4 226843. 5965.74   7
  -1   2   4 216003. 4676.08   1
  -1   2   4 224102. 7116.30   3
  -1   2   3 82018.9 3260.69   7
  -1   2   3 69849.3 3131.42   4
  -1   2   3 75215.4 2802.16   1
  -1   2   3 74915.0 3562.78   3
  -1   2   2 270.912 213.680   3
  -1   2   2 508.862 239.250   1
  -1   2   2 544.555 257.110   4
  -1   2   1 201791. 4902.85   1
  -1   2   1 199491. 4586.95   4
  -1   2   1 189324. 4338.60   3
  -1   2   0 18448.5 1448.53   4
  -1   2   0 18031.9 1241.18   3
  -1   2   0 19927.1 1580.39   2
  -1   2  -1 10027.3 1153.01   2
  -1   2  -2 133815. 4246.03   2
   1  -2   3 116590. 6331.65   7
   1  -2   4-149.485 431.635   7
   1  -2   5 3158.92 1246.96   7
   1  -2   6 1491.42 795.931   7
   1  -2   7 21294.3 3153.94   7
   1  -2   8 38711.9 4552.70   7
   1  -2   9 1443.38 989.049   7
  -1   2 -10 45731.4 2118.93  11
   1  -2  10 45902.4 2545.87  12
   1  -2  11 79593.8 3550.68  12
  -1   2 -11 74518.8 2838.79  11
   1  -2  11 70443.3 3329.77  27
  -1   2 -12 15898.9 1324.35  11
   1  -2  12 16748.2 1700.16  12
   1  -2  12 15007.7 1573.47  27
  -1   2 -13 37167.8 2088.02  11
   1  -2  13 34155.5 2397.09  27
  -1   2 -14 45706.0 2268.06  11
   1  -2  14 41811.1 2603.05  27
  -1   2 -15 32912.3 1881.59  11
   1  -2  15 31881.7 2169.70  27
  -1   2 -16 228.510 143.762  11
   1  -2  16 23.5599 91.5117  27
  -1   2 -17 1133.13 280.649  11
   1  -1 -18 9019.80 786.676  11
   1  -1 -17 206.118 125.751  11
  -1   1  17-79.7311 156.852  25
  -1   1  17 37.2497 65.8057  26
   1  -1 -16 13246.3 1209.96  11
  -1   1  16 11442.5 1120.13  26
  -1   1  16 9499.51 1067.20  25
   1  -1 -15 3749.21 771.784  11
  -1   1  15 4866.32 787.998  26
  -1   1  14 10384.7 1177.38  26
   1  -1 -14 10368.2 1180.67  23
  -1   1  13 24072.3 1784.22  26
  -1   1  13 24814.9 1870.31  27
  -1   1  12 8446.51 1238.23  17
  -1   1  12 10923.9 1196.32  27
  -1   1  12 10077.8 1123.98  26
  -1   1  11 90644.0 3970.77  17
  -1   1  11 101563. 7313.36   7
  -1   1  11 94259.7 3352.63  27
  -1   1  10 55775.3 5033.86   7
  -1   1   9 4189.08 1307.76   7
  -1   1   8 141962. 6876.29   7
  -1   1   7 195612. 5791.69   3
  -1   1   7 208107. 7616.48   7
  -1   1   6 77254.3 2926.82   1
  -1   1   6 81852.2 3667.03   3
  -1   1   6 84188.6 4397.41   7
  -1   1   5 77764.2 3498.46   3
  -1   1   5 71780.3 3651.81   7
  -1   1   4 43158.4 2449.39   3
  -1   1   4 41652.9 2453.15   7
  -1   1   3 4667.75 745.881   3
  -1   1   3 4389.44 632.308   1
  -1   1   3 4415.33 703.832   7
  -1   1   2 21150.1 1319.93   1
  -1   1   2 22775.3 1417.71   3
  -1   1   2 21899.5 1379.38   7
  -1   1   1 376.292 180.528   1
  -1   1   1 253.698 178.810   2
  -1   1   1 311.164 157.968   4
  -1   1   1 387.668 201.173   3
  -1   1   0 158857. 3352.53   4
  -1   1   0 175354. 3637.72   2
  -1   1  -1 216919. 4581.43   1
  -1   1  -1 234946. 4162.98   2
   1  -1   2 59508.9 3612.06   7
   1  -1   3 297.652 723.451   7
  -1   1  -4 267881. 4269.01   6
   1  -1   4 575284. 12138.0   7
   1  -1   5 144999. 6587.11   7
  -1   1  -5 51185.7 1910.91   6
   1  -1   6 445.311 389.908   7
   1  -1   7 71734.6 5440.73   7
   1  -1   8 76371.1 5948.11   7
   1  -1   9 484.106 577.637   7
   1  -1  10 7891.93 1012.26  27
   1  -1  10 6943.19 2112.63   7
  -1   1 -10 9359.52 961.355  11
   1  -1  11 762.682 326.527  27
   1  -1  11 1022.43 800.518   7
  -1   1 -11 734.236 273.953  11
   1  -1  11 749.513 366.527  12
   1  -1  12 7359.14 1070.70  27
  -1   1 -12 9370.79 1027.25  11
   1  -1  13 4302.13 834.985  27
  -1   1 -13 4525.10 732.559  11
   1  -1  14 3393.17 757.063  27
  -1   1 -14 3888.45 658.091  11
   1  -1  15 42448.1 2542.14  27
  -1   1 -15 45489.8 2259.06  11
  -1   1 -16 55378.1 2361.09  11
  -1   1 -17 2462.19 485.323  11
  -1   0  17 38023.4 1791.55  26
   1   0 -17 45463.6 1911.15  11
  -1   0  16 17081.2 1357.53  26
   1   0 -16 17681.5 1342.42  11
  -1   0  15 4694.90 786.123  26
   1   0 -15 4883.03 792.773  11
  -1   0  14 50336.3 2701.48  27
  -1   0  14 47038.0 2554.94  26
   1   0 -14 42122.8 2386.67  11
  -1   0  13 18491.5 1604.17  26
  -1   0  13 19575.3 1678.00  27
  -1   0  12 3737.22 721.064  27
  -1   0  11 6324.68 1030.10  17
  -1   0  11 7372.69 958.981  27
  -1   0  11 7795.23 2080.33   7
  -1   0  10-56.8759 351.142   7
  -1   0   9 2083.79 973.224   7
  -1   0   8 25846.7 3072.95   7
  -1   0   7 63914.4 3331.36   5
  -1   0   7 60502.8 4281.08   7
  -1   0   6 236900. 6093.14   5
  -1   0   6 223564. 4724.10   3
  -1   0   6 231637. 7608.45   7
  -1   0   5 171473. 4942.84   5
  -1   0   5 173459. 3997.98   3
  -1   0   5 171040. 5872.30   7
  -1   0   4 32675.9 2003.01   5
  -1   0   4 31776.4 1592.00   3
  -1   0   4 29586.9 2134.34   7
  -1   0   3 444830. 6765.08   5
  -1   0   3 451140. 5439.06   3
  -1   0   3 443116. 7089.02   7
  -1   0   2 97819.6 2268.14   3
  -1   0   2 97757.8 2830.84   5
  -1   0   2 96713.3 2680.76   7
  -1   0   1 25809.8 1286.47   5
  -1   0   1 26386.7 1126.29   7
  -1   0   0 14376.0 627.329   4
  -1   0  -1 47759.1 1181.87   2
  -1   0  -1 49332.0 1767.22   1
  -1   0  -1 48883.5 1603.21   6
  -1   0  -2 23174.3 1262.79   1
  -1   0  -2 23846.9 1205.87   6
  -1   0  -3 5944.55 714.536   6
   1   0   3 182674. 5389.33   7
  -1   0  -4 53782.4 2184.73   6
   1   0   4 59818.5 3498.76   7
   1   0   5 61806.2 4021.22   7
  -1   0  -5 65344.8 2606.12   6
  -1   0  -6 15353.3 1348.74   6
   1   0   6 32570.5 3142.31   7
   1   0   7 61390.5 4623.60   7
   1   0   8 78788.5 5598.36   7
   1   0   9 166305. 8652.05   7
   1   0  10 80117.2 6354.11   7
   1   0  11 1531.75 434.534  27
   1   0  11 1513.90 876.183   7
  -1   0 -11 1352.10 469.123  11
   1   0  12 39986.2 2417.97  27
  -1   0 -12 42180.8 2271.45  11
   1   0  13 54538.4 2930.54  27
  -1   0 -13 58920.5 2717.61  11
   1   0  14-123.835 276.175  27
  -1   0 -14-72.7912 177.856  11
   1   0  15 9200.69 1193.43  27
  -1   0 -15 10457.8 1089.84  11
  -1   0 -16 1626.85 427.341  11
  -1   0 -17 4126.75 656.427  11
   1   0  18 1988.57 401.515  25
  -1   0 -18 3674.56 517.491  11
  -1  -1  17 1171.74 307.236  26
   1   1 -17 1800.42 363.157  11
  -1  -1  16 13612.0 1220.41  26
   1   1 -16 14772.6 1172.46  11
  -1  -1  15 10441.7 1163.18  26
   1   1 -15 12439.4 1140.34  11
  -1  -1  14 1398.74 474.610  26
  -1  -1  14 1576.95 498.075  27
   1   1 -14 1700.74 436.884  11
  -1  -1  13 46009.3 2623.01  27
   1   1 -13 43846.4 2354.81  11
  -1  -1  12 86411.9 3528.64  27
  -1  -1  11 41522.0 2349.65  27
  -1  -1  11 40654.3 4832.29   7
  -1  -1  10 12701.9 2590.55   7
  -1  -1  10 15034.4 1468.84  12
  -1  -1   9 60217.0 5185.94   7
  -1  -1   8 72749.9 5313.64   7
  -1  -1   7 6655.94 1241.95   5
  -1  -1   7 5495.71 1374.74   7
  -1  -1   6 17501.7 2038.29   5
  -1  -1   6 16433.6 2115.82   7
  -1  -1   5 7537.48 1310.58   5
  -1  -1   5 6299.52 1229.62   7
  -1  -1   4 13562.0 2027.10   5
  -1  -1   4 17776.8 1807.65   7
  -1  -1   3 5949.25 912.887   7
  -1  -1   2 12021.9 1780.93   5
  -1  -1   2 16382.8 1243.60   7
  -1  -1   1 122634. 4486.67   5
  -1  -1   1 122473. 2382.41   7
  -1  -1   0 146131. 3656.70   5
  -1  -1   0 129742. 2624.63   6
  -1  -1  -1 12191.9 774.704   5
  -1  -1  -1 11864.5 902.266   6
   1   1   1 10890.7 644.630   7
  -1  -1  -2 275127. 3619.39   1
   1   1   2 260086. 4693.81   7
  -1  -1  -3 240230. 3098.64   1
   1   1   3 212595. 5129.97   7
   1   1   4 12524.6 1432.55   7
   1   1   5 133684. 5303.04   7
   1   1   6 14611.2 1888.72   7
   1   1   7 8260.56 1559.61   7
   1   1   8 254.103 430.411   7
   1   1   9 1939.60 920.016   7
   1   1  10 37088.3 4167.29   7
   1   1  11 18111.6 1515.22  27
   1   1  11 20442.2 3293.49   7
   1   1  12 19257.7 1646.09  27
  -1  -1 -12 16574.1 1559.62  11
   1   1  13 17510.7 1613.46  27
  -1  -1 -13 20523.6 1639.57  11
   1   1  14 48653.4 2756.98  27
  -1  -1 -14 49817.9 2565.15  11
  -1  -1 -15 28347.4 1868.81  11
  -1  -1 -16 3202.40 615.202  11
  -1  -1 -17 36087.0 1920.17  11
   1   1  18 17935.4 1246.14  25
  -1  -1 -18 27216.2 1458.52  11
  -1  -2  17 418.537 175.102  26
  -1  -2  16 7575.49 893.155  26
   1   2 -16 9428.30 851.633  11
  -1  -2  15 3740.20 701.252  27
  -1  -2  15 3674.85 685.568  26
   1   2 -15 5188.07 711.755  11
  -1  -2  14 2840.34 659.237  27
   1   2 -14 3411.99 598.215  11
  -1  -2  13 63.6924 108.502  27
   1   2 -13 99.6380 79.3005  11
  -1  -2  12 1465.97 494.314  27
   1   2 -12 1559.22 498.160  11
  -1  -2  11 30823.0 2303.08  12
  -1  -2  11 24708.8 1886.30  27
  -1  -2  11 29225.0 4263.26   7
  -1  -2  10 10955.4 1295.95  12
  -1  -2  10 7929.36 1035.14  27
  -1  -2  10 9633.47 2292.95   7
  -1  -2   9 1132.75 750.668   7
  -1  -2   8 61690.3 5195.53   7
  -1  -2   7 145064. 7158.29   5
  -1  -2   7 109610. 6533.08   7
  -1  -2   6 45684.6 3919.07   7
  -1  -2   5 42918.1 3559.37   7
  -1  -2   4 75017.3 4130.50   7
  -1  -2   3 162362. 5424.78   7
  -1  -2   2 173191. 4744.94   7
  -1  -2   1 5264.37 710.940   7
  -1  -2   1 4762.14 502.333   6
   1   2   0 7291.34 920.982   2
   1   2   1 25988.5 1358.35   2
   1   2   1 42777.8 1483.23   4
   1   2   2 54390.2 1857.40   4
   1   2   2 54694.8 1789.88   7
  -1  -2  -3 3297.68 330.915   5
   1   2   3 2681.01 515.909   7
   1   2   4 56357.7 2744.64   7
   1   2   5 87017.1 3891.97   7
   1   2   6 45119.6 3103.94   7
   1   2   7 65296.3 4137.25   7
   1   2   8 119786. 6134.21   7
   1   2   9 12368.3 2124.43   7
   1   2  10 41791.0 4245.53   7
   1   2  11 60489.7 5506.08   7
   1   2  11 59925.1 2695.05  27
   1   2  12 20079.6 3345.24   7
   1   2  12 20467.5 1664.92  27
   1   2  13 10462.7 1235.19  27
  -1  -2 -13 9093.64 1170.27  11
  -1  -2 -14 5595.93 870.485  11
  -1  -2 -15 2302.61 559.707  11
  -1  -2 -16 17376.6 1433.64  11
   1   2  17 172.551 110.600  25
  -1  -2 -17 283.872 156.015  11
   1   2  18 9951.34 961.864  25
  -1  -2 -18 13547.7 1038.24  11
  -1  -3  16 382.764 224.503  26
  -1  -3  15 3975.76 700.416  26
  -1  -3  15 4244.27 744.089  27
  -1  -3  14 55746.0 2859.93  27
   1   3 -14 64523.3 2478.25  11
  -1  -3  13 5812.39 967.769  27
  -1  -3  13 5487.12 811.483  15
   1   3 -13 6484.87 832.353  11
  -1  -3  12 799.613 330.844  27
   1   3 -12 1159.40 316.783  11
  -1  -3  11 27781.3 2078.49  27
  -1  -3  11 35014.6 2531.38  12
   1   3 -11 32451.8 1822.03  11
  -1  -3  10 15520.8 3085.21   7
  -1  -3  10 20925.8 1862.72  12
   1   3 -10 17278.2 1295.72  11
  -1  -3   9 3376.84 1333.25   7
  -1  -3   9 4493.25 820.552  12
  -1  -3   8 3145.87 1244.70   7
  -1  -3   7-96.1009 447.842   7
  -1  -3   6 69807.9 5106.08   7
  -1  -3   5 1777.78 815.005   7
  -1  -3   4 843.799 477.173   7
  -1  -3   3 93242.1 4569.60   7
  -1  -3   2 102789. 4494.08   7
   1   3  -2 121058. 2196.67   3
  -1  -3   1-85.2621 458.040   7
  -1  -3   1 8819.76 855.267   6
   1   3   0 1845.08 472.794   2
   1   3   1 107471. 3737.17   2
   1   3   1 122805. 3368.39   4
   1   3   2 373989. 6681.09   2
   1   3   2 354346. 5697.58   4
   1   3   3 3938.71 637.038   7
   1   3   3 3553.89 669.087   4
   1   3   3 4135.35 752.183   2
   1   3   4 67325.7 2905.65   7
   1   3   4 62200.6 2939.08   4
   1   3   5 5301.58 919.725   7
   1   3   6 344.640 258.569   7
   1   3   7 3309.76 875.032   7
   1   3   8 4262.81 1105.61   7
   1   3   9 35560.2 3495.51   7
   1   3  10 35159.7 3758.72   7
   1   3  11 29700.8 1867.61  27
   1   3  11 31852.2 3858.62   7
   1   3  12 60402.0 5723.22   7
  -1  -3 -12 54165.6 2761.42  23
  -1  -3 -13 66566.6 3056.15  23
  -1  -3 -14 967.201 461.125  11
  -1  -3 -14 648.427 279.764  23
  -1  -3 -15 8474.83 1120.41  11
   1   3  16 18663.8 1602.37  25
  -1  -3 -16 20785.2 1613.19  11
   1   3  17 20197.1 1557.64  25
  -1  -3 -17 22572.4 1543.73  11
   1   3  18-75.8912 144.021  25
  -1  -3 -18 173.869 80.1699  11
  -1  -4  16 469.219 222.774  26
  -1  -4  15 262.562 186.171  26
  -1  -4  15 177.966 166.503  27
  -1  -4  14 47.1976 84.5011  27
  -1  -4  14 43.5935 89.5726  15
  -1  -4  13 19470.7 1741.11  27
  -1  -4  12 7406.18 1109.30  27
  -1  -4  12 10578.1 1465.53  12
  -1  -4  11 1414.80 484.739  27
  -1  -4  11 2298.54 642.789  12
  -1  -4  10 57239.6 3207.77  12
  -1  -4   9 92775.5 3931.32  12
  -1  -4   9 67292.3 6411.48   7
  -1  -4   8 19337.5 3197.00   7
  -1  -4   7 2483.95 1086.57   7
  -1  -4   7 98.2838 406.221   5
  -1  -4   6 58552.8 5033.99   7
  -1  -4   5 9426.64 1896.33   7
  -1  -4   4 3695.03 1156.19   7
  -1  -4   3 2670.05 948.120   7
  -1  -4   2 373.928 170.540   6
  -1  -4   2-12.4346 128.163   7
   1   4  -2 185.223 69.2575   3
   1   4  -2 90.5007 145.379   2
   1   4  -1 45388.4 2945.71   2
   1   4  -1 38841.2 1993.75   3
   1   4   0 5050.08 1002.63   2
   1   4   1 43875.5 2461.38   4
   1   4   1 44412.9 2776.14   2
   1   4   2 209689. 5268.00   4
   1   4   2 218645. 6034.01   2
   1   4   3 151385. 4594.18   4
   1   4   3 169602. 5523.94   2
   1   4   4 5894.67 938.693   7
   1   4   4 4612.05 967.019   4
   1   4   5 146337. 4968.37   7
   1   4   5 137796. 5016.92   4
   1   4   6 135206. 5211.28   7
   1   4   6 119334. 5193.97   4
   1   4   7 2280.08 771.028   7
   1   4   7 2503.89 786.473   4
   1   4   8 1780.24 721.836   7
   1   4   8 1370.46 696.083   4
   1   4   9 40587.5 3696.08   7
   1   4   9 38541.3 3700.41   4
   1   4  10 5582.03 1480.83   7
   1   4  10 5970.65 1492.17   3
   1   4  10 5488.25 1475.35   4
   1   4  11 1171.90 796.481   7
  -1  -4 -11 1202.80 389.700  23
   1   4  11 1805.09 923.856   4
   1   4  12 3035.21 1247.35   7
  -1  -4 -12 2771.89 623.759  23
   1   4  12 1701.39 987.973   4
  -1  -4 -13 4549.51 809.020  23
   1   4  14 15502.5 1502.19  25
  -1  -4 -14 15691.0 1512.50  23
   1   4  15 3034.16 664.128  25
  -1  -4 -15 2902.63 610.674  23
  -1  -4 -15 3424.21 736.967  11
   1   4  16 11274.6 1245.36  25
  -1  -4 -16 10225.1 1120.03  23
  -1  -4 -16 12794.1 1267.15  11
  -1  -4 -17 24197.0 1606.08  11
   1   4  17 23711.3 1664.03  25
  -1  -4 -18 27949.1 1545.49  11
   1   4  18 24898.9 1515.82  25
  -1  -5  15 31227.2 1757.04  27
  -1  -5  15 29039.7 1656.95  26
  -1  -5  14 830.803 301.698  15
  -1  -5  14 640.481 309.667  27
  -1  -5  13 17057.7 1599.54  27
  -1  -5  12 10114.4 1426.41  12
  -1  -5  12 7328.66 1105.71  27
  -1  -5  11 6932.83 1172.72  12
  -1  -5  10 16339.5 1786.46  12
  -1  -5   9 18474.9 1843.90  12
   1   5  -8 38159.7 4507.72   2
  -1  -5   8 41885.1 2782.71  18
  -1  -5   8 45844.0 2778.90  12
  -1  -5   7 21473.5 3504.30   7
  -1  -5   6 9872.33 2215.26   7
  -1  -5   5 121126. 7454.36   7
   1   5  -5 153982. 7385.72   2
  -1  -5   4 49706.1 4480.08   7
   1   5  -4 55550.6 4226.21   2
  -1  -5   3 21301.7 2830.69   7
   1   5  -3 22734.9 2582.11   2
  -1  -5   2 19079.4 2877.60   7
   1   5  -2 35016.0 2969.74   2
   1   5  -1 200469. 6956.19   2
   1   5  -1 182771. 4611.47   3
   1   5   0 46822.7 3372.42   2
   1   5   0 48167.6 2655.16   3
   1   5   1 8435.68 1388.18   2
   1   5   2 97098.9 4185.82   4
   1   5   2 90407.8 4610.82   2
   1   5   3 467.828 325.848   2
   1   5   3 452.222 292.732   4
   1   5   4 5512.73 1024.13   4
   1   5   4 5917.40 1206.37   2
   1   5   5 3611.35 863.148   4
   1   5   6 12497.3 1794.37   7
   1   5   6 11846.7 1760.32   4
   1   5   7 46903.8 3433.26   7
   1   5   7 45250.8 3518.19   4
   1   5   8 51115.2 3872.51   7
   1   5   8 47758.5 3940.12   4
   1   5   9 186.420 157.153   7
   1   5   9 430.648 635.139   3
   1   5   9-26.4443 302.009   4
   1   5  10 142299. 7598.44   7
   1   5  10 144408. 7862.81   4
   1   5  10 137577. 7468.94   3
  -1  -5 -11 153010. 4706.11  23
   1   5  11 143926. 8155.48   7
   1   5  11 148305. 4205.64  25
   1   5  11 145532. 8382.72   4
  -1  -5 -12 14941.7 1521.63  23
   1   5  12 15981.4 1440.77  25
   1   5  12 14657.7 2786.06   4
  -1  -5 -13 35921.5 2369.56  23
   1   5  13 37185.9 2266.15  25
  -1  -5 -14 44133.9 2637.57  23
   1   5  14 46555.4 2591.02  25
   1   5  15 3363.69 688.797  25
  -1  -5 -15 2239.00 687.238  11
  -1  -5 -15 3485.81 703.370  23
   1   5  16 4527.16 760.063  25
  -1  -5 -16 4571.53 759.112  11
  -1  -5 -16 4055.83 715.742  23
   1   5  17 1590.68 409.266  25
  -1  -5 -17 1876.64 458.333  11
  -1  -5 -17 1359.87 383.650  23
   1   5  18 271.683 157.927  25
  -1  -5 -18 223.370 182.535  11
  -1  -6  14 19971.5 1492.62  27
  -1  -6  14 20987.2 1358.96  15
  -1  -6  13 5602.12 875.792  27
  -1  -6  12 7361.85 1072.54  27
  -1  -6  12 8412.84 1318.30  12
  -1  -6  11 54975.5 3351.02  12
  -1  -6  10 58777.2 3470.41  12
  -1  -6   9 2812.33 742.327  12
  -1  -6   8 35477.5 2728.42  18
  -1  -6   8 41950.7 2835.27  12
  -1  -6   7 67183.9 3454.87  18
   1   6  -7 58985.1 5562.11   2
  -1  -6   7 62928.3 3376.66  12
   1   6  -6 12624.7 2513.80   2
  -1  -6   5 3167.90 1227.62   7
   1   6  -5 3991.29 1351.01   2
  -1  -6   4 5344.58 1580.32   7
   1   6  -4 7061.85 1624.08   2
  -1  -6   3 17955.8 2796.90   7
   1   6  -3 18166.0 2481.02   2
  -1  -6   2 42221.1 4518.07   7
   1   6  -2 64688.7 4625.59   2
   1   6  -1 47414.2 3827.25   2
   1   6  -1 47713.6 2480.96   3
   1   6   0 203765. 7742.04   2
   1   6   0 187751. 5565.73   3
   1   6   1 293441. 9120.03   2
   1   6   1 306810. 7740.67   3
   1   6   2 44422.5 3560.93   2
   1   6   2 42891.2 3133.45   4
   1   6   2 42101.5 3204.51   3
   1   6   3 48727.7 3725.09   2
   1   6   3 44603.1 3214.11   4
   1   6   4 337906. 8900.13   4
   1   6   4 348858. 10394.1   2
   1   6   5 191769. 6913.02   4
   1   6   6 19124.7 2297.40   4
   1   6   7 23963.4 3397.50   3
   1   6   7 71004.0 4644.52   4
   1   6   8 4503.78 1352.60   3
   1   6   8 5162.61 1356.07   4
   1   6   9 737.533 536.812   4
   1   6   9 446.928 449.008   3
  -1  -6 -10 8987.64 1150.67  23
   1   6  10 8453.08 1853.22   7
   1   6  10 9585.10 1015.04  25
   1   6  10 7896.53 1889.84   3
   1   6  10 7700.98 1857.10   4
  -1  -6 -11 18623.6 1683.89  23
   1   6  11 14999.4 2611.28   7
   1   6  11 17366.8 2960.66   4
   1   6  11 17472.9 1448.14  25
   1   6  12 59956.4 2778.85  25
  -1  -6 -12 58394.1 3117.15  23
   1   6  13 20191.8 1656.42  25
  -1  -6 -13 18936.5 1785.74  23
   1   6  14 221.034 175.643  25
  -1  -6 -14 248.875 225.625  23
   1   6  15 46435.6 2539.03  25
  -1  -6 -15 38157.1 2423.45  11
  -1  -6 -15 45986.2 2647.28  23
   1   6  16 32426.7 2035.81  25
  -1  -6 -16 34107.6 2054.02  11
  -1  -6 -16 32419.7 2102.53  23
   1   6  17 9393.55 1012.69  25
  -1  -6 -17 9310.25 975.992  11
  -1  -6 -17 8200.51 954.540  23
   1   6  18 16967.2 1215.70  25
  -1  -6 -18 17447.1 1168.01  11
  -1  -6 -18 14806.7 1100.32  23
  -1  -7  14 12534.6 1056.28  27
  -1  -7  14 13120.7 975.122  15
  -1  -7  13 4822.40 759.239  27
  -1  -7  13 5197.91 730.397  15
  -1  -7  12 535.156 361.153  12
  -1  -7  12 362.378 174.651  27
  -1  -7  11 283.789 209.307  12
  -1  -7  10 410.081 309.414  12
  -1  -7   9 19380.9 2028.16  12
  -1  -7   8 15004.1 1812.02  18
  -1  -7   8 16321.3 1843.32  12
  -1  -7   7 11442.5 1504.69  18
  -1  -7   7 10538.6 1464.69  12
  -1  -7   6 125357. 4842.00  18
   1   7  -6 117186. 8031.33   2
  -1  -7   6 125333. 4853.31  12
  -1  -7   5 150160. 5030.81  18
   1   7  -5 144052. 8494.74   2
  -1  -7   5 155937. 5300.10  12
   1   7  -4 265.423 360.451   2
   1   7  -3 149959. 8044.24   2
   1   7  -2 106760. 6586.80   2
  -1  -7   1 215.500 485.080   7
   1   7  -1 13798.8 2290.79   2
   1   7   0 18067.3 2573.19   2
   1   7   0 22036.4 1983.61   3
   1   7   1 262.145 537.134   2
   1   7   1 62.1136 159.805   3
   1   7   2 4461.70 1205.19   2
   1   7   2 3544.60 996.598   3
   1   7   3 45366.4 3986.14   2
   1   7   3 44523.2 3566.82   4
   1   7   3 45466.6 3516.71   3
   1   7   4 1159.62 636.839   4
   1   7   4 1097.96 618.570   2
   1   7   4 1421.51 764.739   3
   1   7   5 62177.5 4309.23   4
   1   7   5 62482.2 4909.61   2
   1   7   5 64651.0 4679.99   3
   1   7   6 119175. 6135.46   4
   1   7   6 121452. 6745.22   3
   1   7   7 21987.2 2740.38   4
   1   7   7 22531.5 3018.84   3
   1   7   8 57827.8 4988.34   3
   1   7   8 55515.4 4600.65   4
  -1  -7  -9 97414.1 3726.70  23
   1   7   9 98969.3 3228.72  25
   1   7   9 105064. 6638.03   4
   1   7   9 99581.7 6760.33   3
  -1  -7 -10 61285.7 3107.40  23
   1   7  10 57106.2 2486.25  29
   1   7  10 60694.5 2662.27  25
   1   7  10 59771.0 5363.49   4
  -1  -7 -11 1111.75 425.639  23
   1   7  11 947.289 320.205  25
   1   7  11 461.146 481.911   3
   1   7  11 1700.38 925.537   4
  -1  -7 -12 57585.5 3099.33  23
   1   7  12 51860.6 2629.39  25
  -1  -7 -13 23520.0 2015.48  23
   1   7  13 22597.0 1767.47  25
  -1  -7 -14 1897.30 600.051  23
   1   7  14 1945.38 514.975  25
  -1  -7 -15 13323.9 1448.97  23
   1   7  15 14331.8 1384.58  25
  -1  -7 -15 11608.2 1257.05  11
  -1  -7 -16 5408.66 854.971  23
   1   7  16 5568.77 820.236  25
  -1  -7 -16 5167.34 787.655  11
  -1  -7 -17 9257.08 1013.06  23
   1   7  17 9536.90 999.170  25
  -1  -7 -17 9121.28 935.011  11
  -1  -7 -18 6168.93 715.321  23
  -1  -7 -18 7018.74 698.446  11
   1   7  18 6414.24 720.281  25
  -1  -8  13 14929.4 1196.59  27
  -1  -8  13 16153.2 1163.43  15
  -1  -8  12 53044.1 2594.67  27
  -1  -8  12 32350.9 2263.03  12
  -1  -8  11 8380.08 1256.20  12
  -1  -8  10 550.996 302.243  12
  -1  -8   9 40489.4 2968.23  12
  -1  -8   8 1510.59 545.601  12
  -1  -8   8 1432.98 562.098  18
  -1  -8   7 453.384 366.162  12
  -1  -8   7 457.218 318.740  18
  -1  -8   6 87.6580 199.262  12
  -1  -8   6 103.568 210.162  18
  -1  -8   5 15034.7 1768.52  12
   1   8  -5 14271.2 2861.13   2
  -1  -8   5 14052.2 1684.90  18
  -1  -8   4 34309.2 2636.41  12
  -1  -8   4 32289.7 2432.83  18
   1   8  -4 35070.8 4433.36   2
  -1  -8   3 3814.77 787.516  18
   1   8  -3 4121.49 1509.86   2
   1   8  -2 14131.2 2646.28   2
   1   8  -1 117775. 7347.98   2
   1   8   0 62460.2 5251.80   2
   1   8   1 2640.81 768.798   3
   1   8   1 2337.33 1018.03   2
   1   8   2 83728.0 5890.91   2
   1   8   2 64456.8 4319.93   3
   1   8   3 72626.5 5529.59   2
   1   8   3 47756.9 4134.21   3
   1   8   4 637.025 506.017   2
   1   8   4 1147.18 556.869   4
   1   8   4 717.942 568.796   3
   1   8   5 43541.1 3916.91   4
   1   8   5 42655.0 4459.72   2
   1   8   5 40680.8 3948.30   3
   1   8   6 23406.7 2987.64   4
   1   8   6 24362.0 3217.34   3
   1   8   7 508.174 693.584   3
   1   8   7 817.734 494.105   4
  -1  -8  -8 38695.0 2605.60  19
   1   8   8 32114.0 1874.01  25
   1   8   8 34011.6 1956.00  29
   1   8   8 36402.1 3935.14   4
  -1  -8  -8 32530.5 2114.14  23
   1   8   9 287.398 103.319  25
  -1  -8  -9 547.432 347.767  23
  -1  -8  -9 237.520 206.788  19
   1   8   9 593.033 519.521   4
   1   8   9 601.256 550.876   3
  -1  -8 -10 20202.5 1797.28  23
   1   8  10 19644.6 1572.61  25
   1   8  10 19221.4 3149.32   4
  -1  -8 -10 21451.5 2021.30  19
  -1  -8 -11 29226.8 2613.38  19
   1   8  11 33691.2 2098.16  25
  -1  -8 -11 36526.7 2484.93  23
  -1  -8 -12 23932.2 2225.27  19
   1   8  12 28190.1 1959.02  25
  -1  -8 -12 30767.7 2298.61  23
  -1  -8 -13 20094.3 2083.43  19
   1   8  13 25560.5 1883.47  25
  -1  -8 -13 25425.3 2123.25  23
  -1  -8 -14 30180.0 2360.21  19
  -1  -8 -14 38152.2 2543.07  23
   1   8  14 36993.0 2245.92  25
  -1  -8 -15 28380.5 2128.98  23
   1   8  15 26635.6 1866.76  25
  -1  -8 -16 2162.06 536.682  23
   1   8  16 1702.32 465.918  25
  -1  -8 -17 15598.8 1327.55  23
   1   8  17 14827.9 1212.71  25
  -1  -8 -18 10062.5 909.515  23
  -1  -9  12 2105.17 460.509  27
  -1  -9  11 27919.6 1920.23  27
  -1  -9  11 31047.8 2256.30  12
  -1  -9  10 11857.9 1482.70  12
  -1  -9   9 2015.68 642.218  12
  -1  -9   8 27331.4 2437.59  12
  -1  -9   8 24401.2 2405.17  18
  -1  -9   7 66689.6 3864.50  12
  -1  -9   7 66918.0 3906.07  18
  -1  -9   6 32289.9 2690.01  12
  -1  -9   6 30316.5 2599.50  18
  -1  -9   5 4070.08 978.410  12
  -1  -9   5 3470.13 805.562  18
  -1  -9   4 75811.8 4073.28  12
  -1  -9   4 71253.2 3807.39  18
   1   9  -3 4349.16 1608.35   2
  -1  -9   3 4109.48 881.408  18
   1   9  -2-214.548 367.348   2
  -1  -9   2 53.4667 160.939  18
   1   9  -1 2930.60 515.360  20
   1   9  -1 3104.17 1289.94   2
  -1  -9   1 1228.76 731.884  18
   1   9   0 327.804 421.937   2
   1   9   0 137.287 135.823  20
   1   9   1 14011.4 3050.35   2
   1   9   2-95.7078 182.327   3
   1   9   2 147.945 284.586   2
   1   9   3 8880.93 2094.65   2
   1   9   3 9134.11 1692.56   3
   1   9   4 105810. 7353.15   2
   1   9   4 98254.6 5982.12   3
   1   9   5 36934.9 3966.41   4
   1   9   5 26376.6 3226.31   3
   1   9   5 41246.7 4655.63   2
  -1  -9  -6 2127.40 604.838  19
   1   9   6 1497.99 791.814   3
   1   9   6 2252.10 989.829   4
  -1  -9  -7 92120.9 4125.70  19
  -1  -9  -7 80715.8 3319.32  23
   1   9   7 85275.8 6178.25   4
  -1  -9  -8 34869.3 2586.14  19
   1   9   8 28071.1 3690.27   4
  -1  -9  -8 28103.8 2045.70  23
  -1  -9  -9 324.546 207.810  23
  -1  -9  -9 742.286 409.586  19
   1   9   9 254.984 353.739   4
  -1  -9 -10 10925.0 1361.42  23
   1   9  10 10410.9 1192.38  25
  -1  -9 -10 12243.2 1586.16  19
  -1  -9 -11 28816.6 2238.93  23
   1   9  11 26374.2 1913.80  25
  -1  -9 -12-50.6324 167.693  23
  -1  -9 -12 245.125 297.797  19
   1   9  12-22.2651 86.1104  25
  -1  -9 -13 14785.7 1629.67  23
   1   9  13 13712.0 1400.98  25
  -1  -9 -13 14962.1 1738.45  19
  -1  -9 -14 1000.70 414.426  23
   1   9  14 683.164 296.731  25
  -1  -9 -14 50.8127 156.031  19
  -1  -9 -15 10175.5 1253.93  23
   1   9  15 8271.99 1080.59  25
  -1  -9 -16 12006.7 1242.87  23
  -1  -9 -17 3129.17 569.000  23
  -1 -10  11 2513.30 498.986  27
  -1 -10  11 2977.15 626.084  12
  -1 -10  10 2447.79 644.080  12
  -1 -10   9-2.18660 119.705  12
  -1 -10   8 479.465 414.817  12
  -1 -10   7 2493.90 839.296  18
  -1 -10   7 3050.47 850.863  12
  -1 -10   6 42804.0 3134.05  18
  -1 -10   6 39904.3 3021.65  12
  -1 -10   5 6748.57 1327.00  18
  -1 -10   5 8442.09 1377.84  12
  -1 -10   4 1831.22 698.543  18
  -1 -10   4 2281.50 716.529  12
  -1 -10   3 51738.3 3345.15  18
  -1 -10   3 35978.9 3012.57  12
  -1 -10   2 29367.4 2477.25  18
  -1 -10   1 11182.2 1609.16  18
  -1 -10   1 12707.2 1585.98  19
  -1 -10   0 12553.5 1646.33  18
   1  10   0 16329.1 3154.00   2
  -1 -10   0 15927.1 1719.12  19
   1  10   0 15073.8 1217.83  20
   1  10   1 82583.0 7170.44   2
   1  10   1 86419.4 2866.29  20
  -1 -10  -1 99662.6 4248.71  19
   1  10   2 35212.8 4510.20   2
  -1 -10  -2 34510.1 2440.10  19
   1  10   2 34275.6 1799.64  20
  -1 -10  -3 995.808 541.400  19
   1  10   3 2014.05 815.922   3
   1  10   3 1768.80 1017.44   2
   1  10   3 1853.51 414.167  20
   1  10   4 7527.65 2115.89   2
   1  10   4 9788.53 1870.97   3
   1  10   4 9460.97 935.231  20
  -1 -10  -4 9222.60 1362.27  19
  -1 -10  -5 1992.59 647.581  19
   1  10   5 1126.98 729.186   3
   1  10   5 2476.95 1296.98   2
   1  10   5 1657.18 406.261  20
  -1 -10  -6 2725.59 630.340  23
  -1 -10  -6 3466.78 898.096  19
   1  10   6 3101.06 1200.72   3
   1  10   6 3015.51 520.854  20
  -1 -10  -7 408.007 269.796  23
  -1 -10  -7 353.185 309.183  19
  -1 -10  -8 3263.71 737.406  23
  -1 -10  -8 3781.72 885.935  19
  -1 -10  -9 40326.2 2584.56  23
  -1 -10  -9 48018.5 3199.82  19
  -1 -10 -10 9503.10 1277.90  23
  -1 -10 -10 10606.2 1573.32  19
  -1 -10 -11 6426.07 1081.81  23
  -1 -10 -11 7528.60 1274.67  19
  -1 -10 -12 73440.9 3588.42  23
  -1 -10 -12 76598.3 4081.09  19
  -1 -10 -13 29801.2 2240.45  23
  -1 -10 -13 30165.3 2419.50  19
  -1 -10 -14 1675.28 532.540  23
  -1 -10 -14 1191.79 603.603  19
  -1 -10 -15 7402.05 1028.16  23
  -1 -10 -15 4414.93 852.299  19
  -1 -10 -16 6254.60 873.347  23
  -1 -10 -17 456.611 230.669  23
  -1 -11  10 3709.95 596.023  27
  -1 -11  10 4163.42 724.851  12
  -1 -11   9 24138.0 1894.59  12
  -1 -11   8 9589.14 1301.85  12
  -1 -11   7 465.093 300.286  12
  -1 -11   7 156.510 358.580  18
  -1 -11   6 5651.46 1106.54  12
  -1 -11   6 6294.76 1188.30  18
  -1 -11   5 1792.56 607.765  12
  -1 -11   5 1188.36 576.439  18
  -1 -11   4 4476.45 1029.80  12
  -1 -11   4 3467.77 965.301  18
  -1 -11   3 951.559 534.118  12
  -1 -11   3 425.961 356.698  18
  -1 -11   2 2839.39 1630.71  12
  -1 -11   2 18187.4 2024.12  18
  -1 -11   1 20248.8 2138.17  18
  -1 -11   0 8789.95 1357.50  19
  -1 -11   0 8318.03 1398.16  18
   1  11   1 369.717 175.476  20
  -1 -11  -1 172.669 195.613  19
  -1 -11  -2 77075.0 3905.65  19
   1  11   2 68731.1 2647.49  20
  -1 -11  -3 28764.2 2409.91  19
   1  11   3 25960.9 1637.19  20
   1  11   4 493.140 249.363  20
  -1 -11  -4 891.261 439.263  19
   1  11   5 23244.0 1516.65  20
  -1 -11  -5 23437.9 2235.96  19
  -1 -11  -6 27236.7 2422.54  19
   1  11   6 25745.2 1588.54  20
  -1 -11  -7 149.904 137.694  23
  -1 -11  -7 588.541 394.232  19
  -1 -11  -8 2001.69 586.420  23
  -1 -11  -8 2285.85 747.492  19
  -1 -11  -9 9396.54 1269.45  23
  -1 -11  -9 11641.9 1628.26  19
  -1 -11 -10 338.067 229.198  23
  -1 -11 -10 293.745 317.355  19
  -1 -11 -11 4147.03 833.771  23
  -1 -11 -11 4303.70 986.735  19
  -1 -11 -12 745.010 294.260  23
  -1 -11 -12 533.571 373.653  19
  -1 -11 -13 22543.0 1893.20  23
  -1 -11 -13 21957.0 2041.87  19
  -1 -11 -14 23939.4 1866.41  23
  -1 -11 -14 21182.0 1838.09  19
  -1 -11 -15 1247.72 395.853  23
  -1 -11 -15 1163.35 383.995  19
  -1 -11 -16 3572.73 635.028  23
  -1 -12   8 20804.2 1680.34  12
  -1 -12   7 19038.0 1778.26  12
  -1 -12   6 552.148 332.913  12
  -1 -12   6 499.088 400.365  18
  -1 -12   5 29775.9 2487.22  12
  -1 -12   5 29575.9 2485.87  18
  -1 -12   4 40756.3 3028.07  12
  -1 -12   4 36368.6 2932.09  18
  -1 -12   3 4028.30 992.452  12
  -1 -12   3 3767.27 931.583  18
  -1 -12   2 5261.80 1150.24  12
  -1 -12   2 4744.51 1126.32  18
  -1 -12   1 2909.45 1112.77  12
  -1 -12   1 13238.1 1773.95  18
  -1 -12   0 12540.7 1744.69  18
  -1 -12  -1 6075.95 1176.54  19
  -1 -12  -1 6197.33 1313.24  18
  -1 -12  -2 13007.5 1649.09  19
  -1 -12  -3 7736.32 1384.14  19
   1  12   3 7578.58 900.731  20
  -1 -12  -4 6121.06 1320.08  19
   1  12   4 8928.66 973.665  20
   1  12   5 1472.08 388.099  20
  -1 -12  -5 1129.49 583.684  19
  -1 -12  -6 15241.0 1833.31  19
   1  12   6 14941.5 1216.12  20
  -1 -12  -7 45404.4 3172.32  19
  -1 -12  -8 20302.8 2118.33  19
  -1 -12  -9 360.014 246.227  23
  -1 -12  -9 184.793 192.107  19
  -1 -12 -10 35754.9 2377.43  23
  -1 -12 -10 42834.7 3027.61  19
  -1 -12 -11 31298.9 2221.09  23
  -1 -12 -11 59418.4 3463.56  19
  -1 -12 -12 7084.95 1057.66  23
  -1 -12 -12 7421.49 1196.28  19
  -1 -12 -13 2079.48 539.223  23
  -1 -12 -13 2448.20 647.508  19
  -1 -12 -14 6956.68 913.290  23
  -1 -12 -14 7053.81 986.874  19
  -1 -12 -15 382.527 160.758  23
  -1 -12 -15 299.646 190.466  19
  -1 -13   7 10336.4 1096.28  12
  -1 -13   6-171.370 225.213  12
  -1 -13   5 475.931 385.045  12
  -1 -13   5 677.049 426.624  18
  -1 -13   4 772.164 372.267  12
  -1 -13   4 1222.70 472.419  18
  -1 -13   3 17076.5 1891.18  12
  -1 -13   3 16282.6 1862.53  18
  -1 -13   2 16704.3 1918.77  12
  -1 -13   2 15410.8 1796.69  18
  -1 -13   1 2947.08 831.374  12
  -1 -13   1 2748.53 748.013  18
  -1 -13   0 1603.95 1881.91  12
  -1 -13   0 49939.4 3360.83  18
  -1 -13  -1 51228.8 3339.25  19
  -1 -13  -1 55290.9 3617.98  18
  -1 -13  -2 2429.12 731.449  19
  -1 -13  -2 2528.40 779.906  18
  -1 -13  -3 13362.4 1698.11  19
  -1 -13  -3 14044.9 1855.41  18
  -1 -13  -4 28724.5 2475.77  19
  -1 -13  -5 16023.4 1894.65  19
   1  13   6 551.413 260.025  20
  -1 -13  -6 384.491 303.307  19
  -1 -13  -7 3995.43 1021.16  19
  -1 -13  -8 697.270 413.525  19
  -1 -13  -9 10101.4 1513.49  19
  -1 -13 -10 2458.41 581.705  23
  -1 -13 -10 2540.55 736.523  19
  -1 -13 -11 6199.50 897.739  23
  -1 -13 -11 5884.82 1092.72  19
  -1 -13 -12 32027.4 1970.81  23
  -1 -13 -12 35070.2 2420.38  19
  -1 -13 -13 10259.7 1057.72  23
  -1 -13 -13 10318.8 1224.90  19
  -1 -13 -14 682.222 252.859  23
  -1 -13 -14 734.206 295.312  19
  -1 -14   5 19274.0 1499.59  12
  -1 -14   4 291.069 214.239  12
  -1 -14   4 159.961 208.658  18
  -1 -14   3 15880.2 1573.32  12
  -1 -14   3 16352.6 1643.82  18
  -1 -14   2 19395.1 1860.93  12
  -1 -14   2 18174.0 1865.60  18
  -1 -14   1 84.5738 106.636  12
  -1 -14   1 170.800 276.580  18
  -1 -14   0 1106.06 442.023  12
  -1 -14   0 649.562 326.095  18
  -1 -14  -1 783.336 504.720  12
  -1 -14  -1 999.834 593.230  18
  -1 -14  -2 11504.2 1500.16  19
  -1 -14  -2 13135.6 1661.85  18
  -1 -14  -3 15552.6 1789.16  19
  -1 -14  -3 17283.2 1945.58  18
  -1 -14  -4 7394.72 1253.60  19
  -1 -14  -4 8331.31 1366.14  18
  -1 -14  -5 38596.7 2799.25  19
  -1 -14  -6 58170.4 3409.94  19
  -1 -14  -7 4733.44 1058.26  19
  -1 -14  -8 18877.8 1941.40  19
  -1 -14  -9 42891.7 2850.64  19
  -1 -14 -10 4960.61 981.592  19
  -1 -14 -11 3058.92 737.675  19
  -1 -14 -12 8238.44 1089.95  19
  -1 -14 -13 179.824 177.293  19
  -1 -15   2 4775.23 764.852  12
  -1 -15   2 5372.19 833.911  18
  -1 -15   1 41048.9 2341.81  12
  -1 -15   1 41086.4 2450.06  18
  -1 -15   0 19883.8 1716.39  12
  -1 -15   0 18624.3 1710.19  18
  -1 -15  -1 56.0410 138.413  12
  -1 -15  -1 240.402 220.902  18
  -1 -15  -2 21624.1 1891.14  12
  -1 -15  -2 20019.1 1848.31  18
  -1 -15  -3 15534.9 1695.56  12
  -1 -15  -3 18389.2 1808.72  18
  -1 -15  -4 567.487 332.485  18
  -1 -15  -4 565.385 282.125  19
  -1 -15  -5 5334.47 1080.60  19
  -1 -15  -5 5263.26 1003.30  18
  -1 -15  -6 666.852 447.296  19
  -1 -15  -6 505.898 337.346  18
  -1 -15  -7 11064.5 1363.12  19
  -1 -15  -7 11750.3 1468.81  18
  -1 -15  -8 9643.02 1236.30  19
  -1 -15  -9-228.004 245.666  19
  -1 -15 -10 18636.8 1589.27  19
  -1 -15 -11 31897.9 1957.37  19
  -1 -16  -2 1654.96 438.580  18
  -1 -16  -3 6831.59 949.148  18
  -1 -16  -4 24731.4 1800.06  18
  -1 -16  -5 12498.4 1287.73  18
  -1 -16  -6 29.8454 110.055  18
  -1 -16  -7 18430.3 1533.82  18
  -1 -16  -8 16952.3 1438.57  18
   2 -15  -2 397.676 376.747  12
   2 -15  -1 14323.6 1381.06  12
   2 -14 -10 1811.52 435.691  19
  -2  14   9 166.226 111.283  20
   2 -14  -9 82.1429 130.035  19
  -2  14   8 9446.28 751.767  20
   2 -14  -8 6534.93 931.683  19
  -2  14   7 14445.9 981.514  20
  -2  14   6 93.5358 82.5222  20
   2 -14  -6-247.500 300.911  18
  -2  14   5 24962.8 1345.46  20
   2 -14  -5 20113.1 1787.06  18
  -2  14   4 35650.3 1630.40  20
   2 -14  -4 33551.0 2223.87  18
  -2  14   3 9297.40 830.487  20
   2 -14  -3 8274.34 1089.02  18
   2 -14   0 2831.97 810.043  12
   2 -14   1-58.6807 156.537  12
   2 -14   2 136.859 205.862  12
   2 -14   3-33.4901 154.945  12
   2 -13 -12 6237.26 873.609  19
   2 -13 -11 14712.9 1369.57  19
   2 -13 -10 11781.4 1285.11  19
  -2  13   9 53.7483 64.8000  20
   2 -13  -9 47.8925 157.826  19
   2 -13  -8 5066.44 910.268  19
  -2  13   8 5044.07 633.673  20
  -2  13   7 1311.60 337.905  20
   2 -13  -7 1471.35 489.042  19
  -2  13   6 1405.55 345.699  20
   2 -13  -6 1432.35 493.002  19
  -2  13   5 1782.13 406.637  20
  -2  13   4 13236.2 1119.28  20
   2 -13  -4 7891.75 1431.83  18
  -2  13   3 7651.02 844.544  20
   2 -13  -3 5824.07 1044.60  18
  -2  13   2 5475.45 709.232  20
   2 -13  -2 5796.28 1003.72  18
  -2  13   1 5306.03 685.972  20
   2 -13  -1 5817.91 999.148  18
   2 -13   0 12669.1 1415.10  18
   2 -13   1 9404.29 1835.75  12
   2 -13   2 9150.67 1358.61  12
   2 -13   3 11205.1 1416.02  12
   2 -13   4 18569.6 1693.61  12
  -2  13  -4 17188.0 1117.08  21
   2 -13   5 12930.9 1301.51  12
  -2  13  -5 12826.3 908.743  21
   2 -12 -14 266.213 173.339  19
   2 -12 -13 1136.80 423.637  19
   2 -12 -12 2379.40 593.436  19
   2 -12 -11 3868.20 835.198  19
  -2  12  10 21422.0 1287.93  20
   2 -12 -10 25853.4 2135.79  19
  -2  12   9 25754.1 1505.83  20
   2 -12  -9 30596.9 2352.56  19
  -2  12   8 103.572 129.547  20
   2 -12  -8 172.309 251.506  19
  -2  12   7 21551.3 1464.93  20
   2 -12  -7 22597.7 2035.22  19
  -2  12   6 22531.5 1522.33  20
   2 -12  -6 20751.0 1925.07  19
  -2  12   5 7989.92 932.644  20
   2 -12  -5 7071.84 1123.95  19
  -2  12   4 6040.23 799.498  20
  -2  12   3 10879.8 1081.64  20
  -2  12   2 14982.8 1244.75  20
   2 -12  -2 13693.3 1670.98  18
  -2  12   1-17.3051 148.021  20
   2 -12  -1-27.7996 150.484  18
  -2  12   0 5974.24 762.262  20
   2 -12   0 4906.81 977.470  18
   2 -12   1 472.257 322.847  18
   2 -12   2-38.8526 293.570  12
   2 -12   2 3193.24 764.640  18
   2 -12   3 2443.32 764.723  12
   2 -12   4 9454.00 1394.41  12
   2 -12   5 29467.4 2307.07  12
   2 -12   6 28375.3 2084.67  12
   2 -12   7-82.3016 114.906  12
  -2  12  -7 53.9813 79.8108  21
   2 -11 -15 1283.16 374.990  19
   2 -11 -14 446.054 264.181  19
   2 -11 -14 1308.98 350.504  23
   2 -11 -13 42214.3 2129.62  23
   2 -11 -13 29921.6 2188.47  19
   2 -11 -12 28798.3 2216.26  19
   2 -11 -11-136.938 151.849  19
  -2  11  10 4405.13 719.894  29
   2 -11 -10 4252.03 1004.32  19
  -2  11  10 4159.70 619.705  20
   2 -11  -9 2591.78 705.404  19
  -2  11   9 2652.22 577.131  29
  -2  11   9 2409.68 493.665  20
   2 -11  -8-81.7166 248.512  19
  -2  11   8 91.9021 81.7746  29
  -2  11   8 200.013 224.270  20
   2 -11  -7 3678.48 855.995  19
  -2  11   7 3742.45 651.204  29
  -2  11   7 3189.25 608.677  20
   2 -11  -6 748.831 392.065  19
  -2  11   6 709.274 288.157  29
  -2  11   6 631.780 313.361  20
   2 -11  -5 12067.4 1493.70  19
  -2  11   5 12724.3 1180.77  20
  -2  11   4 13366.9 1214.58  20
  -2  11   3 256.808 207.503  20
  -2  11   2 51963.4 2366.66  20
  -2  11   1 67821.8 2702.03  20
   2 -11  -1 65375.2 3633.67  18
  -2  11   0 12199.9 1144.25  20
   2 -11   0 11485.4 1507.24  18
  -2  11  -1 13498.9 1165.60  20
   2 -11   1 13554.5 1640.78  18
  -2  11  -2 10337.9 996.284  20
   2 -11   2 9621.18 1403.59  18
   2 -11   3 152.254 618.372  12
   2 -11   3 2459.35 722.767  18
   2 -11   4 5629.38 1155.10  12
   2 -11   5 726.234 473.187  12
   2 -11   6 763.500 414.815  12
   2 -11   7 9071.34 1226.06  12
  -2  11  -8 1424.36 324.403  21
   2 -11   8 1231.07 411.975  12
  -2  11  -9 7880.80 698.708  21
   2 -11   9 8023.38 926.553  12
   2 -10 -16 1074.69 293.338  23
   2 -10 -15 1188.71 388.757  19
   2 -10 -15 4989.56 713.004  23
   2 -10 -14 2822.50 678.721  19
   2 -10 -14 6158.44 841.764  23
   2 -10 -13 106.925 346.556  19
   2 -10 -13 750.978 301.485  23
   2 -10 -12 32528.3 2126.32  23
  -2  10  12 32072.3 1879.98  29
   2 -10 -12 30815.0 2461.58  19
   2 -10 -11 64753.7 3008.11  23
  -2  10  11 63440.8 2746.03  29
   2 -10 -11 70046.8 3791.73  19
  -2  10  10 15597.8 1384.96  29
   2 -10 -10 14471.7 1769.80  19
  -2  10  10 14833.1 1209.44  20
  -2  10   9 10742.7 1179.33  29
  -2  10   9 10367.2 1037.63  20
   2 -10  -9 12503.7 1632.25  19
  -2  10   8 121149. 3908.09  29
  -2  10   8 109878. 3464.04  20
  -2  10   7 21995.5 1645.59  29
   2 -10  -7 22529.2 2159.25  19
  -2  10   7 22491.0 1569.42  20
   2 -10  -6 2327.23 670.006  19
  -2  10   6 2344.47 539.461  29
  -2  10   6 2500.17 527.414  20
  -2  10   5 42726.0 2191.35  29
   2 -10  -5 46451.0 2915.90  19
  -2  10   5 40232.2 2151.37  20
  -2  10   4 9630.37 1025.76  29
  -2  10   4 9916.87 1044.74  20
   2 -10  -4 10371.5 1382.24  19
  -2  10   3 299.912 190.651  29
  -2  10   3 414.734 250.206  20
  -2  10   2 5551.46 781.232  20
  -2  10   1 10845.6 1065.88  20
  -2  10   0 57893.7 2439.39  20
   2 -10   0 40780.1 2965.16  18
  -2  10  -1 23388.3 1553.67  20
   2 -10   1 22012.1 2039.94  18
  -2  10  -2-72.5990 103.452  20
   2 -10   2 47.8581 170.914  18
  -2  10  -3 30939.1 1699.27  20
   2 -10   3 30418.6 2482.94  18
   2 -10   4 24323.6 2571.06  12
   2 -10   4 27063.5 2365.00  18
   2 -10   5 240.301 325.054  12
   2 -10   6 5758.68 1112.09  12
   2 -10   7 18263.7 1920.57  12
   2 -10   8 14289.0 1563.82  12
   2 -10   9 1978.50 532.919  12
  -2  10 -10 113.339 118.323  21
   2 -10  10 76.0515 155.324  12
   2  -9 -16 1464.89 371.539  23
   2  -9 -16 66.7982 118.903  19
   2  -9 -15 20354.3 1548.22  23
   2  -9 -15 6678.36 1053.35  19
   2  -9 -14 23305.4 1775.42  23
   2  -9 -14 12352.1 1493.39  19
   2  -9 -13 2968.25 653.459  23
  -2   9  13 2474.74 541.230  29
   2  -9 -12 16738.2 1570.91  23
  -2   9  12 15494.6 1348.78  29
   2  -9 -11 18464.4 1666.15  23
  -2   9  11 17525.5 1481.74  29
   2  -9 -10 3845.73 759.237  23
  -2   9  10 4196.11 731.128  29
  -2   9  10 4092.41 650.852  20
   2  -9  -9 10383.4 1208.03  23
  -2   9   9 10732.1 1066.19  20
  -2   9   9 10488.2 1171.29  29
  -2   9   8 5303.48 752.233  20
  -2   9   8 4444.03 765.355  29
  -2   9   7 33585.3 1908.04  20
  -2   9   7 35747.8 2109.59  29
  -2   9   6 45300.8 2199.67  20
  -2   9   6 46767.3 2354.79  29
   2  -9  -5 28579.3 2215.28  19
  -2   9   5 25457.4 1626.96  20
  -2   9   5 26310.2 1720.16  29
  -2   9   5 23835.2 3616.16   4
   2  -9  -4 32158.2 2344.82  19
  -2   9   4 29402.9 1761.77  20
  -2   9   4 30127.0 1780.91  29
  -2   9   3 141752. 3765.53  20
  -2   9   3 130601. 3641.64  29
  -2   9   3 131895. 9370.79   2
  -2   9   2 25081.9 1608.84  20
  -2   9   2 25548.8 1520.80  29
  -2   9   2 25986.3 4131.23   2
  -2   9   1-932.865 779.815   2
  -2   9   1 133.331 79.1439  20
  -2   9   0 58521.3 6197.40   2
  -2   9   0 62716.6 2491.97  20
  -2   9  -1 11351.0 1056.23  20
   2  -9   1 10707.6 1381.29  18
   2  -9   2 61.6577 100.467  18
  -2   9  -2 239.373 94.3436  20
   2  -9   3 5365.17 987.182  18
  -2   9  -3 4665.12 663.732  20
   2  -9   4 314.624 197.008  18
   2  -9   5 9096.03 1347.18  18
   2  -9   5 10747.4 1622.08  12
   2  -9   6 21723.1 2241.29  12
   2  -9   7 2574.04 687.562  12
   2  -9   8 48286.0 3090.58  12
   2  -9   9 54939.7 3113.92  12
   2  -9  10 5432.88 898.690  12
  -2   9 -11 5856.27 621.191  21
   2  -9  11 6132.93 853.064  12
   2  -9  11 6464.14 880.786  27
   2  -8 -17 1661.65 370.865  23
   2  -8 -16 674.794 301.334  19
   2  -8 -16 8502.82 969.610  23
   2  -8 -15 5108.93 796.860  23
   2  -8 -14 3839.52 737.425  23
   2  -8 -13 41107.2 2551.22  23
  -2   8  13 39541.7 2081.09  29
   2  -8 -12 42614.2 2574.87  23
  -2   8  12 40188.0 2206.02  29
   2  -8 -11 8.06833 150.489  23
  -2   8  11-67.2966 89.2927  29
   2  -8 -10 45031.5 2607.86  23
  -2   8  10 45016.1 2436.58  29
   2  -8  -9 23360.4 1907.35  23
  -2   8   9 26338.0 1848.87  29
  -2   8   8 9903.70 1123.48  29
   2  -8  -8 9622.15 1131.52  23
  -2   8   8 9646.95 2286.63   4
  -2   8   8 11464.6 2523.82   3
  -2   8   7 24533.7 3663.42   3
  -2   8   7 20202.6 3230.13   4
  -2   8   7 19853.2 1557.48  29
  -2   8   6 10931.3 2372.18   4
  -2   8   6 12314.1 2439.62   3
  -2   8   6 12014.8 1184.04  29
  -2   8   5 786.249 614.903   4
  -2   8   5 779.271 481.745   3
  -2   8   5 607.235 274.624  29
  -2   8   4 4264.81 1580.35   2
  -2   8   4 4116.62 1400.27   4
  -2   8   4 4347.86 1298.00   3
  -2   8   3 8542.51 2186.16   2
  -2   8   2 63158.9 5983.64   2
  -2   8   1 37720.2 4600.03   2
  -2   8   0 16787.0 3136.66   2
  -2   8  -1 58536.4 5830.22   2
  -2   8  -1 59127.8 2283.66  20
   2  -8   2 146288. 12080.8   7
  -2   8  -2 134064. 8929.39   2
  -2   8  -2 131204. 3410.01  20
  -2   8  -3 67174.5 2418.39  20
  -2   8  -3 62398.2 6289.91   2
   2  -8   3 65812.9 3276.24  18
   2  -8   4 63.1011 189.363  18
  -2   8  -4 136.709 123.515  20
   2  -8   5 18050.6 1817.47  18
   2  -8   5 11740.6 1810.45  12
   2  -8   6 15711.2 1867.58  12
   2  -8   7 9514.25 1457.39  12
   2  -8   8 2888.25 806.533  12
   2  -8   9 2782.09 745.648  12
   2  -8  10 10572.7 1363.66  12
  -2   8 -11 7151.86 772.770  21
   2  -8  11 6681.25 993.067  12
   2  -8  12 510.254 267.128  27
   2  -8  12 486.295 271.003  12
   2  -8  13 20172.2 1344.09  27
   2  -7 -17 3750.14 580.794  23
   2  -7 -16 24261.8 1697.50  23
   2  -7 -15 6917.10 987.327  23
  -2   7  14 4163.42 706.844  25
   2  -7 -14 4549.37 831.306  23
  -2   7  13 7450.98 986.548  25
  -2   7  13 8280.30 964.286  29
   2  -7 -13 8340.22 1176.13  23
  -2   7  12 910.687 349.126  25
  -2   7  12 960.329 349.999  29
   2  -7 -12 1172.10 481.722  23
   2  -7 -11 12526.7 1449.69  23
  -2   7  11 11952.0 1217.07  25
  -2   7  11 13321.0 1310.88  29
  -2   7  11 10968.6 1426.40  17
   2  -7 -10-117.198 193.374  23
  -2   7  10 96.5417 135.785  17
  -2   7  10 177.722 120.587  25
  -2   7  10 8.24936 131.149  29
  -2   7   9 20420.3 3343.26   4
  -2   7   9 22406.3 3570.33   3
   2  -7  -9 21116.5 1703.68  23
  -2   7   9 18086.8 1769.07  17
  -2   7   9 22867.2 1702.53  29
  -2   7   9 19233.8 1473.71  25
  -2   7   8 72803.8 6095.94   4
  -2   7   8 83268.6 7064.50   3
   2  -7  -8 69023.4 3003.43  23
  -2   7   8 64715.0 3162.12  17
  -2   7   8 79045.5 3082.33  29
  -2   7   7 33470.1 3955.09   4
  -2   7   7 40805.6 4796.56   3
  -2   7   7 36051.2 2021.38  29
  -2   7   6 3330.32 1189.22   4
  -2   7   6 2542.68 1136.87   3
  -2   7   5 80122.3 5825.95   4
  -2   7   5 84709.9 5992.53   3
  -2   7   4 79412.6 5727.43   4
  -2   7   4 84270.9 5546.95   3
  -2   7   4 85096.0 6698.05   2
  -2   7   3 30339.3 3517.80   4
  -2   7   3 30120.9 3146.82   3
  -2   7   3 32363.8 4071.30   2
  -2   7   2 34063.3 4072.73   2
  -2   7   1 5750.91 1673.36   2
  -2   7   0-1.91684 223.533   2
  -2   7  -1 1977.57 1101.57   2
  -2   7  -2-6.13862 303.946   2
   2  -7   3 5814.60 4948.62   7
  -2   7  -3 36800.7 4418.38   2
   2  -7   4 20365.1 4390.27   7
  -2   7  -4 26066.7 3825.28   2
   2  -7   5 14673.7 3769.29   7
  -2   7  -5 14156.8 2931.80   2
   2  -7   6 62650.5 3593.80  12
   2  -7   7 82033.4 4123.50  12
   2  -7   8 46022.8 3065.28  12
   2  -7   9 12574.3 1592.51  12
   2  -7  10 31333.0 2428.04  12
   2  -7  11 4780.52 893.711  12
   2  -7  12 225.943 98.7031  27
   2  -7  12 330.232 233.947  12
   2  -7  13 134.395 84.1847  27
   2  -6 -17 4290.02 647.662  23
   2  -6 -16 3985.35 712.650  23
  -2   6  15 55208.8 2461.51  25
   2  -6 -15 56723.6 2890.10  23
  -2   6  14 38021.9 2146.68  25
   2  -6 -14 42002.1 2553.11  23
  -2   6  13 131.429 115.352  25
   2  -6 -13 306.267 241.921  23
   2  -6 -12 7068.70 1124.51  23
  -2   6  12 7082.72 911.692  29
  -2   6  12 6742.41 928.100  25
  -2   6  12 6341.87 1169.13  17
   2  -6 -11 64810.6 3248.74  23
  -2   6  11 56106.7 3407.17  17
  -2   6  11 61955.4 2795.13  29
  -2   6  11 57666.1 2616.64  25
  -2   6  10 19976.1 3165.19   3
  -2   6  10 21794.8 3484.10   4
   2  -6 -10 20053.8 1804.04  23
  -2   6  10 22695.2 1994.47  17
  -2   6  10 20461.5 1511.68  25
  -2   6  10 21906.6 1653.62  29
  -2   6   9 5786.62 1798.91   3
  -2   6   9 4454.89 1545.34   4
   2  -6  -9 4806.85 847.366  23
  -2   6   9 5076.87 962.281  17
  -2   6   9 5714.17 825.771  29
  -2   6   9 5090.65 732.565  25
  -2   6   8 612.638 606.870   3
  -2   6   8 228.835 333.723   4
  -2   6   7 484.282 547.630   4
  -2   6   7 791.140 885.233   3
  -2   6   6 9044.49 2273.80   3
  -2   6   6 7767.87 1732.80   4
  -2   6   5 1056.27 646.870   3
  -2   6   5 476.548 374.925   4
  -2   6   4 16061.7 2359.61   4
  -2   6   4 16133.8 2381.66   3
  -2   6   3 134488. 6793.37   4
  -2   6   3 129286. 6269.61   3
  -2   6   3 143864. 7823.90   2
  -2   6   2 62398.5 4604.65   4
  -2   6   2 66158.6 5242.95   2
  -2   6   2 59224.4 4016.50   3
  -2   6   1 4237.26 1308.24   2
  -2   6   0 121009. 6970.44   2
  -2   6  -1 141320. 7649.46   2
  -2   6  -2 30471.8 3612.98   2
   2  -6   3 57937.3 6674.32   7
  -2   6  -3 49899.3 4754.62   2
   2  -6   4 7377.15 2506.72   7
  -2   6  -4 6497.53 1775.93   2
   2  -6   5 893.486 881.946   7
  -2   6  -5 1900.02 1041.64   2
  -2   6  -6 8725.96 2200.89   2
   2  -6   6 8580.58 1260.38  12
   2  -6   7 946.297 916.998   7
   2  -6   7-12.1850 164.411  12
  -2   6  -7 519.323 559.936   2
   2  -6   8 17633.2 1863.79  12
   2  -6   9 17394.2 1821.22  12
   2  -6  10-69.4976 218.000  12
   2  -6  11 21458.3 1958.60  12
   2  -6  12 11153.2 1366.83  27
   2  -6  12 12676.7 1416.56  12
   2  -6  13 9665.54 1166.65  27
   2  -6  14 3926.15 664.221  27
   2  -5 -18 9235.74 818.366  23
   2  -5 -18 8611.43 793.335  11
   2  -5 -17 2984.96 540.374  23
   2  -5 -16 655.070 304.843  23
  -2   5  15-32.4361 72.1132  25
   2  -5 -15 103.619 211.500  23
  -2   5  14 1623.28 453.482  25
   2  -5 -14 1141.85 436.625  23
   2  -5 -13 19979.8 1809.27  23
  -2   5  13 18348.9 1546.52  26
  -2   5  13 17807.3 1488.17  25
  -2   5  13 16503.9 1863.73  17
   2  -5 -12 505.109 201.430  23
  -2   5  12 636.145 368.920  17
  -2   5  12 498.970 295.511  26
  -2   5  12 586.942 291.848  25
  -2   5  11 110.958 76.6222  25
  -2   5  11-16.8111 130.398  29
  -2   5  11 238.936 142.161  26
  -2   5  10 81435.7 2930.05  25
  -2   5  10 85497.1 3041.87  26
  -2   5  10 90827.0 3298.02  29
  -2   5  10 88052.3 6799.18   4
  -2   5  10 79683.0 5913.63   3
  -2   5   9 105760. 7086.92   4
  -2   5   9 93937.4 6554.66   3
  -2   5   9 111568. 3326.23  26
  -2   5   8-14.3661 442.369   3
  -2   5   8 127.675 307.143   4
  -2   5   7 45431.9 4135.45   4
  -2   5   7 47795.1 5668.40   3
  -2   5   6 130374. 6685.60   4
  -2   5   6 153447. 10923.9   3
  -2   5   5-223.795 421.722   3
  -2   5   5 310.957 402.254   4
  -2   5   4 555.741 443.197   3
  -2   5   4 232.287 168.413   4
  -2   5   3 46693.5 3659.81   4
  -2   5   3 40744.2 3454.45   3
  -2   5   3 50351.7 4303.09   2
  -2   5   2 604.680 441.065   3
  -2   5   2 832.698 560.890   2
  -2   5   2 1097.40 569.448   4
  -2   5   1 9593.63 1688.26   4
  -2   5   1 10706.4 1926.65   2
  -2   5   0 7698.19 1640.51   2
  -2   5  -1 50222.3 4115.92   2
  -2   5  -2 41479.3 3830.01   2
   2  -5   3 11768.0 2952.15   7
  -2   5  -3 15937.3 2457.81   2
   2  -5   4 11726.1 3487.28   7
  -2   5  -4 18472.1 2754.92   2
   2  -5   5 45707.2 6018.11   7
  -2   5  -5 89501.9 6330.64   2
   2  -5   6 45655.6 5902.06   7
  -2   5  -6 42119.6 4501.03   2
   2  -5   7 1879.28 1439.42   7
  -2   5  -7 2548.14 1136.61   2
  -2   5  -7 1656.84 439.701  11
   2  -5   7 2845.78 675.853  12
   2  -5   8 45604.0 6372.09   7
  -2   5  -8 38492.5 2188.90  11
   2  -5   8 53979.9 3067.11  12
  -2   5  -8 52123.2 5425.67   2
   2  -5   9 45862.7 2871.43  12
  -2   5  -9 39079.3 2141.67  11
  -2   5 -10 3390.76 682.930  11
   2  -5  10 4509.82 903.592  12
  -2   5 -11 85.4118 177.272  11
   2  -5  11 9.44202 159.395  12
   2  -5  12 1051.76 483.814  27
   2  -5  12 1145.53 398.158  12
  -2   5 -12 414.372 251.909  11
   2  -5  13 984.753 373.619  27
  -2   5 -13 18.2514 158.601  11
   2  -5  14 5465.81 843.780  27
   2  -5  15 29.9914 101.217  27
   2  -4 -18 240.857 140.162  11
   2  -4 -17 18323.2 1342.82  23
   2  -4 -17 9284.84 976.280  11
   2  -4 -16 47206.1 2424.26  23
  -2   4  15 15821.6 1374.10  26
  -2   4  15 15904.3 1361.67  25
   2  -4 -15 16336.4 1533.68  23
  -2   4  14 416.445 214.628  25
  -2   4  14 385.535 160.785  26
   2  -4 -14 525.744 240.487  23
   2  -4 -13 41530.2 2675.91  23
  -2   4  13 40680.8 2293.31  26
  -2   4  13 42019.3 2286.27  25
  -2   4  12 10566.2 1614.24  17
  -2   4  12 11729.4 1208.87  26
  -2   4  12 11652.0 1193.69  25
  -2   4  11 643.344 437.813  17
  -2   4  11 476.190 228.574  25
  -2   4  11 579.083 238.830  26
  -2   4  11-189.809 345.960   4
  -2   4  10 16335.4 1724.29  17
  -2   4  10 14750.7 2718.32   4
  -2   4  10 13309.5 1179.34  26
  -2   4   9 970.295 604.324   3
  -2   4   9 1050.35 719.187   4
  -2   4   8 52887.1 4590.54   4
  -2   4   8 53345.4 4585.74   3
  -2   4   7 1148.10 716.289   3
  -2   4   7-118.950 174.408   4
  -2   4   6 4760.37 1573.64   3
  -2   4   6 4233.59 1157.38   4
  -2   4   5 97265.2 5188.18   4
  -2   4   5 91468.5 6277.90   3
  -2   4   4 45074.3 3396.19   4
  -2   4   4 37324.8 3476.13   3
  -2   4   3 1711.88 731.851   3
  -2   4   3 858.826 476.326   4
  -2   4   3 1071.22 646.672   2
  -2   4   2 140712. 5622.40   4
  -2   4   2 142435. 6496.74   2
  -2   4   1 179231. 7050.12   2
  -2   4   1 171254. 6300.41   4
  -2   4   0 6679.13 1350.59   2
  -2   4  -1 726.096 470.431   2
  -2   4  -2 25234.6 2754.67   2
   2  -4   3 3330.78 1853.63   7
  -2   4  -3 6600.46 1456.62   2
   2  -4   4 1508.14 1268.90   7
  -2   4  -4 1862.37 785.631   2
   2  -4   5 1723.61 1500.04   7
  -2   4  -5 5974.71 1460.17   2
   2  -4   6 48815.0 5772.98   7
  -2   4  -6 42459.3 4088.79   2
   2  -4   7 48195.2 5882.18   7
  -2   4  -7 47907.6 4545.25   2
   2  -4   8 1195.14 1257.61   7
  -2   4  -8 2056.88 990.538   2
  -2   4  -8 2250.67 542.293  11
   2  -4   8 3320.52 702.477  12
   2  -4   9 16952.6 3828.93   7
   2  -4   9 20130.5 1802.92  12
  -2   4  -9 19931.9 1467.90  11
  -2   4  -9 16898.2 3006.31   2
   2  -4  10 64436.6 3324.13  12
  -2   4 -10 60418.9 2687.16  11
  -2   4 -11 39716.6 2275.13  11
   2  -4  11 40381.3 2662.03  12
   2  -4  12 215.980 201.134  27
  -2   4 -12 225.890 229.857  11
   2  -4  12 91.3680 243.253  12
   2  -4  13 11544.7 1396.33  27
  -2   4 -13 9153.72 1120.88  11
   2  -4  14 11960.1 1315.93  27
  -2   4 -14 10830.9 1080.43  11
   2  -4  15 144.746 130.288  27
  -2   4 -15-21.6252 93.4322  11
   2  -4  16 2352.82 464.413  27
   2  -3 -18 826.168 254.668  11
   2  -3 -17 2646.28 496.016  23
   2  -3 -17 2720.61 501.942  11
  -2   3  16 2713.33 531.501  26
   2  -3 -16 2714.78 571.317  23
  -2   3  15 29773.3 1924.25  26
  -2   3  15 27409.6 1806.30  25
   2  -3 -15 26320.5 1952.76  23
  -2   3  14 24034.5 1764.03  26
  -2   3  14 23062.2 1705.85  25
   2  -3 -14 24802.5 1930.19  23
  -2   3  13 714.495 433.146  17
  -2   3  13 791.749 321.943  25
  -2   3  13 695.506 297.800  26
  -2   3  12 52837.4 3368.41  17
  -2   3  12 49758.9 2463.14  25
  -2   3  12 52290.3 2546.24  26
  -2   3  11 95807.8 3258.21  25
  -2   3  11 98735.7 3372.70  26
  -2   3  11 103964. 7725.41   4
  -2   3  10 25376.2 1615.70  26
  -2   3  10 24435.8 3553.33   4
  -2   3  10 21489.6 3293.87   7
  -2   3  10 28942.0 2248.83  17
  -2   3   9 35075.5 3874.33   7
  -2   3   9 34034.9 3847.14   4
  -2   3   8 170981. 7920.92   7
  -2   3   8 163285. 7894.78   4
  -2   3   8 158737. 7037.38   3
  -2   3   7 4301.69 1171.92   3
  -2   3   7 3980.27 1119.27   4
  -2   3   6 23478.0 2588.79   4
  -2   3   6 26343.6 2962.68   3
  -2   3   5 55249.6 3223.73   1
  -2   3   5 55597.0 3702.49   4
  -2   3   5 58595.2 4287.00   3
  -2   3   4 1561.12 654.288   3
  -2   3   4 2005.54 679.621   4
  -2   3   4 1727.48 578.105   1
  -2   3   3 138615. 5453.14   3
  -2   3   3 145671. 5345.49   4
  -2   3   3 137081. 5277.00   1
  -2   3   2 20385.4 1921.21   4
  -2   3   2 19744.1 2010.64   1
  -2   3   2 18347.3 1831.09   3
  -2   3   2 19191.7 2231.94   2
  -2   3   1 32628.4 2403.41   4
  -2   3   1 35276.2 2809.72   2
  -2   3   1 29367.0 2583.14   1
  -2   3   0 330357. 8669.04   1
  -2   3   0 351697. 8648.43   2
  -2   3   0 326491. 7842.18   4
  -2   3  -1 3689.20 888.186   2
  -2   3  -2 6121.07 1196.46   2
   2  -3   3 114897. 8369.01   7
  -2   3  -3 149587. 6027.80   2
   2  -3   4 82648.2 6593.59   7
  -2   3  -4 88703.7 4825.11   2
   2  -3   5 74.4681 600.743   7
  -2   3  -5 1050.66 533.647   2
   2  -3   6 6522.07 1893.31   7
  -2   3  -6 6061.28 1464.09   2
   2  -3   7 33213.0 4688.69   7
  -2   3  -7 33526.5 3556.88   2
   2  -3   8-566.306 640.516   7
  -2   3  -8 509.543 522.843   2
   2  -3   9 904.752 827.503   7
  -2   3  -9 136.425 273.450   2
  -2   3  -9 407.700 186.094  11
   2  -3   9 637.946 310.854  12
  -2   3 -10 1104.35 354.380  11
   2  -3  10 1493.50 491.193  12
   2  -3  11 36970.4 2462.02  12
  -2   3 -11 36493.6 2088.25  11
   2  -3  12 16711.2 1720.85  27
  -2   3 -12 18910.9 1525.76  11
   2  -3  12 18385.1 1761.65  12
   2  -3  13 4784.22 897.300  27
  -2   3 -13 5909.07 837.890  11
   2  -3  14 10383.8 1285.84  27
  -2   3 -14 10559.8 1099.93  11
   2  -3  15 49347.6 2591.67  27
  -2   3 -15 50922.5 2286.57  11
   2  -3  16 15504.7 1291.47  27
  -2   3 -16 306.564 215.228  11
   2  -2 -18 31393.2 1448.74  11
  -2   2  17 29806.3 1617.47  26
   2  -2 -17 29920.8 1632.71  11
   2  -2 -17 24746.3 1438.22  23
  -2   2  16 98.4159 124.597  26
   2  -2 -16 101.064 138.955  11
   2  -2 -16 332.599 221.376  23
  -2   2  15 18564.8 1504.06  25
  -2   2  15 20294.8 1579.07  26
   2  -2 -15 19421.2 1607.28  23
  -2   2  14 32920.5 2088.73  26
  -2   2  14 32363.0 2045.18  25
   2  -2 -14 32612.1 2222.28  23
  -2   2  13 1496.27 570.836  17
  -2   2  13 1747.65 478.439  26
  -2   2  12 69313.6 3611.14  17
  -2   2  12 59090.2 2766.33  26
  -2   2  11 3490.39 632.368  26
  -2   2  11 4101.75 879.142  17
  -2   2  11 2683.99 1216.95   7
  -2   2  11 2886.84 1360.54   4
  -2   2  10 23524.7 1573.92  26
  -2   2  10 25091.9 3520.69   7
  -2   2  10 31841.1 2348.57  17
  -2   2   9 55833.8 4792.12   7
  -2   2   8 2660.45 992.876   7
  -2   2   7 95179.7 5596.90   7
  -2   2   7 90285.1 4680.05   3
  -2   2   6 116927. 5621.60   7
  -2   2   6 117211. 5554.80   4
  -2   2   6 122538. 5358.27   3
  -2   2   6 117101. 4535.49   1
  -2   2   5 41356.4 3039.88   7
  -2   2   5 37241.9 2883.38   4
  -2   2   5 37630.2 2860.85   3
  -2   2   5 38276.8 2595.96   1
  -2   2   4 86982.5 4078.81   4
  -2   2   4 90114.5 4201.26   3
  -2   2   4 87903.6 3860.63   1
  -2   2   3 454479. 8759.80   1
  -2   2   3 452498. 8569.89   4
  -2   2   3 450013. 8833.05   3
  -2   2   2 47468.1 2850.44   1
  -2   2   2 50762.2 2777.84   4
  -2   2   1 35949.6 2201.50   4
  -2   2   1 34487.4 2407.03   1
  -2   2   1 37460.7 2613.29   2
  -2   2   0 182635. 5086.79   4
  -2   2   0 200025. 5708.71   2
  -2   2  -1 67462.4 3297.22   2
  -2   2  -2 521.850 313.375   2
   2  -2   3 67074.7 5875.36   7
  -2   2  -3 81600.7 3813.45   2
   2  -2   4 553.930 773.892   7
  -2   2  -4 630.273 372.988   2
   2  -2   5 205055. 9611.67   7
  -2   2  -5 178037. 6503.77   2
   2  -2   6 67317.2 5927.30   7
  -2   2  -6 64660.7 4223.15   2
   2  -2   7 3062.43 1324.87   7
   2  -2   8 200706. 11212.4   7
   2  -2   9 92683.6 7771.33   7
  -2   2  -9 63453.9 5227.49   2
  -2   2 -10 7419.28 861.856  11
   2  -2  10 6556.27 2184.67   7
   2  -2  11 32118.4 2215.42  12
  -2   2 -11 32911.3 1934.74  11
   2  -2  11 29814.6 2213.25  27
  -2   2 -12 40761.4 2209.66  11
   2  -2  12 37659.5 2539.68  27
  -2   2 -13 1538.05 404.933  11
   2  -2  13 1433.39 509.630  27
  -2   2 -14 508.972 270.111  11
   2  -2  14-39.8598 212.489  27
  -2   2 -15 789.843 330.772  11
   2  -2  15 531.577 301.140  27
  -2   2 -16 14982.4 1202.12  11
   2  -2  16 14317.7 1315.21  27
  -2   2 -17 2407.09 470.689  11
   2  -1 -17 2267.26 434.084  11
  -2   1  17 2210.37 441.699  26
   2  -1 -16 37569.1 2012.54  11
  -2   1  16 40572.2 2109.53  26
   2  -1 -16 34317.3 1862.48  23
  -2   1  15 13491.1 1298.06  26
  -2   1  15 11241.5 1162.23  25
   2  -1 -15 11343.8 1192.01  23
  -2   1  14 6812.90 951.163  26
   2  -1 -14 7051.04 978.347  23
  -2   1  13 19747.8 2014.03  17
  -2   1  13 25085.9 1866.35  26
  -2   1  12 27285.8 2214.66  17
  -2   1  12 23915.7 1777.21  26
  -2   1  11-17.3536 115.077  17
  -2   1  11 20.8850 75.8239  27
  -2   1  11 291.250 237.365  26
  -2   1  10 20687.4 3242.13   7
  -2   1  10 22352.7 1559.94  26
  -2   1   9 85216.8 6001.49   7
  -2   1   8 4387.25 1290.23   7
  -2   1   7 2068.95 814.606   7
  -2   1   6 1464.92 506.128   1
  -2   1   6 1534.83 640.086   7
  -2   1   5 32369.4 2392.84   1
  -2   1   5 33740.2 2631.87   7
  -2   1   4 122209. 4498.13   1
  -2   1   4 135543. 4775.74   7
  -2   1   3 5353.94 906.702   4
  -2   1   3 6378.35 1024.46   1
  -2   1   2 24311.0 1673.97   4
  -2   1   2 25288.2 1938.53   1
  -2   1   1 306042. 5487.24   4
  -2   1   0 175880. 4166.11   4
  -2   1   0 181354. 4781.43   2
  -2   1  -1 157203. 4107.27   2
  -2   1  -2 997041. 12453.6   1
  -2   1  -2 999999. 10748.4   2
  -2   1  -3 122530. 4041.61   2
  -2   1  -3 136614. 4834.22   1
   2  -1   3 141509. 6674.61   7
   2  -1   4 4250.71 1968.90   7
   2  -1   5 153616. 7329.39   7
   2  -1   6 2074.17 961.603   7
   2  -1   7 101.227 294.647   7
   2  -1   8 9540.61 2210.45   7
   2  -1   9 14994.3 2927.62   7
  -2   1 -10 27897.6 1695.58  11
   2  -1  10 25711.1 1869.81  27
   2  -1  10 25248.0 3932.30   7
  -2   1 -11 36856.7 2028.96  11
   2  -1  11 32620.3 2218.58  27
   2  -1  11 29808.2 4606.21   7
  -2   1 -12 3235.06 609.169  11
   2  -1  12 2920.42 695.820  27
  -2   1 -13 87935.2 3325.75  11
   2  -1  13 82273.5 3693.18  27
  -2   1 -14 23598.7 1712.18  11
   2  -1  14 21339.4 1867.08  27
  -2   1 -15 8997.67 1031.16  11
   2  -1  15 8065.02 1102.71  27
  -2   1 -16 7929.53 955.969  11
  -2   1 -17 7823.32 1012.26  11
   2   0 -17 1000.43 272.071  11
  -2   0  17 1217.39 318.208  26
   2   0 -16 11173.0 1057.23  11
  -2   0  16 10648.0 1071.53  26
   2   0 -15 2144.66 586.782  11
  -2   0  15 2464.77 546.774  26
  -2   0  14 10242.4 1205.20  26
  -2   0  13 5613.71 871.993  27
  -2   0  13 5251.57 880.165  26
  -2   0  12 6476.57 955.523  26
  -2   0  12 6169.66 906.134  27
  -2   0  11 61825.4 5980.52   7
  -2   0  11 58636.0 2390.72  15
  -2   0  11 68240.2 2872.07  27
  -2   0  10 1426.27 1035.96   7
  -2   0   9 22761.8 3168.46   7
  -2   0   8 138020. 7126.04   7
  -2   0   7 139544. 5713.43   5
  -2   0   7 142346. 6623.83   7
  -2   0   6 1862.86 704.614   7
  -2   0   6 1831.70 631.673   5
  -2   0   5 95829.7 4425.51   7
  -2   0   5 93792.0 4253.67   5
  -2   0   4 318132. 7146.58   7
  -2   0   4 315921. 7280.22   5
  -2   0   3 2152.60 525.266   7
  -2   0   3 2348.08 612.509   5
  -2   0   2 1552.70 466.774   5
  -2   0   1 68119.1 2201.13   4
  -2   0   0 109425. 2472.10   4
  -2   0  -1 44932.1 1606.54   2
  -2   0  -1 44073.5 2367.78   1
  -2   0  -2 580520. 6098.70   2
  -2   0  -2 568582. 8507.16   1
  -2   0  -3 352550. 6417.80   6
  -2   0  -3 386306. 7090.80   1
  -2   0  -4 417104. 7116.69   6
  -2   0  -4 435777. 7872.49   1
  -2   0  -5 22025.2 1685.95   6
   2   0   5 27664.9 2839.91   7
  -2   0  -6 62827.5 2966.93   6
   2   0   6 62367.3 4723.04   7
   2   0   7 230989. 9593.68   7
   2   0   8 75205.7 5792.30   7
   2   0   9-176.989 484.467   7
   2   0  10 54500.2 5569.51   7
  -2   0 -10 61147.2 2533.48  11
   2   0  11 4793.85 1666.21   7
   2   0  11 3653.07 726.189  27
  -2   0 -11 3824.82 635.405  11
   2   0  12 3.03081 125.741  27
  -2   0 -12 76.6604 136.812  11
   2   0  13 1898.65 575.627  27
  -2   0 -13 1967.29 481.213  11
   2   0  14 1902.03 550.052  27
  -2   0 -14 2114.48 516.465  11
   2   0  15 9436.03 1205.65  27
  -2   0 -15 9098.51 1083.13  11
  -2   0 -16 5641.74 762.091  13
  -2   0 -16 11291.1 1155.19  11
  -2   0 -17 209.686 201.630  11
   2   0  18 14080.4 1050.92  25
  -2   0 -18 29233.8 1495.57  11
  -2  -1  17 5698.12 666.207  26
   2   1 -17 5836.52 607.079  11
  -2  -1  16 467.592 243.976  26
   2   1 -16 559.699 242.699  11
  -2  -1  15 40640.1 2282.47  26
   2   1 -15 42920.4 2076.79  11
  -2  -1  14 36665.7 2298.53  26
   2   1 -14 37372.6 2080.04  11
  -2  -1  13 968.441 389.051  26
  -2  -1  13 726.330 344.873  27
  -2  -1  12 2709.64 541.440  15
  -2  -1  12 3169.57 670.804  27
  -2  -1  11 26202.6 1842.08  27
  -2  -1  11 23544.9 1584.99  15
  -2  -1  11 25609.5 3875.19   7
  -2  -1  10 2037.82 483.544  27
  -2  -1  10 1904.40 429.195  15
  -2  -1  10 1652.56 883.262   7
  -2  -1   9 4983.95 1512.45   7
  -2  -1   8 16472.0 2557.64   7
  -2  -1   8 15565.7 2154.47   5
  -2  -1   7 21199.0 2656.39   7
  -2  -1   7 22105.0 2470.13   5
  -2  -1   6 62050.7 4104.20   7
  -2  -1   6 61862.8 3946.11   5
  -2  -1   5 1423.10 600.653   7
  -2  -1   5 2018.81 662.776   5
  -2  -1   4 71000.6 3458.45   7
  -2  -1   4 70535.4 3831.91   5
  -2  -1   3 242842. 5416.46   7
  -2  -1   3 255335. 6875.22   5
  -2  -1   2 50293.0 2043.51   7
  -2  -1   2 52404.1 2866.22   5
  -2  -1   1 9020.16 1132.40   5
  -2  -1   0 146178. 4024.80   6
  -2  -1   0 135803. 3855.28   5
   2   1   1 269684. 5375.93   7
  -2  -1  -1 259134. 4901.25   5
   2   1   2 239.966 223.060   7
  -2  -1  -2 56.8454 138.255   6
  -2  -1  -2 221.128 144.601   1
  -2  -1  -3 14170.4 1396.98   6
   2   1   3 15330.8 1566.83   7
  -2  -1  -3 13622.9 1218.46   1
   2   1   4 18597.9 1951.64   7
  -2  -1  -4 20325.6 1791.55   6
  -2  -1  -4 17839.1 1361.72   1
  -2  -1  -5 191.259 219.007   6
   2   1   5 226.857 357.350   7
   2   1   6 1706.00 733.178   7
  -2  -1  -6 1407.64 571.317   6
  -2  -1  -7 126.212 153.658   6
   2   1   7 75.4776 329.511   7
   2   1   8 40395.8 3929.84   7
   2   1   9 66724.5 5383.55   7
   2   1  10-352.583 424.886   7
   2   1  11 45654.2 5023.54   7
   2   1  11 44047.4 2398.70  27
  -2  -1 -11 44872.4 2279.79  11
   2   1  12 110962. 4027.51  27
  -2  -1 -12 115577. 3788.85  11
   2   1  13 19355.8 1728.06  27
  -2  -1 -13 19736.7 1588.97  11
   2   1  14 4333.06 829.817  27
  -2  -1 -14 4927.49 779.416  11
  -2  -1 -15 25608.4 1799.26  11
  -2  -1 -16 8598.22 1023.04  11
  -2  -1 -17 2044.07 438.245  13
  -2  -1 -17 2090.54 484.737  11
   2   1  18 3080.31 529.702  25
  -2  -1 -18 5025.78 626.409  11
  -2  -2  17 61.0546 92.6369  26
  -2  -2  16 61.2397 88.5466  26
  -2  -2  15 117.771 175.908  26
   2   2 -15 137.925 105.412  11
  -2  -2  14 12632.2 1341.23  26
  -2  -2  14 11102.3 1216.31  27
   2   2 -14 12555.5 1124.57  11
  -2  -2  13 35266.4 2231.22  27
  -2  -2  13 32459.2 1960.12  15
   2   2 -13 39517.5 2089.06  11
  -2  -2  12 7140.05 1005.44  27
  -2  -2  12 6933.08 910.097  15
  -2  -2  11 9000.86 1133.59  27
  -2  -2  11 8607.54 1002.88  15
  -2  -2  10 82573.2 3216.13  27
  -2  -2  10 88041.8 6964.17   7
  -2  -2   9 75074.7 6086.06   7
  -2  -2   8 4356.85 1389.25   7
  -2  -2   8 4439.65 1281.50   5
  -2  -2   7 22516.6 2876.63   7
  -2  -2   7 21402.2 2728.07   5
  -2  -2   6 80427.0 4965.50   7
  -2  -2   6 85844.7 5357.20   5
  -2  -2   5 30743.3 2759.07   7
  -2  -2   5 34880.2 3283.04   5
  -2  -2   4 4429.25 919.756   7
  -2  -2   4 4468.43 1173.26   5
  -2  -2   3 5848.52 919.706   7
  -2  -2   3 6183.94 1353.88   5
  -2  -2   2 64258.0 2368.77   7
  -2  -2   2 90376.4 4694.62   5
  -2  -2   1 8945.17 1229.17   6
  -2  -2   1 11190.5 674.600   7
  -2  -2   0 14919.6 1264.85   6
  -2  -2   0 18058.8 1771.23   5
  -2  -2  -1 31150.0 2002.17   6
   2   2   1 29391.1 1172.37   2
  -2  -2  -1 33621.9 2059.60   5
  -2  -2  -2 102914. 3962.19   6
   2   2   2 94130.3 1854.90   4
  -2  -2  -2 98118.4 3034.42   5
   2   2   3 41348.3 2170.13   7
  -2  -2  -3 48810.7 2915.21   6
  -2  -2  -3 44816.3 2208.99   1
  -2  -2  -4 55947.1 3314.21   6
  -2  -2  -4 51043.1 2200.20   1
   2   2   5 144306. 5303.72   7
  -2  -2  -5 157150. 3402.37   1
   2   2   6 131641. 5598.38   7
  -2  -2  -6 152949. 5909.37   6
   2   2   7 33.7068 276.143   7
  -2  -2  -7 284.670 220.573   6
  -2  -2  -8 32367.1 2981.79   6
   2   2   8 29239.3 3218.91   7
   2   2   9 5493.09 1476.75   7
   2   2  10 6388.52 1703.25   7
   2   2  11 1099.85 756.200   7
   2   2  11 146.432 128.168  27
  -2  -2 -11 491.513 306.157  11
   2   2  12 62.4344 145.067  27
  -2  -2 -12 863.968 338.358  11
   2   2  13 27043.1 2003.29  27
  -2  -2 -13 28682.5 1940.76  11
  -2  -2 -14 15010.1 1408.17  11
  -2  -2 -15 902.043 330.549  11
  -2  -2 -16 31972.4 1943.03  11
   2   2  17 41236.5 2207.80  25
  -2  -2 -17 47757.6 2286.63  11
   2   2  18 1301.54 338.443  25
  -2  -2 -18 2067.86 438.544  11
  -2  -2 -18 1771.20 343.925  13
  -2  -3  16 27981.7 1613.72  26
  -2  -3  15 9119.12 1042.90  26
  -2  -3  14 130.717 190.447  27
  -2  -3  14 33.0635 66.4749  15
  -2  -3  13 6259.20 943.992  27
  -2  -3  13 6160.11 852.256  15
  -2  -3  12 7213.45 1027.90  27
  -2  -3  12 7644.05 972.375  15
  -2  -3  11 167.549 178.790  27
  -2  -3  11-72.1048 200.062  12
  -2  -3  10 956.324 327.813  27
  -2  -3  10 1403.45 509.522  12
  -2  -3   9 49224.4 5070.07   7
  -2  -3   9 57725.4 3053.23  12
  -2  -3   8 22619.4 3199.30   5
  -2  -3   8 21166.8 3117.35   7
  -2  -3   7 10594.3 2159.88   5
  -2  -3   7 8366.23 1882.27   7
  -2  -3   6 117747. 7259.90   5
  -2  -3   6 93978.7 5706.89   7
  -2  -3   5 181865. 9578.72   5
  -2  -3   5 180248. 7389.26   7
  -2  -3   4 157597. 6311.47   7
  -2  -3   3-177.036 336.996   5
  -2  -3   3 656.088 402.151   7
  -2  -3   2 82035.1 3196.07   7
  -2  -3   1 202056. 4638.73   6
  -2  -3   1 172505. 3439.08   7
   2   3   0 15830.9 1410.88   2
  -2  -3   0 19518.9 1615.89   6
   2   3   1 24601.8 1566.63   2
  -2  -3  -1 21163.4 1868.09   6
   2   3   2 20994.0 1172.04   4
   2   3   2 19268.2 1401.15   2
  -2  -3  -2 21832.2 2077.74   6
   2   3   2 20534.2 1029.33   7
  -2  -3  -3 20430.3 1490.27   5
   2   3   3 16955.4 1195.19   4
   2   3   3 17283.4 1208.73   7
  -2  -3  -4 659.942 185.520   5
   2   3   4 562.197 249.816   4
   2   3   4 523.682 262.967   7
  -2  -3  -5 158.780 91.3171   1
   2   3   5 193.704 167.264   7
   2   3   6 48606.0 3158.65   7
   2   3   7 207398. 7250.84   7
   2   3   8 1127.46 651.128   7
  -2  -3  -8 1590.27 747.228   6
   2   3   9 2852.29 1017.65   7
  -2  -3  -9 5216.38 1332.31   6
   2   3  10 71884.9 5457.57   7
   2   3  11 17502.6 2912.35   7
   2   3  11 18976.8 1514.23  27
   2   3  12 1065.04 760.491   7
  -2  -3 -12 419.209 330.944  11
  -2  -3 -13 15137.5 1443.81  11
  -2  -3 -14 1449.81 436.342  11
  -2  -3 -15 5460.39 851.812  11
  -2  -3 -16 808.097 354.577  11
   2   3  16 792.241 331.695  25
  -2  -3 -17 333.475 172.072  11
   2   3  17 271.305 192.202  25
  -2  -3 -18 17941.8 1262.05  11
   2   3  18 16006.0 1218.98  25
  -2  -4  16 4045.61 577.782  26
  -2  -4  15 20873.9 1508.25  26
  -2  -4  14 36061.3 1929.33  15
  -2  -4  14 32709.6 1996.55  27
  -2  -4  13 354.077 268.260  15
  -2  -4  13 157.366 150.535  27
  -2  -4  12 15994.4 1542.64  27
  -2  -4  11 27922.4 2064.89  27
  -2  -4  11 35340.8 2688.63  12
  -2  -4  10 1673.81 579.221  12
  -2  -4   9 10522.1 1352.96  12
  -2  -4   8 12948.3 2659.60   5
  -2  -4   8 13533.2 1448.58  12
  -2  -4   7 15200.7 2932.50   5
  -2  -4   6-94.7644 456.375   5
  -2  -4   6 229.715 318.247   7
  -2  -4   5 159.695 692.175   5
  -2  -4   5 7613.78 1623.93   7
  -2  -4   4 6840.75 1400.91   7
  -2  -4   3 61948.2 3840.84   7
  -2  -4   2 4092.35 834.493   7
  -2  -4   2 1412.28 612.778   6
   2   4  -1 185052. 5786.73   2
  -2  -4   1 199745. 5020.15   7
  -2  -4   1 193956. 5034.59   6
   2   4   0 132335. 4589.01   2
  -2  -4   0 135017. 4838.69   6
   2   4   1 38691.9 2410.13   2
  -2  -4  -1 37247.4 2700.20   6
   2   4   2 2915.10 590.315   4
   2   4   2 3470.11 696.349   2
   2   4   3 123749. 3734.19   4
   2   4   3 133611. 4367.61   2
   2   4   4 77962.1 3173.11   4
   2   4   4 76377.7 2992.05   7
   2   4   5 6008.53 1011.45   4
   2   4   5 6651.02 1027.80   7
   2   4   6 58423.4 3389.03   4
   2   4   6 62730.1 3455.46   7
   2   4   7 22209.6 2320.09   4
   2   4   7 23413.3 2358.91   7
   2   4   8 43387.1 3549.16   4
   2   4   8 41135.0 3429.58   7
   2   4   9 5281.48 1320.33   7
   2   4  10 3472.49 1146.77   4
  -2  -4 -10 2393.10 1132.92   6
   2   4  10 3748.91 1171.59   7
   2   4  11 30978.9 3763.10   4
   2   4  11 34205.3 3922.35   7
  -2  -4 -11 29731.7 2072.97  23
  -2  -4 -12 15145.5 1617.42  11
   2   4  12 18952.7 3192.66   4
   2   4  12 21786.3 3375.42   7
  -2  -4 -12 19135.0 1691.54  23
  -2  -4 -13 1086.05 391.094  23
  -2  -4 -13 1644.65 533.281  11
  -2  -4 -14 16243.1 1517.54  23
  -2  -4 -14 20084.5 1676.89  11
  -2  -4 -15 46128.1 2480.71  11
   2   4  15 41948.1 2491.03  25
  -2  -4 -16 17677.6 1457.88  11
   2   4  16 16264.7 1502.20  25
  -2  -4 -17 475.419 227.057  11
   2   4  17 246.321 148.217  25
  -2  -4 -18 20678.0 1348.54  11
   2   4  18 19417.4 1346.57  25
  -2  -5  15 2341.92 470.621  26
  -2  -5  14 645.661 261.866  15
  -2  -5  14 943.139 317.742  27
  -2  -5  13 5333.23 795.156  15
  -2  -5  13 4981.18 819.146  27
  -2  -5  12 6593.46 985.185  27
  -2  -5  11 5716.19 1077.79  12
  -2  -5  11 4377.11 819.464  27
  -2  -5  10 27223.2 2327.50  12
  -2  -5   9 59641.9 3334.65  12
  -2  -5   8 11298.3 2804.39   5
  -2  -5   8 11102.3 1381.32  12
  -2  -5   7 44695.6 2663.57  18
  -2  -5   7 48332.9 6087.66   5
  -2  -5   7 44775.8 2684.00  12
   2   5  -3 35310.9 3155.69   2
  -2  -5   2 5376.67 1086.28   7
   2   5  -2 6923.05 1300.70   2
  -2  -5   1 57949.1 3101.86   6
  -2  -5   1 55660.7 3294.42   7
   2   5  -1 63136.6 3803.35   2
  -2  -5   0 9225.25 1399.78   6
   2   5   0 9078.50 1412.15   2
   2   5   1 3384.90 828.704   2
   2   5   2 156032. 5644.23   2
   2   5   3 243.094 226.930   4
   2   5   3 384.740 303.129   2
   2   5   4 106229. 4120.89   4
   2   5   4 108696. 4770.07   2
   2   5   5 319336. 7289.11   7
   2   5   5 323987. 7690.48   4
   2   5   6 78111.6 3991.07   7
   2   5   6 72801.5 4025.19   4
   2   5   7 28921.3 2602.11   7
   2   5   7 29470.0 2730.52   4
   2   5   8 97491.0 5358.37   7
   2   5   8 96333.9 5356.26   4
   2   5   9 49346.8 4052.86   7
   2   5   9 49583.5 4116.97   4
   2   5  10 4708.54 1322.02   7
   2   5  10 4534.44 1328.62   4
  -2  -5 -11 2831.73 651.390  23
  -2  -5 -11 2174.78 1044.74   6
   2   5  11 2623.32 987.643   7
   2   5  11 3071.30 617.638  25
   2   5  11 2327.42 1025.14   3
   2   5  11 2569.13 1075.97   4
  -2  -5 -12 11795.4 1367.19  23
   2   5  12 12534.6 1286.07  25
   2   5  13 1595.36 475.126  25
  -2  -5 -13 1300.03 539.677  11
  -2  -5 -13 1783.91 535.770  23
   2   5  14 1420.10 448.424  25
  -2  -5 -14 1306.50 486.295  11
  -2  -5 -14 1516.10 503.670  23
   2   5  15 301.624 153.709  25
  -2  -5 -15 83.4416 220.651  11
  -2  -5 -15 191.048 192.599  23
   2   5  16 22121.4 1706.48  25
  -2  -5 -16 23298.9 1664.97  11
  -2  -5 -16 18774.3 1535.03  23
   2   5  17 16267.8 1362.56  25
  -2  -5 -17 16978.3 1337.50  11
   2   5  18 722.561 259.934  25
  -2  -5 -18 562.359 210.210  11
  -2  -6  14 5676.46 704.899  15
  -2  -6  13 32222.5 1983.78  27
  -2  -6  13 33317.5 1952.33  15
  -2  -6  12 18618.2 1633.01  27
  -2  -6  11 103.895 164.716  27
  -2  -6  11 191.819 149.044  12
  -2  -6  10 26717.2 2357.90  12
  -2  -6   9 7251.75 1201.39  12
  -2  -6   8 2795.12 802.530  18
  -2  -6   8 3372.50 815.169  12
  -2  -6   7 10067.7 1409.94  18
  -2  -6   7 6251.81 2931.70   5
   2   6  -7 10643.9 2365.15   2
  -2  -6   7 9903.90 1335.24  12
  -2  -6   6 71.9059 174.593  18
  -2  -6   6 523.797 716.219   5
   2   6  -6 118.750 430.538   2
  -2  -6   6 328.857 269.824  12
   2   6  -5 58255.0 4930.28   2
   2   6  -4 76267.5 5485.23   2
   2   6  -3 23496.3 2802.24   2
   2   6  -2 83948.2 5142.83   2
  -2  -6   1 93928.2 4304.45   6
   2   6  -1 129488. 6092.53   2
  -2  -6   0 477.012 432.084   6
   2   6   0 641.084 411.716   2
   2   6   1 57140.9 3869.39   2
   2   6   2 199919. 7107.08   2
   2   6   3 52539.0 3259.94   4
   2   6   3 58130.8 3847.59   2
   2   6   4 35210.2 2683.75   4
   2   6   4 37846.0 3165.10   2
   2   6   5 758.866 404.391   4
   2   6   6 1218.06 574.437   4
   2   6   7 91735.7 5015.27   4
   2   6   8 3352.20 1006.46   7
   2   6   8 2998.72 984.945   4
   2   6   9 36163.7 3555.23   7
   2   6   9 36694.8 3676.12   4
  -2  -6 -10 100847. 3892.62  23
   2   6  10 92862.1 6219.85   7
   2   6  10 107518. 3440.38  25
   2   6  10 106177. 6594.58   4
  -2  -6 -11 46092.6 2730.29  23
   2   6  11 37685.7 4204.15   7
   2   6  11 42994.1 4544.54   3
   2   6  11 45505.5 2368.74  25
   2   6  12 9744.43 1116.60  25
  -2  -6 -12 9444.98 1266.30  23
   2   6  13 102683. 3782.05  25
  -2  -6 -13 99827.1 4113.37  23
   2   6  14 112753. 4032.71  25
  -2  -6 -14 114124. 4041.09  11
  -2  -6 -14 105569. 4197.18  23
   2   6  15-46.7605 167.315  25
  -2  -6 -15 90.6765 115.564  11
  -2  -6 -15 30.0486 160.433  23
   2   6  16 9224.24 1078.51  25
  -2  -6 -16 9222.88 1050.86  11
  -2  -6 -16 7974.53 1019.01  23
   2   6  17 7057.88 890.694  25
  -2  -6 -17 6710.24 824.156  11
  -2  -6 -17 6085.68 813.725  23
   2   6  18 1484.57 339.782  25
  -2  -6 -18 1831.21 376.093  11
  -2  -7  14 3315.56 490.297  15
  -2  -7  13 352.550 180.529  27
  -2  -7  13 310.402 197.794  15
  -2  -7  12 27549.8 1897.40  27
  -2  -7  11 72428.4 3786.70  12
  -2  -7  11 55259.0 2905.99  27
  -2  -7  10 2489.17 735.378  12
  -2  -7   9 35423.2 2720.69  12
  -2  -7   8 109200. 4868.04  18
  -2  -7   8 108731. 4744.55  12
  -2  -7   7 17557.7 1912.79  18
  -2  -7   7 15720.4 1770.22  12
  -2  -7   6 2696.67 735.332  18
  -2  -7   6 1042.34 1274.52   5
   2   7  -6 2655.40 1226.21   2
  -2  -7   6 2322.88 672.935  12
  -2  -7   5 32470.3 2370.92  18
  -2  -7   5 32368.5 2384.36  12
   2   7  -5 34713.7 4117.62   2
   2   7  -4 33442.7 3950.42   2
   2   7  -3 4626.34 1349.36   2
   2   7  -2 298.921 447.979   2
   2   7  -1-410.531 397.873   2
   2   7   0 81277.3 5326.98   2
   2   7   0 80043.4 3979.30   3
  -2  -7   0 89686.8 4962.54   6
   2   7   1 2865.61 948.837   3
   2   7   1 34619.3 3349.90   2
   2   7   2 31316.8 3131.00   2
   2   7   3 169315. 7337.08   2
   2   7   4 150987. 6253.22   4
   2   7   4 159226. 7196.58   2
   2   7   5 2495.05 810.222   4
   2   7   6 49775.3 3728.69   4
   2   7   7 232498. 8483.52   4
   2   7   8 24397.4 2915.95   4
  -2  -7  -9 4815.26 857.212  23
   2   7   9 4655.80 702.443  25
  -2  -7 -10 21270.7 2046.42  19
  -2  -7 -10 25236.4 2007.86  23
   2   7  10 24020.3 3467.91   3
   2   7  10 24175.6 1696.44  25
  -2  -7 -11 229.474 240.734  23
  -2  -7 -11 467.239 292.893  19
   2   7  11 267.925 164.829  25
   2   7  11 481.481 502.149   3
  -2  -7 -12 41637.1 2714.40  23
   2   7  12 40947.0 2340.44  25
  -2  -7 -13 15.4924 174.065  23
   2   7  13 167.176 158.246  25
  -2  -7 -14 27949.8 2191.64  23
   2   7  14 27410.5 1957.88  25
  -2  -7 -15 64664.2 3195.40  23
   2   7  15 67638.1 3038.36  25
  -2  -7 -15 67686.4 2884.21  11
  -2  -7 -16 22446.0 1758.17  23
   2   7  16 24921.6 1761.25  25
  -2  -7 -16 25095.3 1645.42  11
  -2  -7 -17 4619.14 724.531  23
  -2  -7 -17 4822.25 658.944  11
   2   7  17 4885.51 714.350  25
   2   7  18 27587.0 1520.98  25
  -2  -8  13 5144.74 653.957  15
  -2  -8  12 3738.61 655.825  27
  -2  -8  12 4008.78 680.680  15
  -2  -8  11 21.0852 147.849  27
  -2  -8  11 491.578 317.466  12
  -2  -8  10 1651.52 611.714  12
  -2  -8   9 6039.96 1124.98  12
  -2  -8   8 429.175 358.959  12
  -2  -8   8 89.2177 275.628  18
  -2  -8   7 16980.7 1899.39  12
  -2  -8   7 16084.7 1929.27  18
  -2  -8   6 43627.9 2990.55  12
  -2  -8   6 44247.7 3159.80  18
  -2  -8   5 2075.51 660.262  12
   2   8  -5 1895.48 1044.70   2
  -2  -8   5 1952.80 654.272  18
  -2  -8   4 78068.0 3848.98  12
  -2  -8   4 75605.2 3719.97  18
   2   8  -4 77330.4 6483.01   2
  -2  -8   3 143614. 4975.61  18
   2   8  -3 152765. 8849.84   2
   2   8  -2 67690.3 5686.48   2
   2   8  -1 10892.3 2204.15   2
   2   8   0 32314.1 3642.94   2
   2   8   1 47962.8 4672.34   2
   2   8   1 66356.7 4056.94   3
   2   8   2 525.428 391.191   3
   2   8   2 180.489 280.944   2
   2   8   3 3432.53 1079.66   3
   2   8   3 4992.36 1375.92   2
   2   8   4 2215.37 1088.58   3
   2   8   4 6086.96 1566.33   2
   2   8   5 36809.3 3406.31   4
   2   8   5 36982.2 3945.36   2
   2   8   6 10468.2 1854.20   4
   2   8   6 2067.88 1066.63   3
   2   8   7 3255.38 1240.65   3
  -2  -8  -8 90141.7 3988.07  19
  -2  -8  -8 79909.5 3384.16  23
   2   8   8 80716.9 2960.85  25
   2   8   8 82930.2 6372.69   3
  -2  -8  -9 85876.0 4019.51  19
   2   8   9 75808.9 2983.55  25
   2   8   9 82246.1 6405.94   3
  -2  -8  -9 73533.5 3424.00  23
   2   8  10 137.086 119.599  25
  -2  -8 -10 366.843 326.645  23
  -2  -8 -10 287.665 297.928  19
   2   8  10 359.930 316.621   3
  -2  -8 -11 25328.7 2318.09  19
  -2  -8 -11 27727.0 2205.58  23
   2   8  11 25745.8 1842.71  25
  -2  -8 -12 103366. 4434.71  19
  -2  -8 -12 104862. 4371.36  23
   2   8  12 104556. 3785.90  25
  -2  -8 -13 4692.24 891.543  23
   2   8  13 3685.31 700.696  25
  -2  -8 -14 6106.61 1031.88  23
   2   8  14 6555.36 942.125  25
  -2  -8 -15 47009.3 2740.17  23
   2   8  15 47528.3 2511.07  25
  -2  -8 -16 4244.01 758.653  23
   2   8  16 3885.59 682.536  25
  -2  -8 -17 4821.57 735.588  23
   2   8  17 4905.80 708.202  25
  -2  -8 -18-163.960 118.745  13
  -2  -9  12 6829.00 780.422  15
  -2  -9  11 3732.96 652.282  27
  -2  -9  11 4615.53 860.760  12
  -2  -9  10 22779.3 2041.12  12
  -2  -9   9 11583.7 1510.79  12
  -2  -9   8 534.543 421.346  12
  -2  -9   7 11946.0 1600.50  12
  -2  -9   7 10661.3 1659.59  18
  -2  -9   6 2665.19 734.408  12
  -2  -9   6 2069.21 796.718  18
  -2  -9   5 3393.13 827.970  12
  -2  -9   5 3337.26 926.216  18
  -2  -9   4 194.761 158.977  12
  -2  -9   4 595.236 379.374  18
  -2  -9   3 2708.20 781.008  12
  -2  -9   3 2368.57 639.760  19
  -2  -9   3 2777.41 723.702  18
   2   9  -3 3330.87 1395.21   2
  -2  -9   2 18095.4 1872.83  19
   2   9  -2 16157.2 2978.53   2
  -2  -9   2 17786.4 1829.15  18
  -2  -9   1 25331.9 2179.52  19
   2   9  -1 23430.8 3480.31   2
  -2  -9   1 21889.6 2227.38  18
   2   9   0 485.393 784.986   2
   2   9   1 34812.4 4463.56   2
   2   9   2 63125.2 5513.87   2
   2   9   2 49490.7 3898.92   3
   2   9   3 48572.0 4722.76   2
   2   9   3 42398.7 3773.60   3
   2   9   4 16368.3 2778.01   2
   2   9   4 16212.3 2467.74   3
   2   9   5 43340.8 4554.75   2
   2   9   5 44041.6 4215.69   3
  -2  -9  -6 42485.5 2778.10  19
   2   9   6 43835.1 4351.22   3
  -2  -9  -7 13586.3 1581.43  19
  -2  -9  -7 11386.5 1290.56  23
   2   9   7 12247.6 2430.69   3
   2   9   8 1482.82 938.905   3
  -2  -9  -8 3016.98 789.695  19
  -2  -9  -8 2518.54 615.535  23
  -2  -9  -9 182.474 321.429  19
  -2  -9  -9 270.952 219.494  23
  -2  -9 -10 23554.9 2207.86  19
   2   9  10 18807.4 1584.20  25
  -2  -9 -10 20560.3 1907.73  23
  -2  -9 -11 327.694 262.259  23
  -2  -9 -11 1021.45 453.207  19
   2   9  11 681.763 302.213  25
   2   9  12 7587.02 1042.59  25
  -2  -9 -12 6753.20 1143.81  23
  -2  -9 -12 7935.91 1297.92  19
   2   9  13 34265.2 2190.84  25
  -2  -9 -13 36140.3 2589.17  23
  -2  -9 -13 38047.9 2662.27  19
  -2  -9 -14 20584.3 1888.84  23
   2   9  14 18401.5 1573.70  25
  -2  -9 -15 960.805 402.244  23
   2   9  15 635.588 302.306  25
  -2  -9 -16 20042.8 1633.68  23
  -2  -9 -17 32855.3 1864.05  23
  -2 -10  11 3282.25 538.488  15
  -2 -10  10 2612.05 545.223  27
  -2 -10  10 3624.12 735.473  12
  -2 -10   9 20637.3 1914.40  12
  -2 -10   8 15260.0 1738.66  12
  -2 -10   7 4010.10 1083.92  18
  -2 -10   7 5081.87 1025.24  12
  -2 -10   6 24241.5 2364.57  18
  -2 -10   6 20333.9 2099.80  12
  -2 -10   5 49302.5 3434.78  18
  -2 -10   5 46197.6 3213.10  12
  -2 -10   4 57747.2 3663.65  18
  -2 -10   4 56933.0 3573.88  12
  -2 -10   3 3778.29 947.369  18
  -2 -10   3 4129.21 952.619  19
  -2 -10   3 4716.54 987.751  12
  -2 -10   2 26182.6 2365.89  18
  -2 -10   2 24119.4 2328.53  19
  -2 -10   1 9954.43 1513.28  18
  -2 -10   1 12816.5 1624.73  19
  -2 -10   0 2899.99 750.911  19
  -2 -10   0 2320.86 684.344  18
   2  10   0 2586.26 1214.19   2
   2  10   1 18147.0 3329.60   2
  -2 -10  -1 22934.8 2137.90  19
   2  10   2 7000.17 1938.63   2
   2  10   2 6839.94 808.866  20
  -2 -10  -2 5805.53 1106.09  19
   2  10   3 26187.0 3775.39   2
  -2 -10  -3 28534.1 2375.63  19
   2  10   3 24119.4 1513.17  20
   2  10   4 36237.9 4432.45   2
   2  10   4 33641.8 1775.00  20
  -2 -10  -4 38372.8 2734.93  19
  -2 -10  -5 7313.07 1004.86  23
   2  10   5 4682.43 1451.12   3
  -2 -10  -5 7681.64 1269.30  19
  -2 -10  -6 87686.0 3584.07  23
  -2 -10  -6 92290.7 4258.48  19
  -2 -10  -7 76839.7 3461.85  23
  -2 -10  -7 85963.3 4261.30  19
  -2 -10  -8 1252.21 474.889  23
  -2 -10  -8 1361.64 565.024  19
  -2 -10  -9 11163.8 1402.20  23
  -2 -10  -9 13456.4 1700.13  19
  -2 -10 -10 20689.2 1961.10  23
  -2 -10 -10 23770.2 2275.01  19
  -2 -10 -11 14128.6 1619.28  23
  -2 -10 -11 15349.2 1854.68  19
  -2 -10 -12 1199.71 522.563  19
  -2 -10 -12 1457.75 550.010  23
  -2 -10 -13 810.365 423.135  19
  -2 -10 -13 597.011 235.442  23
  -2 -10 -14 246.454 269.432  19
  -2 -10 -14 458.507 294.720  23
  -2 -10 -15 1258.64 466.420  23
  -2 -10 -16 311.761 202.874  23
  -2 -10 -17 4610.21 662.487  23
  -2 -11  10 2941.15 504.735  15
  -2 -11  10 329.658 254.595  12
  -2 -11   9 2206.65 576.142  12
  -2 -11   8 2457.79 653.497  12
  -2 -11   7 11.4702 217.673  12
  -2 -11   7 25.8408 130.662  18
  -2 -11   6 13684.8 1686.11  12
  -2 -11   6 12923.8 1792.80  18
  -2 -11   5 1408.61 598.228  12
  -2 -11   5 1483.46 612.942  18
  -2 -11   4 15183.0 1867.90  12
  -2 -11   4 14534.0 1862.51  18
  -2 -11   3 16125.0 1932.32  12
  -2 -11   3 14280.9 1848.61  18
  -2 -11   2 6621.53 1214.89  19
  -2 -11   2 7199.94 1297.73  12
  -2 -11   2 8685.30 1424.67  18
  -2 -11   1 61533.1 3782.38  19
  -2 -11   1 64199.6 3816.47  18
  -2 -11   0 47294.0 3251.14  19
  -2 -11   0 50785.6 3387.27  18
  -2 -11  -1 11599.6 1638.87  19
  -2 -11  -1 12163.5 1806.22  18
  -2 -11  -2 16080.2 1883.48  19
  -2 -11  -3 19051.8 2064.43  19
   2  11   4 30145.7 1725.89  20
  -2 -11  -4 29422.4 2545.03  19
   2  11   5 285.217 157.150  20
  -2 -11  -5-27.8925 260.776  19
  -2 -11  -6 1428.58 476.957  23
  -2 -11  -6 1264.05 585.589  19
  -2 -11  -7 1119.12 382.744  23
  -2 -11  -7 1052.77 490.515  19
  -2 -11  -8 717.477 385.018  23
  -2 -11  -8 811.792 463.997  19
  -2 -11  -9 30494.3 2349.41  23
  -2 -11  -9 35294.3 2829.58  19
  -2 -11 -10 4477.80 908.874  23
  -2 -11 -10 4592.09 1024.82  19
  -2 -11 -11 42768.4 2788.43  23
  -2 -11 -11 45908.7 3120.31  19
  -2 -11 -12 49265.9 2962.74  23
  -2 -11 -12 48703.1 3179.52  19
  -2 -11 -13 2932.54 709.694  23
  -2 -11 -13 2412.17 681.659  19
  -2 -11 -14 9293.62 1245.88  19
  -2 -11 -14 10407.5 1259.35  23
  -2 -11 -15 27931.4 1919.12  23
  -2 -11 -16 12400.7 1151.04  23
  -2 -12   8 1176.06 378.073  12
  -2 -12   7 26248.6 2019.26  12
  -2 -12   6 19272.8 1850.28  12
  -2 -12   6 19938.7 1981.12  18
  -2 -12   5 747.730 402.649  12
  -2 -12   5 464.528 392.252  18
  -2 -12   4 6065.64 1122.78  12
  -2 -12   4 6996.31 1272.86  18
  -2 -12   3 10497.3 1540.95  12
  -2 -12   3 9918.21 1538.36  18
  -2 -12   2 953.221 392.318  12
  -2 -12   2 456.283 298.185  18
  -2 -12   1 3791.56 938.712  12
  -2 -12   1 3175.56 865.130  19
  -2 -12   1 3182.05 893.566  18
  -2 -12   0 4229.79 1051.85  19
  -2 -12   0 4288.68 1004.87  18
  -2 -12  -1 22512.7 2290.92  19
  -2 -12  -1 23562.7 2386.74  18
  -2 -12  -2 23932.0 2396.36  19
  -2 -12  -2 4904.65 2251.15  18
  -2 -12  -3 7376.71 1320.03  19
  -2 -12  -4 9666.23 1502.57  19
  -2 -12  -5 68410.2 3924.27  19
  -2 -12  -6 41462.1 3082.37  19
  -2 -12  -7 12943.5 1420.86  23
  -2 -12  -7 14516.4 1812.79  19
  -2 -12  -8 19462.0 1783.20  23
  -2 -12  -8 21599.3 2250.65  19
  -2 -12  -9 23256.6 1982.80  23
  -2 -12  -9 23756.9 2364.47  19
  -2 -12 -10 2370.58 601.052  23
  -2 -12 -10 3009.38 870.832  19
  -2 -12 -11 3021.18 729.244  23
  -2 -12 -11 3116.43 818.057  19
  -2 -12 -12 179.345 240.233  23
  -2 -12 -12 90.3161 192.029  19
  -2 -12 -13 1585.99 486.243  23
  -2 -12 -13 1199.96 484.701  19
  -2 -12 -14 7482.30 1044.81  19
  -2 -12 -14 8323.54 1038.20  23
  -2 -12 -15 2167.89 493.344  23
  -2 -12 -16 23693.4 1433.27  23
  -2 -13   7 2844.51 565.928  12
  -2 -13   6 7205.96 990.392  12
  -2 -13   5 27523.7 2090.26  12
  -2 -13   5 30123.3 2378.83  18
  -2 -13   4 20313.3 1896.21  12
  -2 -13   4 24445.6 2217.57  18
  -2 -13   3 3254.53 818.003  12
  -2 -13   3 3258.05 805.150  18
  -2 -13   2 65881.9 3678.49  12
  -2 -13   2 68118.4 3882.85  18
  -2 -13   1 58579.0 3518.57  12
  -2 -13   1 58031.5 3636.67  18
  -2 -13   0 9110.19 1443.16  19
  -2 -13   0 9331.38 1430.62  12
  -2 -13   0 9981.44 1503.53  18
  -2 -13  -1 7582.09 1382.16  19
  -2 -13  -1 8669.04 1429.07  18
  -2 -13  -2 18004.5 2148.63  19
  -2 -13  -2 18859.3 2194.04  18
  -2 -13  -3 6330.07 1206.36  19
  -2 -13  -3 4428.38 1089.87  18
  -2 -13  -4 3017.19 851.868  19
  -2 -13  -5 365.186 187.117  19
  -2 -13  -6 9654.94 1565.07  19
  -2 -13  -7 38537.6 3045.90  19
  -2 -13  -8 293.304 220.757  19
  -2 -13  -9 40700.7 2975.51  19
  -2 -13  -9 36681.2 2327.69  23
  -2 -13 -10 72402.3 3871.10  19
  -2 -13 -10 70055.9 3200.55  23
  -2 -13 -11 23565.3 2143.92  19
  -2 -13 -11 24076.3 1846.32  23
  -2 -13 -12 7280.42 1136.05  19
  -2 -13 -12 7526.57 993.406  23
  -2 -13 -13 27587.6 2032.44  19
  -2 -13 -13 30560.2 1912.84  23
  -2 -13 -14 19966.3 1569.44  19
  -2 -13 -14 21065.4 1471.22  23
  -2 -14   4 1144.37 374.730  12
  -2 -14   4 1041.25 445.448  18
  -2 -14   3 806.210 370.317  12
  -2 -14   3 697.747 331.764  18
  -2 -14   2 5829.80 982.161  12
  -2 -14   2 5512.56 1030.23  18
  -2 -14   1 13365.5 1530.24  12
  -2 -14   1 12399.5 1570.10  18
  -2 -14   0 47444.4 2958.72  12
  -2 -14   0 47848.1 3149.12  18
  -2 -14  -1 12322.4 1703.58  19
  -2 -14  -1 15531.6 1823.34  18
  -2 -14  -2 4506.52 1068.38  19
  -2 -14  -2 5291.78 1058.91  18
  -2 -14  -3 40422.1 3007.43  19
  -2 -14  -3 44985.1 3195.44  18
  -2 -14  -4 61655.5 3713.23  19
  -2 -14  -4 71714.9 4030.69  18
  -2 -14  -5 3016.01 897.473  19
  -2 -14  -5 1686.07 944.937  18
  -2 -14  -6 23647.6 2276.40  19
  -2 -14  -7 12031.6 1704.40  19
  -2 -14  -8 3091.56 819.061  19
  -2 -14  -9 4422.59 1059.10  19
  -2 -14 -10 327.646 309.672  19
  -2 -14 -11 3304.04 597.847  23
  -2 -14 -11 3443.74 778.438  19
  -2 -14 -12 11968.9 1087.45  23
  -2 -14 -12 13840.5 1428.76  19
  -2 -14 -13 184.923 162.508  23
  -2 -14 -13 276.982 207.444  19
  -2 -15   3 24017.3 1783.62  18
  -2 -15   2 9857.30 1168.50  18
  -2 -15   1 2154.37 562.496  18
  -2 -15   0 7948.32 1179.83  18
  -2 -15  -1 968.048 459.782  18
  -2 -15  -2 1056.85 461.760  19
  -2 -15  -2 491.923 339.646  18
  -2 -15  -3 3572.07 844.197  19
  -2 -15  -3 3537.15 835.684  18
  -2 -15  -4 8853.76 1280.03  18
  -2 -15  -4 6100.71 1115.25  19
  -2 -15  -5 23028.0 2075.80  18
  -2 -15  -5 17769.4 1884.01  19
  -2 -15  -6 12565.5 1533.41  18
  -2 -15  -6 8694.88 1382.28  19
  -2 -15  -7 12724.3 1901.86  18
  -2 -15  -7 17324.2 1780.04  19
  -2 -15  -8 32133.9 2404.53  19
  -2 -15  -9 19912.6 1799.44  19
  -2 -15 -10 1387.40 507.097  19
  -2 -15 -11 12903.3 1329.52  19
  -2 -16  -1 18004.5 1501.15  18
  -2 -16  -2 18853.5 1581.42  18
  -2 -16  -3 15937.6 1471.12  18
  -2 -16  -4 4951.22 836.117  18
  -2 -16  -4 4697.43 809.954  19
  -2 -16  -5 6949.14 983.684  18
  -2 -16  -5 6238.51 987.014  19
  -2 -16  -6 5843.65 896.050  18
  -2 -16  -6 5028.35 890.736  19
  -2 -16  -7 639.509 291.650  19
  -2 -16  -7 784.763 333.041  18
  -2 -16  -8-177.607 224.789  19
  -2 -16  -8-18.1841 97.4057  18
  -2 -16  -9 1120.16 369.007  19
  -3  14   8 4629.64 478.119  20
  -3  14   7 19625.5 1041.23  20
  -3  14   6 19308.4 1076.97  20
  -3  14   5 25.4587 86.7712  20
  -3  14   4 2814.73 420.207  20
  -3  14   3 2047.32 363.470  20
   3 -14  -1 86.8118 150.502  12
   3 -14   0 1739.13 511.652  12
   3 -14   1 9594.50 1112.16  12
   3 -13 -11-129.930 115.236  19
   3 -13 -10 326.603 211.953  19
  -3  13  10 265.051 106.525  20
   3 -13  -9 578.104 241.822  19
  -3  13   9 1194.30 273.722  20
  -3  13   8 2149.78 384.780  20
  -3  13   7 1229.41 300.263  20
  -3  13   6 5651.47 674.199  20
  -3  13   5 36936.8 1745.69  20
  -3  13   4 4083.49 581.059  20
  -3  13   3 5371.33 672.748  20
  -3  13   2 27545.7 1484.59  20
  -3  13   1 14130.9 1031.43  20
   3 -13   1 996.885 620.425  12
   3 -13   2 3325.40 762.214  12
  -3  13  -2 2646.93 420.751  21
   3 -13   3 291.369 221.015  12
  -3  13  -3 479.177 187.743  21
   3 -13   4 150.353 151.902  12
  -3  13  -4-67.7570 76.1727  21
   3 -12 -13 3440.72 587.672  19
   3 -12 -12 15783.9 1369.80  19
   3 -12 -11 7039.79 985.927  19
   3 -12 -10 267.658 190.923  19
  -3  12  10 91.7860 92.1185  20
   3 -12  -9 20186.4 1736.03  19
  -3  12   9 23316.5 1378.77  20
  -3  12   8 53146.6 2177.85  20
   3 -12  -8 49012.7 2771.12  19
   3 -12  -7 3246.68 709.632  19
  -3  12   7 3572.57 588.775  20
  -3  12   6 3064.55 567.071  20
  -3  12   5 6832.00 826.742  20
  -3  12   4 2969.80 554.255  20
  -3  12   3 2346.03 495.087  20
  -3  12   2 1965.79 444.439  20
  -3  12   1 10584.6 999.628  20
  -3  12   0 16187.4 1194.37  20
  -3  12  -1 2451.49 438.607  20
  -3  12  -1 2311.06 470.044  21
   3 -12   2 489.593 715.048  12
  -3  12  -2 6518.16 800.303  21
   3 -12   3 46979.6 3040.02  12
  -3  12  -3 43616.4 2045.46  21
   3 -12   4 10370.8 1338.51  12
  -3  12  -4 9948.97 940.051  21
   3 -12   5 1026.84 389.676  12
  -3  12  -5 904.741 275.329  21
   3 -12   6 5977.28 836.470  12
  -3  12  -6 6313.63 651.383  21
   3 -11 -14 336.334 205.349  19
   3 -11 -13 1173.10 451.393  19
   3 -11 -12 173.387 151.353  19
   3 -11 -11 1449.58 474.112  19
  -3  11  11 1935.98 442.801  29
  -3  11  11 1846.91 380.723  20
  -3  11  10 19022.4 1416.38  29
   3 -11 -10 15116.3 1697.10  19
  -3  11  10 18159.6 1258.08  20
   3 -11  -9 1749.15 621.782  19
  -3  11   9 1921.92 460.505  29
  -3  11   9 2022.28 447.621  20
  -3  11   8 21475.6 1549.13  29
   3 -11  -8 20414.5 1961.48  19
  -3  11   8 20528.6 1463.66  20
  -3  11   7 56729.6 2523.81  29
  -3  11   7 58718.8 2497.62  20
   3 -11  -7 56606.2 3188.69  19
  -3  11   6 21329.5 1525.13  29
   3 -11  -6 20803.2 1892.78  19
  -3  11   6 22457.7 1574.74  20
  -3  11   5 323.574 112.624  29
  -3  11   5 587.896 252.154  20
  -3  11   4 31151.1 1844.87  20
  -3  11   3 34768.5 1965.27  20
  -3  11   2 1461.16 391.017  20
  -3  11   1 3918.80 643.060  20
  -3  11   0 9980.78 993.180  20
  -3  11  -1 1424.68 383.628  20
  -3  11  -2 5209.83 683.147  20
   3 -11   3 57.3250 229.419  12
   3 -11   4 13161.6 1676.53  12
   3 -11   5 9947.78 1362.30  12
   3 -11   6 167.039 115.012  12
  -3  11  -6 269.184 180.019  21
   3 -11   7 8217.79 1053.75  12
  -3  11  -7 8765.33 847.145  21
   3 -11   8 28815.9 1753.50  12
  -3  11  -8 33840.6 1492.91  21
   3 -10 -15 50.0565 138.984  19
   3 -10 -14 32445.7 1712.89  23
   3 -10 -14 10688.2 1155.20  19
   3 -10 -13 31573.7 1809.81  23
  -3  10  13 29680.7 1591.48  29
   3 -10 -12 3247.49 748.822  19
  -3  10  12 4706.91 694.454  29
  -3  10  11 16489.8 1356.92  29
   3 -10 -11 13385.5 1568.16  19
  -3  10  11 14759.6 1139.27  20
  -3  10  10 30588.6 1907.89  29
  -3  10  10 30158.4 1723.29  20
  -3  10   9 8156.89 1015.18  29
  -3  10   9 8418.25 939.360  20
   3 -10  -9 7776.77 1228.21  19
  -3  10   8 10748.2 1156.77  29
   3 -10  -8 11330.0 1466.79  19
  -3  10   8 9820.11 1046.92  20
  -3  10   7 10720.6 1142.39  29
   3 -10  -7 10226.8 1498.92  19
  -3  10   7 11126.7 1130.59  20
  -3  10   6 4928.00 775.335  29
   3 -10  -6 5566.74 1007.99  19
  -3  10   6 5103.55 775.984  20
  -3  10   5 52850.7 2459.50  29
   3 -10  -5 54731.2 3083.42  19
  -3  10   5 53816.9 2470.41  20
  -3  10   4 7870.10 922.746  29
  -3  10   4 8802.32 1009.72  20
  -3  10   3 25915.6 1609.33  29
  -3  10   3 27229.3 1740.53  20
  -3  10   2 70748.3 2794.67  20
  -3  10   1 58818.1 2496.57  20
  -3  10   0 779.186 289.940  20
  -3  10  -1 58880.0 2426.64  20
  -3  10  -2 38960.8 1926.42  20
  -3  10  -3 875.964 288.753  20
   3 -10   4 6271.77 1652.39  12
   3 -10   5 14692.0 1787.07  12
   3 -10   6 261.126 218.244  12
   3 -10   7 824.568 425.637  12
  -3  10  -8 659.457 274.804  21
   3 -10   8 647.032 289.839  12
  -3  10  -9 5122.15 616.701  21
   3 -10   9 4228.68 706.961  12
   3  -9 -15 180.323 124.669  23
   3  -9 -15-52.5201 110.141  19
   3  -9 -14 2231.60 485.479  23
  -3   9  14 2404.22 428.268  29
  -3   9  13 559.502 274.085  29
   3  -9 -13 160.559 116.563  23
  -3   9  12 5887.80 826.751  29
   3  -9 -12 6327.81 939.290  23
  -3   9  11 23897.2 1531.98  20
  -3   9  11 25086.3 1761.50  29
   3  -9 -11 23500.7 1819.42  23
  -3   9  10-118.018 207.713  29
  -3   9  10 119.298 113.038  20
  -3   9   9 30182.6 1993.83  29
  -3   9   9 28751.6 1788.41  20
  -3   9   8 69663.5 3007.72  29
  -3   9   8 69650.6 2786.36  20
  -3   9   7 447.526 274.615  29
  -3   9   7 711.402 273.268  20
  -3   9   6 12756.3 1253.51  29
  -3   9   6 12410.9 1193.24  20
  -3   9   5 50214.1 2426.43  29
   3  -9  -5 57425.1 3167.03  19
  -3   9   5 53336.8 2419.27  20
  -3   9   4 32206.9 1873.06  29
  -3   9   4 31262.4 1863.48  20
  -3   9   3 5358.83 756.908  29
  -3   9   3 5670.89 777.388  20
  -3   9   2 15638.3 1296.99  20
  -3   9   1 930.620 334.883  20
  -3   9   0 10063.1 1016.47  20
  -3   9  -1 1449.75 387.420  20
  -3   9  -2 13681.0 1149.11  20
  -3   9  -3 38596.6 1885.86  20
   3  -9   5 3925.93 987.661  12
   3  -9   6 55727.2 3481.25  12
   3  -9   7 67688.8 3658.16  12
   3  -9   8 3303.30 759.439  12
  -3   9  -9 18456.9 1337.09  21
   3  -9   9 16939.4 1586.20  12
  -3   9 -10 15131.8 1076.99  21
   3  -9  10 12718.9 1231.03  12
   3  -9  11 431.257 199.709  27
   3  -8 -16 43.9928 118.707  19
   3  -8 -16 5732.32 718.305  23
   3  -8 -15 24526.8 1639.91  23
   3  -8 -14 14414.8 1373.83  23
  -3   8  14 14189.8 1108.48  29
   3  -8 -13 3451.34 684.794  23
  -3   8  13 3152.23 580.392  29
   3  -8 -12 9549.17 1174.34  23
  -3   8  12 9378.56 1066.02  29
   3  -8 -11 37323.1 2437.41  23
  -3   8  11 40671.1 2298.24  29
  -3   8  10 101.698 136.120  17
  -3   8  10 179.606 178.219  29
   3  -8 -10 115.731 103.542  23
  -3   8   9 4893.23 812.738  29
   3  -8  -9 4463.81 806.905  23
  -3   8   8 3124.17 660.612  29
  -3   8   7 13704.1 1350.48  29
  -3   8   6 9521.97 2317.24   4
  -3   8   6 8467.74 1029.51  29
  -3   8   5 8820.87 2178.20   4
  -3   8   5 10416.7 1104.58  29
  -3   8   4 45960.2 4915.50   4
  -3   8   4 49158.2 2318.67  29
  -3   8   3 61405.2 6441.80   2
  -3   8   3 64426.9 2549.72  29
  -3   8   3 63676.4 2531.35  20
  -3   8   2 4889.93 702.864  20
  -3   8   2 4950.23 1767.76   2
  -3   8   1 17845.5 1327.51  20
  -3   8   1 17612.9 3384.34   2
  -3   8   0 61482.5 2431.01  20
  -3   8   0 58439.2 6165.33   2
  -3   8  -1 13576.7 1142.21  20
  -3   8  -1 13162.2 2835.17   2
  -3   8  -2 9829.55 950.954  20
   3  -8   2 14798.1 4091.11   7
  -3   8  -2 9324.15 2464.93   2
  -3   8  -3 16205.2 1200.71  20
   3  -8   5 5982.36 1236.32  12
   3  -8   6 427.547 338.457  12
   3  -8   7 10953.1 1488.04  12
   3  -8   8 8315.15 1276.83  12
   3  -8   9 623.396 343.032  12
  -3   8 -10 5880.02 762.499  21
   3  -8  10 4339.16 798.353  12
  -3   8 -11 29863.9 1503.53  21
   3  -8  11 28245.9 1901.60  27
   3  -8  12 19212.4 1376.75  27
   3  -7 -17 1097.15 289.976  23
   3  -7 -16 208.970 145.304  23
   3  -7 -15 1625.83 449.858  23
   3  -7 -14 15200.4 1463.81  23
  -3   7  13 18666.9 1441.92  29
   3  -7 -13 18349.2 1734.79  23
  -3   7  12 328.467 265.143  17
  -3   7  12 66.6393 82.1706  29
   3  -7 -12 126.892 196.421  23
  -3   7  11 35580.9 2512.04  17
  -3   7  11 38541.0 2294.73  29
   3  -7 -11 41213.0 2554.04  23
  -3   7  10 126397. 4805.94  17
  -3   7  10 131938. 4255.34  29
   3  -7 -10 131585. 4415.71  23
  -3   7   9 36386.2 2470.24  17
  -3   7   9 38557.9 2287.70  29
   3  -7  -9 38344.8 2320.46  23
  -3   7   8 1363.78 442.833  29
  -3   7   8 1010.28 513.371  17
  -3   7   8 970.073 728.189   4
   3  -7  -8 1505.37 419.527  23
  -3   7   7 32112.9 2011.30  29
  -3   7   7 31838.1 4086.70   4
  -3   7   6 52970.0 2475.33  29
  -3   7   6 48534.2 4937.24   4
  -3   7   5 692.428 293.743  29
  -3   7   5 581.699 584.671   4
  -3   7   4 241.700 403.593   4
  -3   7   3 642.559 768.658   2
  -3   7   3 1160.71 820.924   4
  -3   7   2 5022.77 1697.24   2
  -3   7   1 1211.37 843.626   2
  -3   7   0 14115.0 2778.74   2
  -3   7  -1 64329.1 6012.29   2
  -3   7  -2 52226.0 5488.91   2
   3  -7   3 9696.90 3162.06   7
  -3   7  -3 6632.89 2069.85   2
   3  -7   4 22788.5 5024.62   7
  -3   7  -4 28605.7 4247.62   2
   3  -7   6 10173.1 1452.01  12
   3  -7   7 5004.36 1014.37  12
   3  -7   8 6177.25 1096.87  12
   3  -7   9 6171.86 1089.79  12
  -3   7 -10 918.628 317.568  21
   3  -7  10 1088.99 442.341  12
  -3   7 -11 259.365 166.134  21
   3  -7  11 262.356 143.241  27
   3  -7  12 1073.56 347.138  27
   3  -7  13 15131.1 1221.82  27
   3  -6 -17 25435.9 1458.26  23
   3  -6 -16 12491.1 1167.07  23
   3  -6 -15 830.189 345.998  23
   3  -6 -14 10890.2 1285.12  23
  -3   6  13 2101.06 741.797  17
  -3   6  13 3267.74 598.871  29
   3  -6 -13 2715.43 693.232  23
  -3   6  12 476.510 369.798  17
  -3   6  12 376.757 247.261  29
   3  -6 -12 390.213 142.815  23
  -3   6  11 726.170 408.063  17
  -3   6  11 941.998 360.728  29
   3  -6 -11 668.955 394.407  23
  -3   6  10 10905.7 1395.86  17
  -3   6  10 9724.13 1155.99  29
   3  -6 -10 7792.94 1154.79  23
  -3   6   9 18116.9 1819.02  17
  -3   6   9 16015.9 2982.37   4
  -3   6   9 18192.7 1550.03  29
  -3   6   8 12906.3 1506.55  17
  -3   6   8 12152.4 1249.01  29
  -3   6   8 11795.7 2458.29   4
  -3   6   7 13120.5 1240.22  29
  -3   6   7 11182.3 2307.74   4
  -3   6   6 79344.7 5881.01   4
  -3   6   5 75781.0 5616.02   4
  -3   6   4 7885.73 1799.71   4
  -3   6   3 3881.17 1204.69   4
  -3   6   2 72269.5 5287.52   4
  -3   6   2 73003.4 6009.72   2
  -3   6   1 52372.4 5023.19   2
  -3   6   0 4828.75 1515.91   2
  -3   6  -1 5487.66 1633.64   2
  -3   6  -2 5140.15 1621.37   2
   3  -6   3 7146.80 2524.56   7
  -3   6  -3 5636.00 1700.86   2
   3  -6   4 1008.80 1019.49   7
  -3   6  -4 686.086 613.108   2
  -3   6  -5 4537.90 676.548  11
   3  -6   5 1926.70 1392.52   7
  -3   6  -5 3021.37 1439.68   2
  -3   6  -6 11866.0 1158.46  11
   3  -6   6 13188.3 1566.99  12
   3  -6   6 13559.7 3632.74   7
  -3   6  -6 12390.5 2772.69   2
   3  -6   7 3891.01 861.050  12
  -3   6  -7 2414.59 585.914  11
  -3   6  -8 3283.96 725.087  11
   3  -6   8 5305.65 993.137  12
  -3   6  -9 9277.16 1087.37  11
   3  -6   9 10051.0 1387.93  12
  -3   6 -10 33535.1 2056.62  11
   3  -6  10 41712.8 2702.33  12
  -3   6 -11 3226.69 566.054  21
  -3   6 -11 1541.58 486.693  11
  -3   6 -12 1555.08 416.730  11
   3  -6  12 4775.16 838.134  27
   3  -6  13 11028.9 1169.18  27
   3  -6  14 425.547 218.299  27
   3  -5 -17 202.680 130.953  23
   3  -5 -16 19706.7 1516.90  23
   3  -5 -15 18463.6 1581.37  23
  -3   5  14 7725.23 1219.69  17
   3  -5 -14 8916.97 1165.92  23
  -3   5  13 34511.6 2615.74  17
   3  -5 -13 34096.3 2365.72  23
  -3   5  12 28847.5 2376.56  17
  -3   5  12 23273.1 1701.75  29
   3  -5 -12 25595.7 2029.54  23
  -3   5  11 20503.7 2030.44  17
  -3   5  11 18554.6 1575.61  29
  -3   5  11 17144.5 1477.64  26
  -3   5  10 6985.95 1171.29  17
  -3   5  10 5787.59 873.329  29
  -3   5  10 5485.88 806.444  26
  -3   5   9 38004.3 2663.49  17
  -3   5   9 30202.4 4023.27   4
  -3   5   9 31154.3 1985.87  29
  -3   5   9 28218.4 1760.82  26
  -3   5   8 28947.1 2327.84  17
  -3   5   8 23362.1 1659.60  29
  -3   5   8 21005.6 3146.82   4
  -3   5   7 11470.0 2250.53   4
  -3   5   6 13998.0 2343.54   4
  -3   5   5 600.957 547.082   4
  -3   5   4 10293.6 1874.84   4
  -3   5   3 15326.1 2263.78   4
  -3   5   2 3443.48 1313.18   2
  -3   5   2 3012.72 992.643   4
  -3   5   1 106554. 6557.81   2
  -3   5   0 125761. 7110.00   2
  -3   5  -1 2376.88 1019.93   2
  -3   5  -2 57713.6 4920.25   2
   3  -5   3 78969.6 8544.69   7
  -3   5  -3 72485.2 5605.91   2
   3  -5   4 7259.41 3374.00   7
  -3   5  -4 14202.6 2542.86   2
   3  -5   5 1402.70 1027.96   7
  -3   5  -5 1432.75 847.709   2
  -3   5  -6 11195.4 1195.99  11
   3  -5   6 16131.5 3775.70   7
  -3   5  -6 11900.0 2578.73   2
   3  -5   7 919.711 915.190   7
   3  -5   7 364.386 262.413  12
  -3   5  -7 237.609 193.821  11
   3  -5   8 12760.2 1482.81  12
  -3   5  -8 861.032 522.748  11
  -3   5  -9-54.7797 114.707  11
   3  -5   9 347.234 282.356  12
  -3   5 -10 1495.19 484.154  11
  -3   5 -11 33672.1 1955.41  21
  -3   5 -11 16800.3 1525.75  11
   3  -5  12 5438.62 948.259  27
  -3   5 -12 2573.24 571.777  11
   3  -5  13 7048.25 1017.73  27
  -3   5 -13 1479.01 493.895  11
   3  -5  14 7704.54 946.416  27
  -3   5 -14 742.727 276.087  11
   3  -5  15 7445.68 809.175  27
   3  -4 -17 2008.85 428.730  23
   3  -4 -16 9486.64 1046.44  23
   3  -4 -15 4155.28 768.812  23
   3  -4 -14 4239.85 854.532  23
  -3   4  14 4262.56 913.888  17
  -3   4  14 4508.66 777.111  26
  -3   4  13 2851.24 914.759  17
  -3   4  13 4736.64 787.018  26
  -3   4  12 680.803 376.878  17
  -3   4  12 1515.18 430.721  26
  -3   4  11 21201.1 2123.12  17
  -3   4  11 19419.5 1565.10  29
  -3   4  11 19149.3 1553.04  26
  -3   4  10 32777.5 2506.04  17
  -3   4  10 29568.7 1921.78  29
  -3   4  10 25605.1 1702.63  26
  -3   4  10 25768.9 3764.86   4
  -3   4   9 28604.6 2404.49  17
  -3   4   9 21591.9 3286.84   4
  -3   4   9 21314.3 1487.90  26
  -3   4   8 100183. 6671.20   4
  -3   4   7 116387. 6769.97   4
  -3   4   6 99064.9 5921.39   4
  -3   4   5 16622.3 2311.88   4
  -3   4   5 16259.9 2225.61   1
  -3   4   4 66542.2 4459.05   4
  -3   4   4 65132.1 4449.41   1
  -3   4   3 30797.8 2935.72   4
  -3   4   3 30287.3 3044.98   1
  -3   4   2 656.968 430.031   2
  -3   4   2 637.209 502.628   1
  -3   4   2 815.846 527.993   4
  -3   4   1 37168.1 3513.82   1
  -3   4   1 34927.7 3071.50   4
  -3   4   1 41866.4 3734.15   2
  -3   4   0 543.231 446.141   2
  -3   4  -1 22025.6 2728.00   2
  -3   4  -2 56797.0 4396.11   2
  -3   4  -3 8671.11 1764.24   2
   3  -4   4 87435.9 8073.32   7
  -3   4  -4 92454.1 5981.10   2
   3  -4   5 36547.4 5558.83   7
  -3   4  -5 52729.5 4773.92   2
   3  -4   6 4178.80 1758.02   7
  -3   4  -6 3221.74 1220.84   2
  -3   4  -7 25910.6 1756.89  11
   3  -4   7 27544.3 4679.36   7
  -3   4  -8 57839.7 2623.54  11
   3  -4   8 56868.2 6971.21   7
  -3   4  -9 18371.3 1517.25  11
  -3   4 -10 2785.37 651.131  11
   3  -4  11 9800.38 1319.31  27
  -3   4 -11 11315.2 1243.81  11
   3  -4  12 1325.41 489.855  27
  -3   4 -12 1260.04 408.839  11
   3  -4  13 2315.58 587.275  27
  -3   4 -13 59.3774 114.177  11
   3  -4  14 712.943 333.510  27
  -3   4 -14 159.034 80.9418  11
   3  -4  15 3225.68 595.332  27
  -3   4 -15 84.1578 106.990  11
   3  -3 -17 23983.9 1438.17  23
   3  -3 -17 13571.8 1064.33  11
   3  -3 -16 20736.7 1525.92  23
  -3   3  15 4562.64 729.506  26
   3  -3 -15 3910.25 778.358  23
   3  -3 -14 61385.5 3149.34  23
  -3   3  14 55247.8 3373.59  17
  -3   3  14 65396.0 2937.17  26
  -3   3  13 91219.3 4555.03  17
  -3   3  13 93949.9 3534.72  26
  -3   3  12 5639.55 1228.72  17
  -3   3  12 5387.48 825.651  26
  -3   3  11 62083.2 3525.03  17
  -3   3  11 51170.3 2512.63  26
  -3   3  10 12440.6 1563.17  17
  -3   3  10 9172.27 1015.43  26
  -3   3  10 10061.4 2341.10   4
  -3   3   9 2305.89 706.674  17
  -3   3   9 1697.71 868.363   4
  -3   3   9 1849.79 436.707  26
  -3   3   8 48702.2 4544.50   4
  -3   3   7 149.832 389.704   4
  -3   3   6 30604.9 2821.93   1
  -3   3   6 33556.0 3267.96   4
  -3   3   5 94939.3 4981.19   1
  -3   3   5 95086.6 5220.24   4
  -3   3   4 2015.06 746.221   4
  -3   3   4 1001.12 504.693   1
  -3   3   3 155885. 6446.74   1
  -3   3   3 161018. 6160.21   4
  -3   3   2 141023. 5627.46   4
  -3   3   2 132250. 5955.96   1
  -3   3   1 83804.8 4341.43   4
  -3   3   1 81305.5 4693.97   1
  -3   3   1 91957.9 5030.04   2
  -3   3   0 43507.4 3386.51   2
  -3   3   0 38442.6 3281.11   1
  -3   3  -1 86138.7 4714.78   2
  -3   3  -1 74935.1 4802.98   1
  -3   3  -2 37148.8 3172.76   2
  -3   3  -3 1035.39 462.010   2
   3  -3   4 16461.3 3182.23   7
  -3   3  -4 15487.8 2231.38   2
   3  -3   5 1703.35 1366.82   7
  -3   3  -5 5507.63 1371.07   2
   3  -3   6 746.963 800.173   7
  -3   3  -6 164.185 223.004   2
   3  -3   7 45183.7 5556.87   7
  -3   3  -8 22293.4 1568.71  11
   3  -3   8 23156.9 4136.24   7
  -3   3  -9 48209.2 2444.10  11
   3  -3   9 38458.7 5831.78   7
  -3   3 -10 57893.6 2709.48  11
   3  -3  11 1106.19 427.141  27
  -3   3 -11 1142.97 418.481  11
   3  -3  12 36494.2 2523.17  27
  -3   3 -12 41921.7 2381.48  11
   3  -3  13 44164.8 2691.53  27
  -3   3 -13 48599.1 2576.23  11
   3  -3  14 5609.79 909.707  27
  -3   3 -14 5923.90 866.892  11
   3  -3  15 1997.22 493.400  27
  -3   3 -15 145.863 173.716  11
  -3   3 -16 227.863 141.699  11
   3  -2 -17 12164.6 991.918  23
   3  -2 -17 12546.8 998.472  11
  -3   2  16 70.5774 68.3658  26
   3  -2 -16 147.465 149.861  23
  -3   2  15 5559.77 819.013  26
   3  -2 -15 4644.33 825.158  23
  -3   2  14 3028.35 880.637  17
  -3   2  14 4723.40 790.289  26
  -3   2  13 10656.8 1449.31  17
  -3   2  13 10021.9 1160.04  26
  -3   2  12 53172.0 3212.08  17
  -3   2  12 45217.1 2465.28  26
  -3   2  11 49600.0 3139.31  17
  -3   2  11 38506.7 2204.03  26
  -3   2  10 12486.7 1636.24  17
  -3   2  10 9305.23 2303.14   4
  -3   2  10 10598.3 1088.75  26
  -3   2   9 82916.6 6306.83   4
  -3   2   8 119697. 7058.46   4
  -3   2   7 13472.3 2213.62   4
  -3   2   6 53718.6 4091.14   4
  -3   2   6 55071.2 3784.42   1
  -3   2   5 64484.5 4081.65   4
  -3   2   5 62619.7 4015.05   1
  -3   2   4 4339.69 1006.70   4
  -3   2   4 4690.55 1093.16   1
  -3   2   3 44284.4 2999.47   4
  -3   2   3 45136.6 3298.45   1
  -3   2   2 752.545 443.293   1
  -3   2   2 627.004 307.889   4
  -3   2   1 8071.58 1375.62   1
  -3   2   1 7196.94 1163.19   4
  -3   2   0 242115. 6577.11   4
  -3   2   0 239355. 7691.39   1
  -3   2  -1 8783.53 1488.75   1
  -3   2  -1 9248.16 1352.50   2
  -3   2  -2 90031.5 4267.53   2
  -3   2  -2 92411.8 4894.41   1
   3  -2   3 161661. 8676.46   7
  -3   2  -3 100515. 4799.51   2
   3  -2   4 48167.6 5404.64   7
  -3   2  -4 56767.0 3757.39   2
   3  -2   5 25982.5 4016.28   7
  -3   2  -5 40705.3 3366.59   2
   3  -2   6 119370. 8106.75   7
  -3   2  -6 114354. 6079.83   2
   3  -2   7 132352. 8894.90   7
   3  -2   8 719.943 706.596   7
  -3   2  -9 23593.4 1624.63  11
   3  -2   9 19576.1 3781.11   7
  -3   2 -10 14337.7 1299.06  11
  -3   2 -11 268.554 196.053  11
   3  -2  11 447.839 254.842  27
  -3   2 -12 15037.4 1402.65  11
   3  -2  12 11797.1 1410.65  27
  -3   2 -13 9586.99 1119.58  11
   3  -2  13 7606.87 1138.05  27
  -3   2 -14 13851.5 1447.89  11
   3  -2  14 14040.4 1466.35  27
  -3   2 -15 14361.1 1337.19  11
   3  -2  15 15524.3 1449.99  27
  -3   2 -16 447.591 254.628  11
   3  -1 -17 3094.09 459.990  11
  -3   1  17 2829.02 480.577  26
   3  -1 -16 25756.2 1603.42  23
  -3   1  16 30748.5 1791.38  26
   3  -1 -15 24383.6 1783.41  23
  -3   1  15 28424.6 1868.20  26
  -3   1  14 10041.7 1161.23  26
  -3   1  14 5108.13 1208.95  17
  -3   1  13 2303.19 550.519  26
  -3   1  13 936.598 575.652  17
  -3   1  12 43762.4 2466.25  26
  -3   1  12 51587.3 3128.40  17
  -3   1  11 225.393 174.890  26
  -3   1  11 483.493 433.321  17
  -3   1  11 384.236 183.206  15
  -3   1  10 723.408 635.495   7
  -3   1  10 259.872 167.020  26
  -3   1  10 119.626 213.855  17
  -3   1  10 119.940 91.1337  15
  -3   1  10 620.024 585.397   4
  -3   1   9 5713.11 1748.79   7
  -3   1   8 7126.36 1793.23   7
  -3   1   7 88410.9 5584.71   7
  -3   1   6 32350.7 3088.70   4
  -3   1   6 35052.5 3023.99   1
  -3   1   5 80000.1 4498.71   4
  -3   1   5 79850.5 4512.39   1
  -3   1   4 207771. 6545.59   4
  -3   1   4 208109. 7033.22   1
  -3   1   3 177342. 5559.21   4
  -3   1   3 183785. 6504.59   1
  -3   1   2 5008.43 870.499   4
  -3   1   2 4607.77 1049.74   1
  -3   1   1 184355. 4926.13   4
  -3   1   1 181645. 6222.81   1
  -3   1   0 102076. 3620.25   4
  -3   1   0 102122. 4666.78   1
  -3   1  -1 65952.2 3775.11   1
  -3   1  -1 63587.4 3053.83   2
  -3   1  -2 286.483 228.891   2
  -3   1  -2 265.640 241.180   1
   3  -1   3 264.625 376.940   7
  -3   1  -3 480.241 311.821   2
  -3   1  -3 873.241 498.584   1
   3  -1   4 17997.4 2785.29   7
  -3   1  -4 19848.2 1916.75   2
  -3   1  -4 19752.9 2231.67   1
   3  -1   5 130012. 7531.84   7
  -3   1  -5 105774. 4755.34   2
   3  -1   6 481.213 352.297   7
  -3   1  -6 39.2137 284.644   2
   3  -1   7 54665.1 5315.86   7
   3  -1   8 139767. 9132.40   7
  -3   1  -9 14039.1 1233.56  11
   3  -1   9 11342.3 2736.01   7
  -3   1 -10 51459.3 2470.21  11
   3  -1  10 42686.1 5469.52   7
   3  -1  10 48282.4 2633.33  27
   3  -1  11 68353.0 3274.25  27
  -3   1 -11 72359.9 3047.86  11
   3  -1  12 59432.8 3122.65  27
  -3   1 -12 66504.2 2973.79  11
   3  -1  13 1500.62 506.655  27
  -3   1 -13 1598.30 441.221  13
  -3   1 -13 1606.33 500.705  11
   3  -1  14 15441.3 1565.72  27
  -3   1 -14 14764.0 1222.96  13
  -3   1 -14 15354.5 1504.98  11
   3  -1  15 25016.5 1888.13  27
  -3   1 -15 22499.1 1865.33  11
  -3   1 -16-145.184 183.429  11
  -3   1 -17 212.713 148.550  11
  -3   0  17 2649.61 460.960  26
   3   0 -17 2242.31 381.625  11
  -3   0  16 3945.78 631.568  26
   3   0 -16 3289.19 551.509  11
  -3   0  15 7031.56 925.584  26
   3   0 -15 4787.84 758.795  23
  -3   0  14 70086.6 3132.44  26
  -3   0  13 4162.84 1006.06  17
  -3   0  13 6171.68 834.696  15
  -3   0  13 6461.70 955.495  26
  -3   0  12 4061.65 946.055  17
  -3   0  12 4897.51 736.296  15
  -3   0  12 4908.75 842.388  26
  -3   0  11 75946.9 2900.98  15
  -3   0  11 77769.0 3243.98  26
  -3   0  10 94739.4 3132.69  15
  -3   0  10 74782.2 6557.00   7
  -3   0   9 48968.1 4967.39   7
  -3   0   8 826.795 811.221   7
  -3   0   7 83716.9 5433.28   7
  -3   0   6 31295.8 2971.01   7
  -3   0   6 26630.1 2748.56   1
  -3   0   5 919.092 398.123   7
  -3   0   5 821.835 462.381   1
  -3   0   4 6636.73 1284.94   1
  -3   0   3 32281.8 2706.37   1
  -3   0   3 32799.6 2284.23   4
  -3   0   2 42091.4 3024.87   1
  -3   0   2 39847.1 2212.08   4
  -3   0   1 136287. 3656.32   4
  -3   0   1 137077. 5389.59   1
  -3   0   0 3274.88 542.708   4
  -3   0  -1 486816. 9765.77   1
  -3   0  -2 360607. 5286.34   2
  -3   0  -2 371061. 8490.30   1
   3   0   3 967.539 529.336   7
  -3   0  -3 1173.64 340.845   2
  -3   0  -3 1134.07 497.872   1
  -3   0  -4 153524. 5466.01   6
  -3   0  -4 148114. 4304.39   2
  -3   0  -4 158727. 5632.36   1
   3   0   5 26214.3 3148.13   7
  -3   0  -5 19866.5 2114.06   6
  -3   0  -5 25050.4 2325.74   1
  -3   0  -5 21805.1 1912.61   2
  -3   0  -6-1.69313 177.296   6
   3   0   6 98.7425 243.481   7
   3   0   7 42575.9 4559.91   7
   3   0   8 11999.6 2463.63   7
   3   0   9 1966.02 1047.94   7
   3   0  10 8524.29 2262.48   7
  -3   0 -10 9832.98 1069.67  11
   3   0  10 8733.02 1073.58  27
   3   0  11 1575.44 1021.07   7
  -3   0 -11 1957.91 487.078  11
   3   0  11 1666.92 504.256  27
  -3   0 -12 21297.0 1677.10  11
   3   0  12 20632.7 1804.28  27
  -3   0 -13 76311.1 3212.36  11
   3   0  13 73533.1 3440.45  27
  -3   0 -14 3635.67 773.246  11
   3   0  14 4953.13 882.941  27
  -3   0 -15 9940.32 1005.43  13
  -3   0 -15 9982.22 1273.58  11
   3   0  15 10168.3 1217.52  27
  -3   0 -16 17993.8 1221.91  13
  -3   0 -16 20905.0 1571.82  11
  -3   0 -17 19861.6 1437.24  11
  -3  -1  17 24193.5 1314.20  26
   3   1 -16 3656.16 551.122  11
  -3  -1  16 4289.56 643.081  26
   3   1 -15 3687.21 588.422  11
  -3  -1  15 3396.39 632.365  26
  -3  -1  14 1017.34 401.641  26
  -3  -1  13 530.831 248.762  15
  -3  -1  13 519.514 292.611  26
  -3  -1  12 2728.29 575.028  15
  -3  -1  12 2897.91 668.395  26
  -3  -1  11 1414.69 498.462  17
  -3  -1  11 854.895 317.141  15
  -3  -1  10 18214.5 1831.10  17
  -3  -1  10 11601.7 1133.12  15
  -3  -1   9 58954.3 2415.53  15
  -3  -1   9 62176.3 5669.27   7
  -3  -1   8 22773.9 3173.52   7
  -3  -1   8 21939.5 2860.41   5
  -3  -1   7 432.767 408.641   7
  -3  -1   7 452.884 458.781   5
  -3  -1   6 155855. 6805.85   7
  -3  -1   6 150082. 6745.86   5
  -3  -1   5 85094.9 4427.05   7
  -3  -1   5 80167.2 4693.54   5
  -3  -1   4 52796.0 3102.71   7
  -3  -1   4 54578.7 3686.54   5
  -3  -1   3 41880.7 3088.73   5
  -3  -1   2 64833.1 3657.68   5
  -3  -1   1 103717. 4348.58   5
  -3  -1   1 93463.8 2649.05   4
  -3  -1   0 7299.78 1102.77   5
  -3  -1   0 6542.00 529.575   4
  -3  -1  -1 24726.0 2107.01   6
  -3  -1  -1 20975.9 2001.26   1
   3   1   2 16529.7 2173.26   7
  -3  -1  -2 23642.9 2022.33   6
  -3  -1  -2 21155.7 2009.13   1
   3   1   3 16586.3 1894.95   7
  -3  -1  -3 13229.2 1523.52   6
  -3  -1  -3 11645.2 1457.86   1
  -3  -1  -4 3230.29 791.172   6
   3   1   4 2807.21 898.292   7
  -3  -1  -4 3039.61 726.159   1
  -3  -1  -5 25197.1 2259.26   6
   3   1   5 25085.5 2755.61   7
  -3  -1  -5 25995.8 2113.44   1
  -3  -1  -6 63765.4 3689.20   6
   3   1   6 59084.6 4502.34   7
   3   1   7 17237.6 2646.93   7
  -3  -1  -7 23386.7 2315.01   6
   3   1   8 992.573 878.455   7
   3   1   9 58383.4 5347.19   7
  -3  -1 -10 82410.5 3116.03  11
   3   1  10 79191.6 3127.13  27
   3   1  11 14249.2 3011.46   7
  -3  -1 -11 15542.5 1378.33  11
   3   1  11 15678.4 1481.81  27
  -3  -1 -12 2131.75 544.146  11
   3   1  12 1813.52 512.697  27
  -3  -1 -13 14107.8 1362.07  11
   3   1  13 12974.7 1422.38  27
  -3  -1 -14 2415.32 547.885  11
   3   1  14 1969.57 558.263  27
  -3  -1 -15 6295.26 913.424  11
  -3  -1 -16 880.428 350.696  11
  -3  -1 -16 759.136 277.671  13
  -3  -1 -17 4731.59 603.318  13
  -3  -1 -17 5219.82 752.803  11
   3   1  17 3961.37 659.964  25
  -3  -1 -18 8576.65 850.991  11
   3   1  18 5453.13 652.738  25
  -3  -2  16 34921.5 1788.97  26
  -3  -2  15 27667.4 1832.74  26
  -3  -2  14 1474.14 473.791  26
  -3  -2  14 1514.06 383.210  15
  -3  -2  13 14587.5 1326.87  15
  -3  -2  13 15384.1 1541.67  26
  -3  -2  12 75775.2 3067.29  15
  -3  -2  11 12237.0 1236.49  15
  -3  -2  10 73.8151 117.847  15
  -3  -2   9 14357.4 1258.94  15
  -3  -2   8 453.470 185.454   5
  -3  -2   7 1808.34 868.490   7
  -3  -2   7 1330.61 812.477   5
  -3  -2   6 14749.5 2189.32   7
  -3  -2   6 13729.8 2236.24   5
  -3  -2   5 128405. 5640.76   7
  -3  -2   5 127994. 6542.75   5
  -3  -2   4 74613.5 3649.05   7
  -3  -2   4 73729.2 4724.49   5
  -3  -2   3 27209.8 1911.02   7
  -3  -2   3 29243.5 2855.48   5
  -3  -2   2 6696.41 1321.96   5
  -3  -2   1 177623. 6241.22   5
  -3  -2   0 4625.70 1074.98   6
  -3  -2   0 6408.33 1080.53   5
   3   2   1 17249.7 960.246   7
  -3  -2  -1 18734.1 1822.32   6
   3   2   1 17126.5 718.218   2
  -3  -2  -1 19526.5 1798.15   5
  -3  -2  -2 123480. 4177.63   5
  -3  -2  -2 121045. 4657.54   6
   3   2   2 114638. 3318.45   7
  -3  -2  -2 113315. 4579.98   1
   3   2   3 54720.4 2747.74   7
  -3  -2  -3 58398.2 3405.69   6
  -3  -2  -4 33834.7 2705.32   6
   3   2   4 27499.9 2248.64   7
  -3  -2  -4 30169.7 2260.86   1
  -3  -2  -5 18203.3 2075.07   6
   3   2   5 16078.5 1950.03   7
  -3  -2  -5 17919.6 1678.67   1
  -3  -2  -6 6588.08 1258.50   6
   3   2   6 5880.97 1277.40   7
   3   2   7 9664.88 1821.99   7
  -3  -2  -7 12729.2 1824.15   6
   3   2   8 1484.48 716.163   7
  -3  -2  -8 1211.66 532.787   6
   3   2   9 12310.0 2319.77   7
   3   2  10 41982.0 4513.56   7
   3   2  11 40222.0 4713.74   7
  -3  -2 -11 44114.5 2363.19  11
   3   2  11 41397.2 2323.85  27
  -3  -2 -12 19241.9 1582.66  11
   3   2  12 17927.7 1597.96  27
  -3  -2 -13 20860.6 1686.61  11
   3   2  13 20496.4 1749.46  27
  -3  -2 -14 41592.9 2380.00  11
  -3  -2 -15 15911.9 1438.92  11
  -3  -2 -16 11.0626 122.374  11
  -3  -2 -16 198.185 214.005  13
  -3  -2 -17 910.325 327.716  11
  -3  -2 -17 1046.63 326.405  13
   3   2  17 641.257 274.216  25
  -3  -2 -18 2099.64 353.175  13
  -3  -2 -18 2569.87 499.093  11
   3   2  18 1961.84 402.354  25
  -3  -3  16-73.1797 131.116  26
  -3  -3  15 2593.03 532.825  26
  -3  -3  14 6961.30 969.805  26
  -3  -3  14 6815.33 837.936  15
  -3  -3  13 3849.05 678.172  15
  -3  -3  12 99.1207 148.471  15
  -3  -3  11 19398.9 1610.34  15
  -3  -3  10 67659.1 2916.91  15
  -3  -3   9 3273.62 779.102  12
  -3  -3   9 2996.45 569.322  28
  -3  -3   8 75257.2 3390.51  12
  -3  -3   8 75926.3 6062.52   5
  -3  -3   7 134434. 7952.53   5
  -3  -3   6 31437.5 3769.78   5
  -3  -3   5 554.011 479.683   5
  -3  -3   4 61225.3 4937.13   5
  -3  -3   3 6610.56 1651.48   5
  -3  -3   2 16442.4 2362.70   5
  -3  -3   1 22093.6 3021.32   6
  -3  -3   1 56747.1 4136.37   5
  -3  -3   0 43564.4 2766.14   6
  -3  -3   0 42089.5 3242.41   5
  -3  -3  -1 173430. 5669.02   6
  -3  -3  -1 186507. 6202.88   5
   3   3   2 112166. 1847.14   7
  -3  -3  -2 133723. 5308.77   6
  -3  -3  -2 129255. 4692.10   5
   3   3   2 116872. 2153.96   2
   3   3   3 1753.88 392.929   7
  -3  -3  -3 2125.30 778.916   6
  -3  -3  -3 1780.49 503.918   5
   3   3   3 1602.83 266.128   4
  -3  -3  -4 231338. 6389.57   1
   3   3   4 237117. 4432.09   4
   3   3   5 89864.3 4038.22   7
  -3  -3  -5 100182. 3979.87   1
   3   3   6 8901.73 1471.92   7
  -3  -3  -6 12975.3 2025.14   6
   3   3   7 57264.3 3960.61   7
  -3  -3  -7 6676.19 1912.90   6
  -3  -3  -8 32784.8 3444.15   6
   3   3   8 31724.4 3234.38   7
   3   3   9 21975.5 2882.34   7
  -3  -3  -9 24846.4 2973.69   6
   3   3  10 33087.4 3915.37   7
   3   3  11 7038.85 1864.14   7
  -3  -3 -11 7658.14 978.605  11
   3   3  11 7813.61 980.729  27
  -3  -3 -12 968.959 340.121  11
  -3  -3 -13 42.7160 186.768  11
  -3  -3 -14 3818.80 725.990  11
  -3  -3 -15 32166.2 2049.04  11
  -3  -3 -16 25353.4 1761.49  11
   3   3  16 24456.0 1809.18  25
  -3  -3 -17 14165.7 1204.00  13
  -3  -3 -17 14987.4 1275.65  11
   3   3  17 14283.3 1277.62  25
  -3  -3 -18 8436.78 783.756  13
  -3  -3 -18 8470.36 892.583  11
   3   3  18 7942.27 832.679  25
  -3  -4  15 399.856 226.751  26
  -3  -4  15 484.979 193.388  15
  -3  -4  14 42850.8 2334.46  26
  -3  -4  14 45107.5 2154.62  15
  -3  -4  13 39463.0 2187.04  15
  -3  -4  12 30.4161 147.475  15
  -3  -4  11 23307.0 1808.61  15
  -3  -4  10 8268.55 1240.20  12
  -3  -4   9 7091.20 988.353  28
  -3  -4   9 10318.5 1362.05  12
  -3  -4   8 7743.55 2038.65   5
  -3  -4   8 7450.17 1103.17  12
  -3  -4   7-483.045 538.637   5
  -3  -4   6 114304. 7977.55   5
  -3  -4   5 112147. 7757.11   5
  -3  -4   4 5651.25 1704.18   5
  -3  -4   3 80072.0 6364.07   5
  -3  -4   2 181291. 9408.81   5
  -3  -4   1 32533.8 2615.71   6
  -3  -4   1 39435.8 4185.36   5
  -3  -4   0 7747.21 1254.11   6
  -3  -4   0 9350.40 1941.27   5
   3   4   0 6824.35 1063.64   2
  -3  -4  -1 40723.4 3045.00   6
   3   4   1 38515.3 2280.24   2
  -3  -4  -2 38533.5 3337.92   6
   3   4   2 41894.6 2197.25   2
  -3  -4  -3 263.850 274.419   6
  -3  -4  -3 79.5220 173.466   5
   3   4   3 152.264 165.354   4
   3   4   4 9274.82 978.969   7
  -3  -4  -4 9462.47 1884.12   6
   3   4   4 8418.93 910.339   4
  -3  -4  -4 8735.58 1121.11   5
   3   4   5 18128.3 1622.84   7
  -3  -4  -5 21415.1 2831.57   6
  -3  -4  -5 17375.5 1745.38   1
   3   4   5 17939.9 1531.87   4
   3   4   6 31008.8 2442.37   7
  -3  -4  -6 38657.1 3968.14   6
   3   4   6 31402.9 2300.11   4
  -3  -4  -7 10025.7 2001.33   6
   3   4   7 6998.23 1289.54   7
   3   4   7 8249.20 1339.76   4
  -3  -4  -8 21023.1 3004.16   6
   3   4   8 18779.1 2323.69   7
  -3  -4  -9 64269.4 5462.18   6
   3   4   9 61605.9 4592.81   7
  -3  -4 -10 45288.6 4667.14   6
   3   4  10 110419. 6637.00   7
  -3  -4 -11 16.3002 193.464  11
  -3  -4 -11 520.638 302.867  23
   3   4  11 330.596 398.844   7
  -3  -4 -12 81350.4 3378.32  11
  -3  -4 -12 69406.0 3345.43  23
  -3  -4 -13 55665.0 2797.13  11
  -3  -4 -14 18129.1 1576.49  11
   3   4  14 14124.9 1482.92  25
  -3  -4 -15 7527.40 1001.42  11
   3   4  15 6469.85 967.248  25
  -3  -4 -16 2216.32 549.098  11
   3   4  16 2417.97 543.905  25
  -3  -4 -17 324.101 203.644  11
  -3  -4 -17 70.1599 127.454  13
   3   4  17 311.036 232.522  25
  -3  -4 -18 589.713 250.460  13
  -3  -4 -18 624.429 245.448  11
   3   4  18 610.122 189.259  25
  -3  -5  15 12982.5 1079.08  26
  -3  -5  14 293.716 189.522  15
  -3  -5  14 273.879 218.950  26
  -3  -5  13 8000.54 975.370  15
  -3  -5  12 48483.2 2557.41  15
  -3  -5  11 7098.03 999.048  15
  -3  -5  10-92.4371 223.034  12
  -3  -5   9 57153.2 3337.72  12
  -3  -5   8 11251.5 1413.71  12
  -3  -5   8 8086.97 2372.75   5
  -3  -5   7 775.291 630.453  19
  -3  -5   7 1508.60 506.345  18
  -3  -5   7 855.799 777.587   5
  -3  -5   7 1709.38 536.080  12
  -3  -5   6 53142.1 6020.70   5
  -3  -5   5 35936.6 5018.35   5
  -3  -5   4 4284.84 1846.76   5
  -3  -5   3 2904.10 1848.89   5
   3   5  -2 78914.9 4622.99   2
  -3  -5   1 96892.2 4413.72   6
   3   5  -1 81008.6 4341.74   2
  -3  -5   0 150640. 5763.69   6
   3   5   0 121421. 5301.51   2
  -3  -5  -1 7204.38 1483.73   6
   3   5   1 9453.89 1342.65   2
  -3  -5  -2 182536. 7466.19   6
   3   5   2 186150. 5604.84   2
  -3  -5  -3 374981. 11882.7   6
   3   5   3 364114. 7617.70   2
  -3  -5  -4 47825.4 4684.89   6
  -3  -5  -4 38421.1 2822.53   5
  -3  -5  -5 33752.0 4211.04   6
  -3  -5  -6 131993. 8513.57   6
   3   5   6 101489. 4391.88   7
   3   5   7 49757.6 3392.13   7
  -3  -5  -7 56532.3 5354.93   6
  -3  -5  -8 752.249 589.747   6
   3   5   8 886.182 493.800   7
   3   5   9 54078.4 4265.41   7
  -3  -5  -9 57955.0 5454.87   6
  -3  -5 -10 297.050 192.636  23
  -3  -5 -10 652.514 766.262   6
   3   5  10 758.943 539.866   7
   3   5  10 599.975 268.312  25
  -3  -5 -11 11458.0 1323.73  11
  -3  -5 -11 11874.6 1440.28  23
   3   5  11 13300.3 2405.18   7
   3   5  11 13241.5 1276.12  25
   3   5  12 3878.54 734.419  25
  -3  -5 -12 3935.47 849.437  23
  -3  -5 -12 2501.57 637.562  11
   3   5  13 41419.8 2426.54  25
  -3  -5 -13 34704.5 2406.05  23
  -3  -5 -13 38804.1 2366.69  11
   3   5  14 43061.5 2513.98  25
  -3  -5 -14 35185.2 2348.73  23
  -3  -5 -14 40785.9 2401.59  11
  -3  -5 -15 25377.4 1826.30  11
   3   5  15 26835.7 1944.15  25
  -3  -5 -16 1639.40 449.440  11
   3   5  16 1538.58 465.848  25
  -3  -5 -17 32076.1 1797.96  11
   3   5  17 31662.0 1874.11  25
  -3  -5 -18 38328.0 1807.49  13
   3   5  18 39345.7 1844.91  25
  -3  -6  14 2912.04 492.567  15
  -3  -6  14 2610.91 512.873  26
  -3  -6  13 1034.66 329.963  15
  -3  -6  12 742.852 318.187  15
  -3  -6  11 22.2288 168.144  15
  -3  -6  10 339.490 368.688  12
  -3  -6   9 3667.48 867.428  12
  -3  -6   8 11543.5 1763.29  19
  -3  -6   8 14555.3 1667.18  12
  -3  -6   7 75051.7 4693.59  19
  -3  -6   7 95858.5 4131.26  12
  -3  -6   7 89152.2 4072.62  18
   3   6  -7 79759.5 6802.53   2
  -3  -6   7 103598. 9148.24   5
  -3  -6   6 26707.5 2552.90  19
  -3  -6   6 32120.1 2338.20  18
  -3  -6   6 34100.9 5271.84   5
   3   6  -6 30174.2 3892.18   2
  -3  -6   6 29440.8 2243.73  12
  -3  -6   5 4175.69 2109.83   5
   3   6  -5 3875.62 1298.15   2
   3   6  -4 218150. 9312.03   2
  -3  -6   4 14455.9 4282.15   5
   3   6  -3 109671. 6200.47   2
   3   6  -2 12849.4 2147.78   2
  -3  -6   2 754.308 1240.85   5
  -3  -6   1 69008.7 3917.92   6
   3   6  -1 63083.4 4256.84   2
  -3  -6   0 65217.8 4099.10   6
   3   6   0 61245.3 4134.22   2
  -3  -6  -1 5852.92 1572.71   6
   3   6   1 7318.53 1335.75   2
  -3  -6  -2 5186.57 1442.46   6
   3   6   2 4318.21 1038.55   2
  -3  -6  -3 2104.36 1031.96   6
   3   6   3 1982.14 687.758   2
  -3  -6  -4 113732. 8294.39   6
  -3  -6  -4 130757. 6424.07   5
  -3  -6  -5 82509.4 8457.82   6
  -3  -6  -6 3072.88 1832.19   6
  -3  -6  -7 178231. 10882.2   6
  -3  -6  -8 191105. 10774.9   6
  -3  -6  -9 65709.1 6270.31   6
  -3  -6 -10 14599.1 1576.11  23
   3   6  10 13794.9 1258.77  25
  -3  -6 -10 15563.2 3039.63   6
  -3  -6 -11 125057. 4720.45  23
   3   6  11 129386. 4017.36  25
  -3  -6 -11 115562. 8546.44   6
   3   6  12 10366.1 1182.61  25
  -3  -6 -12 11104.7 1440.18  23
   3   6  13 9000.52 1123.18  25
  -3  -6 -13 7705.17 1154.89  23
  -3  -6 -13 8493.80 1078.65  11
   3   6  14 5744.82 896.777  25
  -3  -6 -14 5733.87 968.357  23
  -3  -6 -14 5351.12 845.272  11
   3   6  15 625.302 362.358  25
  -3  -6 -15 616.559 302.785  23
  -3  -6 -15 820.177 301.340  11
   3   6  16 7701.75 985.843  25
  -3  -6 -16 6326.45 888.998  23
  -3  -6 -16 7674.98 933.934  11
  -3  -6 -17 8885.42 912.204  11
   3   6  17 9387.00 1003.23  25
  -3  -6 -18 2848.20 490.398  13
   3   6  18 3002.64 504.292  25
  -3  -7  14 16074.1 1131.34  26
  -3  -7  13 14727.5 1191.67  15
  -3  -7  12 181.546 175.629  15
  -3  -7  11 22972.3 1781.56  15
  -3  -7  10 59510.1 3472.87  12
  -3  -7   9 18215.2 1942.41  12
  -3  -7   8 3344.55 817.842  12
  -3  -7   7 16881.6 1906.29  18
  -3  -7   7 16457.6 2140.24  19
  -3  -7   7 18930.7 1926.38  12
  -3  -7   6 4281.02 1020.09  19
  -3  -7   6 4228.07 892.488  12
  -3  -7   6 5087.67 970.539  18
  -3  -7   6 6060.75 2441.30   5
   3   7  -6 4617.77 1584.42   2
  -3  -7   5 451.681 363.077  19
  -3  -7   5 113.926 233.029  18
  -3  -7   5 294.629 605.772   5
   3   7  -5 313.629 402.298   2
  -3  -7   5 403.098 262.075  12
   3   7  -4 582.934 519.890   2
   3   7  -3 73179.3 5498.78   2
  -3  -7   3 1233.91 1055.20   5
   3   7  -2 76160.5 5420.75   2
   3   7  -1 35453.9 3562.22   2
  -3  -7   0 56753.6 4071.08   6
   3   7   0 55800.5 4287.58   2
  -3  -7  -1 111522. 7221.09   6
   3   7   1 218023. 8197.71   2
  -3  -7  -2 83455.5 5874.17   6
   3   7   2 83470.4 4949.68   2
  -3  -7  -3 2003.96 1023.58   6
   3   7   3 2322.98 828.766   2
  -3  -7  -4 67187.9 6431.68   6
  -3  -7  -8 4913.18 1979.53   6
   3   7   9 27702.0 1747.64  25
  -3  -7  -9 26686.5 2064.02  23
  -3  -7  -9 30768.3 4654.37   6
   3   7  10 12977.6 1240.84  25
  -3  -7 -10 13324.3 1537.28  23
  -3  -7 -10 14258.5 3150.01   6
   3   7  11 315.476 167.817  25
  -3  -7 -11 412.892 180.888  23
   3   7  12 64417.9 2935.25  25
  -3  -7 -12 63256.5 3446.14  23
   3   7  13 30070.7 2051.15  25
  -3  -7 -13 29088.5 2324.59  23
   3   7  14 4830.62 809.696  25
  -3  -7 -14 5664.77 999.475  23
   3   7  15 18713.4 1583.90  25
  -3  -7 -15 17370.5 1629.99  23
   3   7  16 51617.8 2495.08  25
  -3  -7 -16 45220.2 2437.38  23
   3   7  17 13018.7 1154.03  25
  -3  -7 -17 9344.03 1147.81  13
  -3  -7 -17 10975.3 1042.90  23
   3   7  18 222.239 130.495  25
  -3  -7 -18 329.033 147.843  13
  -3  -8  13-17.8990 98.1351  15
  -3  -8  12 9323.98 990.553  15
  -3  -8  11 465.568 274.548  15
  -3  -8  10 7569.89 1208.62  12
  -3  -8   9 59675.0 3472.59  12
  -3  -8   8 24328.8 2235.98  12
  -3  -8   7 4325.45 1030.71  18
  -3  -8   7 4882.36 1005.02  12
  -3  -8   6 35667.0 2737.31  18
  -3  -8   6 35073.1 3038.68  19
  -3  -8   6 30202.2 2462.06  12
  -3  -8   5 63357.5 3582.70  18
  -3  -8   5 68616.4 4073.35  19
  -3  -8   5 59431.4 3386.64  12
  -3  -8   4 17035.6 2000.01  19
  -3  -8   4 18188.8 1837.11  18
   3   8  -4 16688.9 3024.93   2
  -3  -8   4 18063.4 1809.02  12
  -3  -8   3-124.826 279.057  19
  -3  -8   3-276.639 277.947  18
  -3  -8   3 170.398 214.631  12
   3   8  -3-193.309 335.615   2
   3   8  -2 17516.0 2896.06   2
   3   8  -1 1757.57 894.930   2
   3   8   0 21.2832 119.973   2
  -3  -8  -1 164.296 282.736   6
   3   8   1 493.756 411.495   2
  -3  -8  -2 18007.1 2911.49   6
   3   8   2 14425.8 2502.20   2
  -3  -8  -3 13742.5 2690.23   6
  -3  -8  -4 11419.2 2827.39   6
  -3  -8  -5 16164.6 3575.26   6
  -3  -8  -7 19541.9 1671.04  23
   3   8   8 327.049 167.900  25
  -3  -8  -8 392.550 306.216  23
  -3  -8  -8 137.109 185.412  19
  -3  -8  -8-155.753 517.248   6
  -3  -8  -9 79537.8 3650.52  23
  -3  -8  -9 83708.7 8291.00   6
  -3  -8  -9 85928.3 4086.60  19
   3   8   9 77523.2 3003.50  25
  -3  -8 -10 10877.7 1454.80  19
   3   8  10 10835.0 1153.75  25
  -3  -8 -10 11693.5 1444.05  23
   3   8  11 1129.98 378.490  25
  -3  -8 -11 1772.69 544.925  23
   3   8  12 20891.3 1684.32  25
  -3  -8 -12 20688.1 1993.10  23
   3   8  13 2054.42 519.055  25
  -3  -8 -13 1941.34 599.355  23
   3   8  14 4271.72 756.867  25
  -3  -8 -14 4448.95 936.809  23
   3   8  15 11195.7 1215.02  25
  -3  -8 -15 9487.94 1228.11  23
   3   8  16 298.985 217.780  25
  -3  -8 -16 81.5941 87.2700  23
   3   8  17 30005.5 1741.64  25
  -3  -8 -17 27503.8 1676.91  23
  -3  -8 -17 33339.5 1783.89  13
  -3  -9  12 10646.8 937.290  15
  -3  -9  11 1939.10 466.828  15
  -3  -9  10 209.830 262.044  12
  -3  -9   9 631.719 417.067  12
  -3  -9   8 294.247 151.042  12
  -3  -9   7 8606.59 1436.42  18
  -3  -9   7 7422.77 1250.37  12
  -3  -9   6 3004.57 868.971  18
  -3  -9   6 2814.34 788.067  12
  -3  -9   5 40317.7 3021.45  18
  -3  -9   5 46978.7 3538.57  19
  -3  -9   5 38176.7 2807.19  12
  -3  -9   4 76201.1 3978.77  18
  -3  -9   4 82598.3 4480.35  19
  -3  -9   4 72708.4 3803.95  12
  -3  -9   3 30951.3 2714.42  19
  -3  -9   3 31024.2 2445.83  12
  -3  -9   3 29501.5 2430.97  18
   3   9  -3 28323.3 4071.14   2
  -3  -9   2 9421.94 1413.48  19
  -3  -9   2 8219.06 1254.38  12
  -3  -9   2 8480.07 1259.14  18
   3   9  -2 5812.02 1823.70   2
  -3  -9   1 40519.4 2741.18  18
   3   9  -1 37383.7 4367.32   2
  -3  -9   1 40912.5 2907.54  19
  -3  -9   0 53957.6 3428.96  18
   3   9   0 50907.2 4954.92   2
  -3  -9   0 61831.9 3469.47  19
  -3  -9  -1 623.941 375.580  19
   3   9   1 1045.98 685.172   2
  -3  -9  -2 6173.02 1046.64  19
  -3  -9  -3 18892.7 1817.52  19
  -3  -9  -3 18279.0 3305.02   6
  -3  -9  -4 8406.30 1226.77  19
  -3  -9  -4 9641.16 2587.52   6
  -3  -9  -5 1880.67 1181.87   6
  -3  -9  -5 669.035 248.521  23
  -3  -9  -5 668.302 428.297  19
  -3  -9  -6 649.072 766.842   6
  -3  -9  -6 92.5727 152.449  19
  -3  -9  -6 151.242 95.9966  23
  -3  -9  -7 22729.7 1884.53  23
  -3  -9  -7 24997.5 2217.68  19
  -3  -9  -8 25163.3 2252.67  19
  -3  -9  -8 21823.1 1914.31  23
  -3  -9  -9 445.827 338.993  19
  -3  -9  -9 121.511 159.192  23
  -3  -9 -10 7712.97 1240.57  19
  -3  -9 -10 7197.90 1160.90  23
   3   9  10 6453.74 983.945  25
  -3  -9 -11 47437.3 3136.37  19
   3   9  11 43342.9 2438.55  25
  -3  -9 -11 45788.3 2991.34  23
   3   9  12 5557.73 887.561  25
  -3  -9 -12 4915.32 994.069  23
   3   9  13 8189.69 1083.92  25
  -3  -9 -13 7334.78 1177.85  23
   3   9  14 19888.1 1623.12  25
  -3  -9 -14 21328.9 1940.31  23
   3   9  15 4571.88 790.483  25
  -3  -9 -15 4560.02 836.013  23
  -3  -9 -16 658.590 298.598  23
  -3  -9 -16 889.234 316.616  13
  -3  -9 -17 7117.18 843.478  23
  -3  -9 -17 7809.09 776.623  13
  -3 -10  11 20960.6 1317.10  15
  -3 -10  10 31391.5 1828.79  15
  -3 -10   9 330.394 240.467  12
  -3 -10   8 7915.09 1194.76  12
  -3 -10   7 38262.3 2754.76  12
  -3 -10   7 42131.9 3063.73  18
  -3 -10   6 1465.24 512.756  12
  -3 -10   6 1833.30 710.738  18
  -3 -10   5 588.532 411.727  19
  -3 -10   5-170.597 264.124  12
  -3 -10   5 352.562 391.345  18
  -3 -10   4 3040.07 887.941  19
  -3 -10   4 2894.49 774.488  12
  -3 -10   4 3312.95 853.069  18
  -3 -10   3 62.3884 227.770  19
  -3 -10   3 296.915 252.652  12
  -3 -10   3 554.415 407.076  18
  -3 -10   2 19343.9 2146.69  19
  -3 -10   2 20140.0 2033.01  12
  -3 -10   2 19746.1 2036.42  18
  -3 -10   1 1365.14 524.640  19
  -3 -10   1 1580.79 555.297  18
  -3 -10   0 23177.4 2290.16  19
  -3 -10   0 15758.4 2057.82  18
  -3 -10  -1 43452.8 3108.76  19
  -3 -10  -1 17901.9 1949.20  18
  -3 -10  -2 7962.78 1341.60  19
  -3 -10  -3 15399.4 1450.35  23
  -3 -10  -3 17221.0 1932.26  19
  -3 -10  -4 143634. 5403.42  19
  -3 -10  -4 150277. 10160.1   6
   3  10   4 132437. 7337.74   3
  -3 -10  -5 68815.6 3707.01  19
  -3 -10  -5 57228.6 2937.53  23
   3  10   5 66477.8 5421.89   3
  -3 -10  -6-295.839 249.773  23
  -3 -10  -6 765.554 820.525   6
  -3 -10  -6-135.449 192.966  19
   3  10   6 1035.07 702.304   3
  -3 -10  -7 10448.5 1320.99  23
  -3 -10  -7 9913.03 1482.57  19
  -3 -10  -8 18634.9 1801.11  23
  -3 -10  -8 18606.3 2072.75  19
  -3 -10  -9 1799.76 678.455  19
  -3 -10  -9 1793.29 564.644  23
  -3 -10 -10 6376.40 1121.78  23
  -3 -10 -10 6305.12 1189.91  19
  -3 -10 -11 79.3674 158.110  23
  -3 -10 -11-42.3184 145.708  19
  -3 -10 -12 2278.81 679.144  23
  -3 -10 -12 1757.45 581.990  19
  -3 -10 -13 9612.78 1337.27  23
  -3 -10 -14-18.7058 176.103  23
  -3 -10 -15 35762.2 2281.70  23
  -3 -10 -16 26069.8 1772.38  23
  -3 -10 -17 5247.82 682.832  23
  -3 -11  10 180.389 149.149  15
  -3 -11   9 9096.93 958.121  15
  -3 -11   9 10098.5 1151.88  12
  -3 -11   8 9447.89 1202.99  12
  -3 -11   7 3510.43 776.090  12
  -3 -11   6 31783.6 2479.24  12
  -3 -11   6 33001.4 2727.97  18
  -3 -11   5 43689.5 2981.54  12
  -3 -11   5 47755.6 3309.42  18
  -3 -11   4 310.921 270.872  19
  -3 -11   4 37.6337 293.084  12
  -3 -11   4 199.681 358.091  18
  -3 -11   3 28525.5 2690.00  19
  -3 -11   3 24092.8 2261.22  12
  -3 -11   3 25354.7 2427.69  18
  -3 -11   2 41206.3 3231.60  19
  -3 -11   2 40539.8 2940.11  12
  -3 -11   2 39442.2 3009.84  18
  -3 -11   1 2764.45 761.687  18
  -3 -11   1 2909.33 828.196  19
  -3 -11   0 69.8965 265.222  19
  -3 -11   0 153.990 254.504  18
  -3 -11  -1 13710.7 1799.53  19
  -3 -11  -1 12734.0 1711.26  18
  -3 -11  -2 7636.14 1349.39  19
  -3 -11  -3 34524.8 2809.95  19
  -3 -11  -4 471.007 269.634  23
  -3 -11  -4-137.669 179.730  19
  -3 -11  -5 10332.7 1281.90  23
  -3 -11  -5 11439.0 1601.03  19
  -3 -11  -6 61805.8 3205.74  23
  -3 -11  -6 67835.2 3958.16  19
  -3 -11  -7 732.860 366.866  23
  -3 -11  -7 264.562 360.010  19
  -3 -11  -8 7776.50 1172.24  23
  -3 -11  -8 7136.99 1287.81  19
  -3 -11  -9 38018.8 2665.63  23
  -3 -11  -9 40390.1 3028.60  19
  -3 -11 -10 20160.1 1944.44  23
  -3 -11 -10 19001.1 2077.26  19
  -3 -11 -11 136.228 170.792  23
  -3 -11 -11 286.353 288.103  19
  -3 -11 -12 22726.6 2045.22  23
  -3 -11 -12 22958.0 2187.40  19
  -3 -11 -13 34599.1 2414.77  23
  -3 -11 -13 29913.1 2290.18  19
  -3 -11 -14 1819.28 519.259  23
  -3 -11 -15 272.460 174.740  23
  -3 -11 -16 139.288 169.828  23
  -3 -12   8 6825.30 785.966  15
  -3 -12   8 7191.99 927.593  12
  -3 -12   7 191.263 217.731  12
  -3 -12   6 7574.71 1100.46  12
  -3 -12   6 7791.67 1246.65  18
  -3 -12   5 16.4809 132.610  12
  -3 -12   5 147.140 403.300  18
  -3 -12   4 8584.31 1276.53  12
  -3 -12   4 7608.09 1429.37  18
  -3 -12   3 11584.6 1689.72  19
  -3 -12   3 10633.2 1456.08  12
  -3 -12   3 9301.97 1525.69  18
  -3 -12   2 4035.46 1031.62  19
  -3 -12   2 3593.77 872.628  12
  -3 -12   2 3787.55 940.243  18
  -3 -12   1 65910.1 3918.00  18
  -3 -12   1 68108.4 4173.66  19
  -3 -12   0 55923.4 3630.27  18
  -3 -12   0 54638.3 3760.90  19
  -3 -12  -1-38.6727 288.685  19
  -3 -12  -1-7.59069 242.851  18
  -3 -12  -2 58410.3 4052.68  18
  -3 -12  -2 67628.1 4190.20  19
  -3 -12  -3 39801.6 3141.76  19
  -3 -12  -4 1117.31 560.326  19
  -3 -12  -5 10009.1 1238.45  23
  -3 -12  -5 9947.19 1649.42  19
  -3 -12  -6 22993.8 1926.75  23
  -3 -12  -6 23836.9 2429.20  19
  -3 -12  -7 5802.52 976.074  23
  -3 -12  -7 6126.41 1253.81  19
  -3 -12  -8 3140.04 953.179  19
  -3 -12  -8 3616.75 809.169  23
  -3 -12  -9 69.4562 143.340  19
  -3 -12  -9 204.488 240.947  23
  -3 -12 -10 8709.10 1228.71  23
  -3 -12 -10 8771.90 1422.16  19
  -3 -12 -11 49441.9 2918.97  23
  -3 -12 -11 49274.1 3214.86  19
  -3 -12 -12 2361.78 682.662  19
  -3 -12 -12 3774.85 797.601  23
  -3 -12 -13 20184.4 1730.06  23
  -3 -12 -13 18390.0 1780.38  19
  -3 -12 -14 79493.3 3234.33  23
  -3 -12 -14 22576.9 2741.40  17
  -3 -12 -15 15950.3 1322.33  23
  -3 -12 -15 2229.40 652.375  17
  -3 -12 -16 224.852 124.210  23
  -3 -13   6 5215.09 673.052  15
  -3 -13   6 5961.42 844.762  12
  -3 -13   5 8229.27 1083.01  12
  -3 -13   5 7527.43 1209.10  18
  -3 -13   4 39114.4 2481.79  12
  -3 -13   4 46157.5 2970.50  18
  -3 -13   3 29230.8 2226.02  12
  -3 -13   3 30163.9 2533.75  18
  -3 -13   2 1607.74 673.534  19
  -3 -13   2 1404.89 565.611  18
  -3 -13   1 10159.8 1563.37  19
  -3 -13   1 9906.95 1516.71  18
  -3 -13   0 3574.20 985.945  19
  -3 -13   0 3000.83 953.032  18
  -3 -13  -1 1263.32 638.724  19
  -3 -13  -1 1376.33 593.249  18
  -3 -13  -2 8037.79 1341.67  18
  -3 -13  -2 6708.73 1287.68  19
  -3 -13  -3 894.753 479.416  19
  -3 -13  -3 538.852 396.948  18
  -3 -13  -4 44255.6 3352.37  19
  -3 -13  -4 46444.7 3359.01  18
  -3 -13  -5 34623.8 2932.37  19
  -3 -13  -6 324.289 328.303  19
  -3 -13  -7 50110.7 2762.78  23
  -3 -13  -7 52976.5 3578.06  19
  -3 -13  -8 96074.4 3878.39  23
  -3 -13  -8 117024. 5183.60  19
  -3 -13  -9 13469.9 1445.13  23
  -3 -13  -9 14143.0 1760.03  19
  -3 -13 -10 17940.4 1667.29  23
  -3 -13 -10 16977.5 1896.77  19
  -3 -13 -11 30592.3 2137.02  23
  -3 -13 -11 28984.5 2369.67  19
  -3 -13 -12 691.510 318.926  23
  -3 -13 -12 479.613 313.247  19
  -3 -13 -13 3117.82 612.496  23
  -3 -13 -13 2920.14 636.045  19
  -3 -13 -14 7343.81 877.630  23
  -3 -14   4 266.864 252.303  18
  -3 -14   3 20705.1 1850.04  18
  -3 -14   2 47252.4 2944.07  18
  -3 -14   1 6294.26 1148.86  19
  -3 -14   1 6191.33 1079.40  18
  -3 -14   0 11692.4 1614.29  19
  -3 -14   0 10489.2 1515.55  18
  -3 -14  -1 59090.6 3674.38  19
  -3 -14  -1 59746.5 3541.41  18
  -3 -14  -2 33035.7 2809.81  19
  -3 -14  -2 37282.3 2826.84  18
  -3 -14  -3 2496.66 711.812  19
  -3 -14  -3 2794.86 743.049  18
  -3 -14  -4 4817.73 1152.95  19
  -3 -14  -4 5385.08 1201.00  18
  -3 -14  -5 4872.72 1145.01  19
  -3 -14  -5 6964.58 1247.18  18
  -3 -14  -6 492.129 411.298  19
  -3 -14  -7 3444.41 979.613  19
  -3 -14  -8 3279.20 820.073  19
  -3 -14  -9 27144.3 1860.89  23
  -3 -14  -9 26169.8 2296.34  19
  -3 -14 -10 12028.3 1214.94  23
  -3 -14 -10 10215.1 1456.86  19
  -3 -14 -11 833.476 295.870  23
  -3 -14 -11 452.685 295.726  19
  -3 -14 -12 28052.2 1727.40  23
  -3 -14 -12 25011.8 1890.91  19
  -3 -14 -13 28115.5 1604.35  23
  -3 -14 -13 23540.7 1668.28  19
  -3 -15   2 822.832 393.235  18
  -3 -15   1 2758.21 614.422  18
  -3 -15   0 4511.59 877.712  18
  -3 -15  -1 377.276 287.241  18
  -3 -15  -1 460.983 278.036  19
  -3 -15  -2 11028.3 1453.88  18
  -3 -15  -2 12412.0 1566.19  19
  -3 -15  -3 29250.7 2300.34  18
  -3 -15  -3 26012.7 2318.83  19
  -3 -15  -4 1440.09 567.856  19
  -3 -15  -4 1696.94 535.123  18
  -3 -15  -5 14644.5 1626.69  18
  -3 -15  -5 12206.3 1613.96  19
  -3 -15  -6 19681.9 1981.26  18
  -3 -15  -6 19077.6 1963.26  19
  -3 -15  -7 30025.7 2310.47  18
  -3 -15  -7 22201.0 2174.42  19
  -3 -15  -8 832.517 404.160  18
  -3 -15  -8 824.501 398.083  19
  -3 -15  -9 13768.8 1542.39  19
  -3 -15 -10 3376.81 773.252  19
  -3 -15 -11 669.989 315.721  19
  -3 -16  -1 276.902 204.541  18
  -3 -16  -2 1462.49 451.085  18
  -3 -16  -3 926.450 374.866  18
  -3 -16  -3 960.742 370.115  19
  -3 -16  -4 714.441 338.020  18
  -3 -16  -4 168.225 184.367  19
  -3 -16  -5 2341.99 619.258  19
  -3 -16  -5 2924.67 622.909  18
  -3 -16  -6 132.654 160.067  19
  -3 -16  -6-172.390 176.079  18
  -3 -16  -7 13102.8 1305.55  18
  -3 -16  -7 11403.6 1325.12  19
  -3 -16  -8 23972.8 1727.50  18
  -3 -16  -8 19672.9 1693.00  19
  -3 -16  -9 477.065 298.916  19
  -4  14   5 1401.30 256.710  20
  -4  14   4 1039.13 224.883  20
   4 -14  -2 1496.23 762.982  12
  -4  13   9 1672.58 284.402  20
  -4  13   8 35551.5 1426.03  20
  -4  13   7 9867.42 795.057  20
  -4  13   6 262.353 139.561  20
  -4  13   5 13796.5 978.497  20
  -4  13   4 11658.7 897.565  20
  -4  13   3 2280.71 398.560  20
  -4  13   2 452.756 191.426  20
  -4  13   1 573.300 182.155  20
   4 -13   0 48.5514 102.419  12
   4 -13   1 300.501 198.794  12
   4 -13   2 341.613 243.988  12
   4 -12 -11 4068.77 637.515  19
   4 -12 -10 1139.49 353.885  19
  -4  12  10 2520.43 384.853  20
   4 -12  -9 71.5224 66.5401  19
  -4  12   9 46.0079 118.384  20
  -4  12   8 2758.31 468.904  20
  -4  12   7 4095.91 589.406  20
  -4  12   6 8024.04 844.842  20
  -4  12   5 8144.77 853.950  20
  -4  12   4 316.345 176.584  20
  -4  12   3 26033.0 1519.32  20
  -4  12   2 17388.7 1214.96  20
  -4  12   1-123.087 121.087  20
  -4  12   0 37143.0 1667.07  20
   4 -12   2 2283.14 634.352  12
  -4  12  -2 2079.53 402.763  21
   4 -12   3 5909.19 967.076  12
  -4  12  -3 5985.62 680.727  21
   4 -12   4 5988.86 883.430  12
  -4  12  -4 6767.89 689.655  21
  -4  12  -5 180.600 115.227  21
   4 -11 -13 715.092 274.245  19
   4 -11 -12 6620.92 865.835  19
   4 -11 -11-34.8216 149.744  19
  -4  11  11 37.8718 90.1576  29
  -4  11  11 119.140 97.9339  20
  -4  11  10 30640.5 1665.87  29
  -4  11  10 29148.3 1502.89  20
  -4  11   9 49630.6 2194.50  29
  -4  11   9 47540.2 2037.06  20
  -4  11   8 27939.9 1664.47  29
  -4  11   8 27926.4 1630.09  20
  -4  11   7 6073.56 779.692  29
  -4  11   7 6971.73 840.195  20
  -4  11   6 52012.2 2286.85  29
  -4  11   6 55425.4 2397.30  20
  -4  11   5 6841.84 797.982  29
  -4  11   5 7200.63 865.402  20
  -4  11   4 2816.23 548.193  20
  -4  11   3 23688.9 1569.56  20
  -4  11   2 102.792 79.0657  20
  -4  11   1 6436.66 786.009  20
  -4  11   0 6389.66 763.399  20
  -4  11  -1 17093.6 1365.60  21
  -4  11  -1 14941.9 1124.89  20
  -4  11  -2 28516.4 1770.27  21
  -4  11  -2 23564.1 1338.17  20
   4 -11   3 21344.6 2039.54  12
  -4  11  -3 21887.5 1532.03  21
   4 -11   4 159.932 152.950  12
  -4  11  -4 99.4061 137.701  21
   4 -11   5 22442.4 1826.77  12
  -4  11  -5 23886.9 1471.01  21
   4 -11   6 9742.49 1090.54  12
  -4  11  -6 12072.8 974.274  21
  -4  11  -7 2674.58 413.412  21
   4 -10 -14 119.430 119.655  19
   4 -10 -13 516.192 282.505  19
  -4  10  13 5576.51 627.745  29
  -4  10  12 13163.4 1064.03  29
   4 -10 -12 4113.11 869.467  19
   4 -10 -11 355.622 219.227  19
  -4  10  11 294.596 185.770  29
  -4  10  11 307.655 148.506  20
   4 -10 -10 1309.55 480.216  19
  -4  10  10 1976.95 462.018  29
  -4  10  10 1721.90 405.862  20
   4 -10  -9 37.2919 182.876  19
  -4  10   9 350.902 193.334  29
  -4  10   9 202.404 140.432  20
  -4  10   8 18949.5 1481.51  29
   4 -10  -8 15161.1 1650.27  19
  -4  10   8 17990.7 1397.97  20
  -4  10   7 14446.6 1299.48  29
   4 -10  -7 12586.1 1477.09  19
  -4  10   7 14646.8 1276.40  20
  -4  10   6 212.950 193.127  29
  -4  10   6 176.369 146.559  20
  -4  10   5 22419.6 1589.71  29
  -4  10   5 24347.8 1661.07  20
  -4  10   4 56175.8 2419.78  29
  -4  10   4 60447.8 2598.71  20
  -4  10   3 8779.42 998.608  20
  -4  10   2 19318.8 1453.20  20
  -4  10   1 56852.8 2450.17  20
  -4  10   0 20622.2 1622.04  21
  -4  10   0 19840.3 1416.74  20
  -4  10  -1 81.5981 123.110  20
  -4  10  -1-57.2311 223.645  21
  -4  10  -2 6851.52 973.382  21
  -4  10  -2 5588.98 703.871  20
  -4  10  -3 104.116 106.412  21
   4 -10   4 3900.81 914.693  12
  -4  10  -4 3308.98 676.334  21
   4 -10   5 8452.03 1260.95  12
  -4  10  -5 8194.74 990.860  21
   4 -10   6 2114.49 588.489  12
  -4  10  -6 1664.73 448.711  21
   4 -10   7 14269.5 1364.87  12
  -4  10  -7 17005.5 1253.19  21
  -4  10  -8 16622.7 1128.25  21
  -4  10  -9 1441.77 291.267  21
   4  -9 -15 208.942 171.339  19
   4  -9 -14 17824.6 1226.14  23
  -4   9  14 17449.6 1078.56  29
  -4   9  13 6650.30 758.660  29
   4  -9 -13 6156.40 792.093  23
  -4   9  12 1480.98 388.448  29
  -4   9  12 1230.18 320.291  20
  -4   9  11 54493.6 2491.47  29
  -4   9  11 51571.3 2206.13  20
  -4   9  10 7928.64 991.556  29
  -4   9  10 7754.21 907.329  20
  -4   9   9 447.819 245.258  29
  -4   9   8 16441.3 1453.43  29
  -4   9   7 34413.4 2127.55  29
  -4   9   7 37673.6 2076.75  20
  -4   9   6 124.740 145.009  29
  -4   9   6-184.228 246.284  20
  -4   9   5 6217.59 867.279  29
  -4   9   5 6239.83 875.391  20
  -4   9   4 2475.02 544.590  29
  -4   9   4 2136.82 491.030  20
  -4   9   3 10043.5 1022.77  29
  -4   9   3 10882.1 1098.50  20
  -4   9   2 12294.4 1167.26  20
  -4   9   1 258.342 171.203  20
  -4   9   0 40834.4 2334.04  21
  -4   9   0 39762.5 2027.10  20
  -4   9  -1 50660.9 2776.80  21
  -4   9  -1 44808.7 2105.89  20
  -4   9  -2 3316.46 723.970  21
  -4   9  -2 3026.83 525.297  20
   4  -9   4 17902.4 2129.73  12
  -4   9  -4 58429.0 3011.48  21
   4  -9   5 22789.6 2173.96  12
  -4   9  -5 22507.2 1794.45  21
   4  -9   6 1913.74 579.646  12
  -4   9  -6 2130.31 547.497  21
   4  -9   7 4469.88 852.691  12
  -4   9  -7 4699.87 746.729  21
  -4   9  -8 2896.51 537.332  21
  -4   9  -9 152.231 174.208  21
  -4   9 -10 111.513 93.9454  21
   4  -8 -15 1076.93 324.216  23
  -4   8  14 14437.1 1051.32  29
   4  -8 -14 14799.3 1240.86  23
  -4   8  13 262.531 181.369  29
   4  -8 -13 519.882 274.870  23
  -4   8  12 2689.38 552.490  29
   4  -8 -12 3231.05 656.736  23
   4  -8 -11 2506.58 598.308  23
  -4   8  11 1337.87 449.389  17
  -4   8  11 2347.74 540.100  29
  -4   8  10 11773.7 1377.29  17
  -4   8  10 20132.7 1651.26  29
  -4   8   9 26202.2 1921.29  29
  -4   8   8 96.5992 141.344  29
  -4   8   7 5902.68 893.639  29
  -4   8   6 76699.0 3132.27  29
  -4   8   5 12407.0 1239.57  29
  -4   8   4-41.1252 79.7384  29
  -4   8   3 47190.2 2257.53  29
  -4   8   3 49142.0 2306.09  20
  -4   8   2 30654.8 1783.42  20
  -4   8   1 4439.61 691.621  20
  -4   8   0 4180.04 742.758  21
  -4   8   0 4725.80 692.268  20
  -4   8  -1 2007.44 452.727  20
  -4   8  -2 3698.80 595.890  20
  -4   8  -2 3477.83 655.985  11
   4  -8   5 47416.5 3179.93  12
   4  -8   6 59269.3 3436.73  12
  -4   8  -7 12932.7 1332.04  21
   4  -8   7 11773.2 1483.96  12
  -4   8  -8 19500.3 1543.36  21
  -4   8  -9 53718.3 2384.73  21
  -4   8 -10 14137.4 1108.74  21
   4  -8  10 11859.9 1202.98  27
  -4   8 -11 592.116 167.208  21
   4  -8  11 756.856 289.172  27
   4  -7 -16 21480.9 1317.95  23
   4  -7 -15 14351.0 1209.38  23
  -4   7  14 663.525 239.181  29
   4  -7 -14 553.546 242.108  23
  -4   7  13 41682.9 2091.15  29
   4  -7 -13 43029.9 2381.47  23
  -4   7  12 17563.4 1715.49  17
  -4   7  12 22473.8 1668.39  29
   4  -7 -12 22876.4 1840.84  23
  -4   7  11-245.012 156.363  17
  -4   7  11 106.338 140.658  29
   4  -7 -11 302.229 218.644  23
  -4   7  10 1634.72 569.331  17
  -4   7  10 2546.99 596.002  29
   4  -7 -10 2230.38 566.945  23
  -4   7   9 8856.70 1292.98  17
  -4   7   9 9851.23 1182.09  29
   4  -7  -9 8784.18 1102.14  23
  -4   7   8 6264.58 929.242  29
  -4   7   8 6275.23 1025.46  17
  -4   7   7 44.2064 83.2925  29
  -4   7   6 1635.58 444.744  29
  -4   7   6 2045.93 1062.83   4
  -4   7   5 11152.9 1171.10  29
  -4   7   5 10642.3 2354.05   4
  -4   7   4 24631.7 1682.56  29
  -4   7   4 22183.6 3392.06   4
  -4   7   3 4571.63 697.624  29
  -4   7   1 58251.4 6091.57   2
  -4   7   1 66747.6 2519.46  20
  -4   7   0 17028.5 3302.63   2
  -4   7   0 16748.2 1489.39  21
  -4   7   0 19172.6 1340.72  20
  -4   7  -1 5982.41 1954.88   2
  -4   7  -1 6002.88 750.118  20
  -4   7  -1 6698.33 854.171  11
  -4   7  -2 42774.3 1954.82  20
  -4   7  -2 50369.1 2321.98  11
   4  -7   2 53547.2 7960.08   7
  -4   7  -2 44352.9 5421.56   2
  -4   7  -3 28525.7 1807.14  11
  -4   7  -4 4427.17 733.769  11
   4  -7   5 1432.91 870.221  12
  -4   7  -5 7852.62 1015.80  11
   4  -7   6 1937.93 628.763  12
  -4   7  -6 1266.19 456.576  11
  -4   7  -7 4236.39 755.329  11
  -4   7  -8 594.469 290.196  21
  -4   7  -8 391.929 233.026  11
  -4   7  -9 561.419 256.832  21
  -4   7  -9 458.315 283.233  11
  -4   7 -10 18015.4 1379.70  21
  -4   7 -10 11565.7 1079.04  11
  -4   7 -11 9747.70 899.807  21
   4  -7  11 8089.81 1005.49  27
   4  -7  12 304.260 175.370  27
   4  -6 -16 1768.61 405.720  23
   4  -6 -15 309.972 222.271  23
   4  -6 -14 2791.22 609.770  23
  -4   6  13 155.324 247.989  17
  -4   6  13 349.753 215.668  29
   4  -6 -13 181.964 201.072  23
  -4   6  12 7384.07 1178.71  17
  -4   6  12 6881.49 938.801  29
   4  -6 -12 6846.26 1056.52  23
  -4   6  11 29821.2 2382.15  17
  -4   6  11 28857.0 2009.55  29
   4  -6 -11 29320.0 2137.20  23
  -4   6  10 11879.4 1552.62  17
  -4   6  10 11144.8 1260.92  29
   4  -6 -10 11150.1 1312.63  23
  -4   6   9 20287.7 1953.89  17
  -4   6   9 16498.4 1524.54  29
  -4   6   8 80247.0 3930.97  17
  -4   6   8 70845.8 3097.38  29
  -4   6   7 101207. 3602.29  29
  -4   6   7 88251.9 6860.47   4
  -4   6   6 9267.51 1063.22  29
  -4   6   6 6955.47 1884.47   4
  -4   6   5 30412.1 1891.92  29
  -4   6   5 25044.5 3440.76   4
  -4   6   4 7079.12 1135.60   8
  -4   6   4 6680.66 1744.48   4
  -4   6   3 976.005 449.766   8
  -4   6   3 688.164 554.960   4
  -4   6   2 401.388 283.227   8
  -4   6   1 196.215 217.515   8
  -4   6   1 763.293 650.818   2
  -4   6   0 32513.9 2398.80   8
  -4   6   0 29374.6 4027.96   2
  -4   6  -1 7763.77 1191.40   8
  -4   6  -1 6804.07 1968.09   2
  -4   6  -2 479.420 265.645  11
  -4   6  -2-378.794 469.731   2
   4  -6   3 66240.8 8533.60   7
  -4   6  -3 63918.8 2612.31  11
   4  -6   4 54331.9 7746.59   7
  -4   6  -4 53503.9 2484.72  11
  -4   6  -5 11845.7 1228.98  11
  -4   6  -6 1710.56 487.039  11
  -4   6  -7 25235.1 1799.59  11
  -4   6  -8 18656.3 1671.26  21
  -4   6  -8 15648.3 1476.50  11
  -4   6  -9 3199.59 653.058  21
  -4   6  -9 2333.08 553.120  11
  -4   6 -10 3293.83 600.433  21
  -4   6 -10 2311.41 534.002  11
  -4   6 -11 178.807 152.421  11
   4  -6  11 242.976 188.178  27
  -4   6 -12 3.75137 132.747  11
   4  -6  12 264.962 159.223  27
   4  -6  13 143.803 117.318  27
   4  -5 -16 93.3316 123.243  23
   4  -5 -15 16036.4 1400.67  23
  -4   5  14 43868.0 2721.30  17
   4  -5 -14 45346.8 2584.87  23
  -4   5  13 5386.73 1087.70  17
  -4   5  13 5714.22 800.684  29
   4  -5 -13 6016.06 979.879  23
  -4   5  12 9315.33 1349.08  17
  -4   5  12 8274.81 1037.54  29
  -4   5  11 11558.3 1569.53  17
  -4   5  11 10105.1 1191.69  29
  -4   5  10 7599.92 1283.64  17
  -4   5  10 7125.47 998.874  29
  -4   5   9 16195.0 1855.89  17
  -4   5   9 14291.6 1392.75  29
  -4   5   8-195.485 418.178  17
  -4   5   8 162.641 304.084   4
  -4   5   7 21967.0 2261.35  17
  -4   5   7 17975.9 2937.45   4
  -4   5   6 78024.1 5923.34   4
  -4   5   5 29334.3 2012.79   8
  -4   5   5 29162.4 3516.19   4
  -4   5   4 14593.4 2435.09   4
  -4   5   3 98671.1 6177.96   4
  -4   5   2 57293.8 4660.25   4
  -4   5   1 1604.23 843.312   2
  -4   5   0 49907.8 4890.05   2
  -4   5  -1 46660.1 4709.09   2
  -4   5  -2 5489.90 1652.16   2
   4  -5   3 2181.35 1406.90   7
  -4   5  -3 2881.51 666.758   8
   4  -5   4 1409.29 1430.45   7
  -4   5  -4 414.734 239.150  11
   4  -5   5 9809.64 3148.85   7
  -4   5  -5 17600.2 1468.34  11
   4  -5   6 8957.85 2989.53   7
  -4   5  -6 7022.79 973.508  11
  -4   5  -7-131.453 176.981  11
  -4   5  -8 36704.8 2318.37  11
  -4   5  -8 38017.3 2389.40  21
  -4   5  -9 20239.2 1694.98  11
  -4   5  -9 21498.1 1728.86  21
  -4   5 -10 1068.16 391.728  11
  -4   5 -10 1169.62 356.446  21
  -4   5 -11 18837.2 1439.46  21
   4  -5  11 16241.7 1617.61  27
  -4   5 -11 13812.3 1329.05  11
   4  -5  12 29536.9 2060.70  27
  -4   5 -12 18626.6 1465.62  11
   4  -5  13 18992.9 1510.46  27
  -4   5 -13 8616.30 919.620  11
   4  -5  14 27.8383 151.057  27
  -4   5 -14 15.0126 59.6177  11
   4  -4 -17 693.891 236.468  11
   4  -4 -17 2006.15 383.458  23
   4  -4 -16 7344.78 881.261  23
   4  -4 -15 4533.31 789.117  23
  -4   4  14 3275.19 824.233  17
   4  -4 -14 3199.93 683.786  23
  -4   4  13 53497.6 3222.28  17
  -4   4  12 71661.4 3033.59  29
  -4   4  12 72573.0 3114.99  26
  -4   4  11 1953.50 674.855  17
  -4   4  11 1700.66 511.733  26
  -4   4  11 1492.99 441.726  29
  -4   4  10 31976.4 2668.15  17
  -4   4  10 25360.7 1788.72  26
  -4   4  10 27842.5 1952.41  29
  -4   4   9 101853. 7466.44   4
  -4   4   9 99659.4 3417.20  26
  -4   4   8 17423.9 2079.23  17
  -4   4   8 14210.8 1232.48  26
  -4   4   8 14092.9 2630.47   4
  -4   4   7 17832.0 1325.86  26
  -4   4   7 17844.7 2846.64   4
  -4   4   6 64651.9 5138.32   4
  -4   4   5 1333.35 727.780   4
  -4   4   5 1543.22 800.105   1
  -4   4   4 55566.0 4400.31   4
  -4   4   4 51034.2 4517.43   1
  -4   4   3 11124.1 1949.93   4
  -4   4   3 10247.3 2074.25   1
  -4   4   2 218.578 327.592   1
  -4   4   2 181.768 219.295   4
  -4   4   1 119717. 6895.16   1
  -4   4   0 12369.9 2196.07   2
  -4   4  -1 52101.0 4506.79   2
  -4   4  -2 128494. 7168.42   2
   4  -4   3 88617.7 8790.42   7
   4  -4   4 1229.36 1148.03   7
   4  -4   5 23817.2 5099.75   7
   4  -4   6 35261.7 5643.40   7
  -4   4  -6 40455.5 2338.11  11
   4  -4   7 3296.45 1971.03   7
  -4   4  -7 2637.28 620.976  11
  -4   4  -8 2591.73 599.885  21
  -4   4  -8 2387.29 601.380  11
  -4   4  -9 1906.41 499.928  21
  -4   4  -9 1786.12 549.415  11
  -4   4 -10 244.122 215.282  21
  -4   4 -10 266.292 231.880  11
  -4   4 -11 3515.67 783.511  11
   4  -4  11 4950.48 906.184  27
  -4   4 -12 618.479 320.673  11
   4  -4  12 999.611 366.724  27
  -4   4 -13 8890.23 1032.83  11
   4  -4  13 15177.8 1452.23  27
  -4   4 -14 5421.70 729.677  11
   4  -4  14 16394.0 1369.44  27
  -4   4 -15 623.394 219.557  11
   4  -4  15 4541.78 614.630  27
   4  -3 -17 1462.74 327.168  11
   4  -3 -17 2730.72 443.994  23
   4  -3 -16 32907.5 1827.39  23
   4  -3 -15 20695.2 1651.85  23
  -4   3  14 665.548 486.475  17
  -4   3  14 1767.81 454.057  26
  -4   3  13 3038.94 767.228  17
  -4   3  13 2817.35 604.666  26
  -4   3  12 3768.97 977.882  17
  -4   3  12 3643.37 707.759  26
  -4   3  11 6836.46 1301.58  17
  -4   3  11 6212.12 899.783  29
  -4   3  11 5947.72 875.516  26
  -4   3  10 17504.1 2044.45  17
  -4   3  10 16082.3 1404.84  26
  -4   3   9 559.087 396.316  17
  -4   3   9 485.434 234.731  26
  -4   3   9-17.2309 175.373   4
  -4   3   8 113064. 5365.05  17
  -4   3   8 118091. 7470.69   4
  -4   3   8 106029. 3313.77  26
  -4   3   7 39125.2 4039.81   4
  -4   3   6 176.706 212.362   4
  -4   3   6 420.554 355.546   1
  -4   3   5 45078.5 3942.70   1
  -4   3   5 46404.2 3958.83   4
  -4   3   4 166999. 7563.63   1
  -4   3   4 173426. 7280.18   4
  -4   3   3 9231.64 1782.04   1
  -4   3   3 9476.24 1640.75   4
  -4   3   2 2845.39 977.137   1
  -4   3   2 3382.18 946.048   4
  -4   3   1 84519.7 4748.75   4
  -4   3   1 91142.1 5563.25   1
  -4   3   0 2872.02 938.423   2
  -4   3   0 2166.26 931.354   1
  -4   3  -1 8243.16 1643.82   2
  -4   3  -1 8289.24 1737.92   1
  -4   3  -2 11573.4 2230.93   1
  -4   3  -2 12009.1 1974.53   2
   4  -3   3 7060.43 2112.25   7
   4  -3   4 53565.5 6217.59   7
   4  -3   5 14622.7 3343.33   7
   4  -3   6 23127.4 4250.93   7
  -4   3  -7 92110.0 3465.92  21
  -4   3  -7 100347. 3712.84  11
   4  -3   7 106666. 9197.24   7
  -4   3  -7 86205.0 2624.28  14
  -4   3  -8 49587.9 2530.56  21
  -4   3  -8 56934.2 2854.09  11
   4  -3   8 50241.3 6536.68   7
  -4   3  -8 45788.8 1963.91  14
  -4   3  -9 2007.21 490.135  21
  -4   3  -9 2179.72 577.818  11
  -4   3 -10 58399.9 2701.27  21
  -4   3 -10 64464.5 3220.00  11
   4  -3  10 58446.1 3108.90  27
  -4   3 -11 29734.0 2208.60  11
   4  -3  11 26196.2 2102.07  27
  -4   3 -12 4498.22 813.051  11
   4  -3  12 3662.08 775.615  27
  -4   3 -13 463.694 318.561  11
   4  -3  13 1071.30 392.531  27
  -4   3 -14 2096.88 485.513  11
   4  -3  14 4948.81 811.687  27
  -4   3 -15 443.789 213.130  11
   4  -3  15 1673.27 429.392  27
   4  -2 -16 39.5611 67.6429  23
  -4   2  15 17436.8 1405.25  26
   4  -2 -15 14816.1 1389.41  23
  -4   2  14 43247.4 2772.07  17
  -4   2  14 46989.4 2461.35  26
  -4   2  13 17864.2 1924.70  17
  -4   2  13 16901.8 1531.18  26
  -4   2  12 21850.8 2125.91  17
  -4   2  12 17884.7 1564.34  26
  -4   2  11 44279.4 3234.79  17
  -4   2  11 36501.6 2191.66  26
  -4   2  10 9923.02 1580.12  17
  -4   2  10 9072.20 1051.88  26
  -4   2   9 1899.64 774.087  17
  -4   2   9 1762.30 445.644  26
  -4   2   9 1511.93 931.526   4
  -4   2   8 43728.0 4514.32   4
  -4   2   8 41747.8 2061.03  26
  -4   2   7 8189.94 1813.36   4
  -4   2   6 219.028 355.667   1
  -4   2   6-22.3363 125.744   4
  -4   2   5 95.2807 136.838   1
  -4   2   5 201.546 363.746   4
  -4   2   4 10061.3 1844.66   1
  -4   2   4 11575.4 1799.75   4
  -4   2   3 67397.6 4697.86   1
  -4   2   3 68407.0 4085.92   4
  -4   2   2 19920.5 2525.91   1
  -4   2   2 22734.2 2251.02   4
  -4   2   1 8350.80 1637.36   1
  -4   2   1 8136.07 1325.04   4
  -4   2   0 75017.3 4873.24   1
  -4   2  -1 186453. 7651.06   1
  -4   2  -1 188242. 6756.40   2
  -4   2  -2 7243.58 1512.25   1
  -4   2  -2 7870.77 1387.51   2
   4  -2   3 115503. 7842.58   7
  -4   2  -3 99333.5 5866.51   1
   4  -2   4 277335. 13069.1   7
   4  -2   5 19285.3 3539.40   7
   4  -2   6 5160.11 1834.27   7
   4  -2   7 22584.5 4000.21   7
   4  -2   8 1243.23 969.668   7
  -4   2  -8 1062.60 370.738  21
  -4   2  -8 1020.90 448.128  11
  -4   2  -8 791.127 250.485  14
  -4   2  -9 7166.23 912.101  21
   4  -2   9 6189.15 2287.95   7
  -4   2  -9 8072.83 1069.01  11
  -4   2  -9 6111.79 746.833  14
   4  -2  10 509.618 313.298  27
  -4   2 -10 541.893 346.824  11
  -4   2 -10 404.275 164.470  14
   4  -2  11 9969.33 1287.79  27
  -4   2 -11 10490.9 1307.57  11
   4  -2  12 55590.3 3019.77  27
  -4   2 -12 66725.4 3213.20  11
   4  -2  13 11061.5 1308.62  27
  -4   2 -13 10594.8 1371.28  11
   4  -2  14 4363.09 777.644  27
  -4   2 -14 3133.75 756.668  11
   4  -2  15 37811.1 2118.86  27
  -4   2 -15 8461.48 981.285  11
  -4   2 -16 3442.13 535.439  11
  -4   1  16 2358.47 461.041  26
   4  -1 -16 1035.60 289.275  11
   4  -1 -16 1770.39 413.473  23
   4  -1 -15 2677.43 576.622  23
  -4   1  15 2617.48 536.601  26
  -4   1  14 703.620 302.065  26
  -4   1  14 756.608 393.111  17
  -4   1  13 1352.27 450.910  26
  -4   1  13 988.434 598.114  17
  -4   1  12 16216.0 1508.60  26
  -4   1  12 20938.2 2099.15  17
  -4   1  11 5208.63 836.579  26
  -4   1  11 5686.13 1158.76  17
  -4   1  11 4859.72 765.486  15
  -4   1  10 41989.8 2325.03  26
  -4   1  10 40937.2 2174.48  15
  -4   1  10 34517.8 4598.64   4
  -4   1   9 47657.6 2342.84  26
  -4   1   9 44432.1 3510.61  17
  -4   1   9 48158.9 2237.66  15
  -4   1   9 44984.7 4939.91   4
  -4   1   8 7572.88 1890.84   4
  -4   1   7 18458.1 2713.74   4
  -4   1   6 95532.4 5639.64   4
  -4   1   6 97548.3 5837.72   1
  -4   1   5 134483. 6176.19   4
  -4   1   5 131536. 6640.43   1
  -4   1   4 8450.44 1425.63   4
  -4   1   4 7893.59 1599.18   1
  -4   1   3 21320.2 2120.11   4
  -4   1   3 20590.0 2535.63   1
  -4   1   2 11695.8 1462.23   4
  -4   1   2 11185.7 1835.68   1
  -4   1   1 3211.14 765.712   4
  -4   1   1 3022.60 965.809   1
  -4   1   0 9307.66 1642.09   1
  -4   1  -1 4340.63 1112.33   1
  -4   1  -2 74339.7 4669.81   1
   4  -1   3 5176.37 1530.58   7
  -4   1  -3 4584.06 1194.06   1
   4  -1   4 16755.2 2832.65   7
  -4   1  -4 17235.3 2339.31   1
   4  -1   5 219709. 10748.3   7
   4  -1   6 84599.3 6742.65   7
   4  -1   7 3422.92 1441.89   7
   4  -1   8 30585.3 4579.35   7
  -4   1  -8 37400.4 2182.58  11
   4  -1   9 59776.2 6561.15   7
  -4   1  -9 69152.3 2750.91  13
  -4   1  -9 80019.3 3282.62  11
   4  -1   9 70746.1 3089.21  27
  -4   1 -10 18039.3 1443.25  13
  -4   1 -10 22152.0 1799.15  11
   4  -1  10 18105.9 1641.64  27
  -4   1 -11 89.4593 171.378  11
  -4   1 -11 26.8908 151.786  13
   4  -1  11 361.837 303.320  27
  -4   1 -12 12336.2 1192.55  13
  -4   1 -12 14474.1 1472.73  11
  -4   1 -12 11518.0 1036.75  14
   4  -1  12 13272.7 1460.03  27
  -4   1 -13 1530.76 424.904  13
  -4   1 -13 1344.26 579.914  11
   4  -1  13 1351.67 459.320  27
  -4   1 -14 2036.58 743.791  11
   4  -1  14 4172.69 782.840  27
  -4   1 -15-82.4047 136.261  11
  -4   1 -16 569.202 183.843  11
  -4   1 -17 1300.09 330.180  11
   4   0 -16 9752.39 863.067  11
   4   0 -16 10367.9 926.448  23
   4   0 -15 18792.6 1458.90  23
  -4   0  15 23005.4 1615.21  26
  -4   0  14 1768.27 485.110  26
  -4   0  14 849.289 402.113  17
  -4   0  13 35708.6 2243.05  26
  -4   0  13 35568.8 2582.12  17
  -4   0  12 13135.6 1357.52  26
  -4   0  12 11336.1 1194.27  15
  -4   0  12 12988.0 1770.76  17
  -4   0  11 867.406 389.862  26
  -4   0  11 826.122 306.965  15
  -4   0  11 244.274 322.818  17
  -4   0  10 551.177 234.205  26
  -4   0  10 56.8201 249.446  17
  -4   0  10 573.705 227.270  15
  -4   0   9 1425.68 391.948  26
  -4   0   9 1502.50 390.603  28
  -4   0   9 532.100 634.315  17
  -4   0   9 1053.23 362.610  15
  -4   0   9-65.3918 206.519   4
  -4   0   8-28.1799 148.008   4
  -4   0   7 28760.2 3478.70   4
  -4   0   6 141.824 241.290   1
  -4   0   6 404.592 297.594   4
  -4   0   5 54789.6 4460.89   1
  -4   0   5 58170.3 4003.96   4
  -4   0   4 127597. 6536.57   1
  -4   0   4 121647. 5303.80   4
  -4   0   3 825.005 488.384   1
  -4   0   3 745.109 480.897   4
  -4   0   2 194966. 5448.42   4
  -4   0   2 190406. 7619.58   1
  -4   0   1 140442. 4210.14   4
  -4   0   1 142715. 6456.17   1
  -4   0   0 22498.0 2500.67   1
  -4   0  -1 58.5007 162.114   1
  -4   0  -2 20722.6 2372.96   1
   4   0   3 79296.3 5447.11   7
  -4   0  -3 69151.0 4343.12   1
   4   0   4 32250.0 3777.73   7
  -4   0  -4 39035.5 3272.63   1
   4   0   5 8686.37 1933.57   7
  -4   0  -5 8123.47 1508.55   1
   4   0   6 54842.3 5118.82   7
   4   0   7 19411.8 3163.88   7
   4   0   8 434.976 570.169   7
   4   0   9 1013.97 1051.47   7
  -4   0  -9 2460.23 555.833  13
  -4   0 -10 101702. 3844.33  11
   4   0  10 88502.4 3496.04  27
  -4   0 -11 48740.4 2509.10  13
  -4   0 -11 49428.1 2755.83  11
   4   0  11 49875.8 2730.66  27
  -4   0 -12 3404.26 731.003  11
  -4   0 -12 3713.91 698.706  13
   4   0  12 3920.37 783.496  27
  -4   0 -13 19434.2 1542.39  13
  -4   0 -13 21792.9 1834.71  11
   4   0  13 20159.6 1773.06  27
  -4   0 -14 29509.4 1812.75  13
  -4   0 -14 27197.3 2223.98  11
  -4   0 -14 26849.5 1545.66  14
   4   0  14 32913.1 2209.00  27
  -4   0 -15 6403.06 780.754  13
  -4   0 -15 6955.02 1008.70  11
  -4   0 -16 2421.24 420.584  13
  -4   0 -16 1822.13 507.688  11
   4   0  17 2564.86 455.173  25
  -4   0 -17 686.312 289.133  11
  -4  -1  16 40.8949 125.921  26
   4   1 -15 181.438 132.828  23
  -4  -1  15 296.624 147.732  26
  -4  -1  14 4068.94 751.150  15
  -4  -1  14 11958.0 1248.77  26
  -4  -1  13 546.482 286.119  15
  -4  -1  13 332.468 293.090  26
  -4  -1  12 26412.0 1974.79  26
  -4  -1  12 25669.0 1813.85  15
  -4  -1  12 29547.1 2379.64  17
  -4  -1  11 50441.4 2725.94  26
  -4  -1  11 48637.5 2513.48  15
  -4  -1  10 16122.5 1401.32  28
  -4  -1  10 15823.4 1477.38  26
  -4  -1  10 15090.9 1357.02  15
  -4  -1  10 18657.7 2088.92  17
  -4  -1   9 12091.3 1195.42  28
  -4  -1   9 12975.8 1807.40  17
  -4  -1   9 11845.4 1180.33  15
  -4  -1   8 47930.3 2259.64  15
  -4  -1   7 44810.4 4369.73   1
  -4  -1   6 14273.9 2363.67   1
  -4  -1   5 11637.6 2032.01   5
  -4  -1   5 11322.5 2051.87   1
  -4  -1   4 11017.7 1877.27   5
  -4  -1   4 10943.0 1937.43   1
  -4  -1   4 10500.9 1517.71   4
  -4  -1   3 12.9649 134.763   1
  -4  -1   3-74.1216 353.085   5
  -4  -1   3 123.422 128.975   4
  -4  -1   2 4240.70 1125.94   1
  -4  -1   2 3413.87 689.392   4
  -4  -1   1 32869.2 3097.84   1
  -4  -1   0 45816.6 3645.18   1
  -4  -1  -1 45779.8 3574.13   1
   4   1   2 298.552 313.437   7
  -4  -1  -2 337.047 290.681   1
   4   1   3 113721. 5807.74   7
  -4  -1  -3 117563. 5512.34   1
  -4  -1  -4 117050. 5801.36   6
  -4  -1  -4 112481. 5391.83   1
   4   1   5 27805.5 3059.17   7
  -4  -1  -5 23961.5 2642.37   6
  -4  -1  -5 23383.5 2419.89   1
  -4  -1  -6 1275.28 626.220   6
   4   1   6 1289.34 698.465   7
  -4  -1  -6 1147.11 570.118   1
   4   1   7 41046.0 4302.77   7
  -4  -1  -7 30268.0 3068.73   6
   4   1   8 21059.2 3247.98   7
   4   1   9 56.7163 443.089   7
   4   1  10 680.709 903.142   7
   4   1  10 2086.09 515.221  27
  -4  -1 -10 2236.29 569.328  11
   4   1  11 3658.90 728.997  27
  -4  -1 -11 3866.86 744.677  11
   4   1  12 8485.31 1127.79  27
  -4  -1 -12 9316.30 1184.06  11
   4   1  13 4560.60 854.708  27
  -4  -1 -13 5232.40 852.929  13
  -4  -1 -13 4580.68 829.707  11
  -4  -1 -14 14353.3 1353.13  13
  -4  -1 -14 16382.5 1516.80  11
  -4  -1 -15 26273.5 1708.13  13
  -4  -1 -15 29256.0 2019.64  11
  -4  -1 -16 16577.2 1218.24  13
  -4  -1 -16 17015.7 1506.71  11
   4   1  17 272.423 135.432  25
  -4  -1 -17 420.920 170.456  13
  -4  -1 -17 307.675 190.190  11
  -4  -2  16 761.408 250.663  26
  -4  -2  15 8036.58 915.759  26
  -4  -2  14 24810.9 1631.47  15
  -4  -2  14 24614.0 1781.93  26
  -4  -2  13 271.754 126.874  15
  -4  -2  13 576.701 350.189  26
  -4  -2  12 1.57730 185.765  15
  -4  -2  12-2.38922 107.298  26
  -4  -2  11 1741.93 495.781  15
  -4  -2  11 1459.95 400.945  28
  -4  -2  10 1188.93 395.904  15
  -4  -2  10 1557.82 443.673  28
  -4  -2   9 13559.6 1284.64  28
  -4  -2   9 15396.7 2167.96  17
  -4  -2   9 13066.6 1282.57  15
  -4  -2   8 1914.25 1074.26   5
  -4  -2   8 2601.52 551.760  15
  -4  -2   8 2989.07 577.158  28
  -4  -2   7 38551.5 4216.98   5
  -4  -2   6 112249. 6943.21   5
  -4  -2   5 23053.2 3031.55   5
  -4  -2   4 75631.0 5193.49   5
  -4  -2   3 180807. 7671.12   5
  -4  -2   2 108409. 5675.93   5
  -4  -2   1 2937.51 891.016   5
  -4  -2   0 16785.0 2049.33   5
  -4  -2  -1 53309.3 3841.95   1
   4   2   2 30103.6 2030.52   7
  -4  -2  -2 32929.2 2980.83   6
  -4  -2  -2 25020.4 2667.06   1
   4   2   3 10101.3 1314.32   7
  -4  -2  -3 11085.1 1723.14   6
  -4  -2  -3 9818.81 1596.70   1
  -4  -2  -4 2777.72 868.436   6
   4   2   4 2230.71 751.385   7
  -4  -2  -4 2227.59 747.666   1
   4   2   5 41161.9 3390.09   7
  -4  -2  -5 44657.4 3573.34   6
  -4  -2  -5 44839.8 3278.03   1
   4   2   6 50265.6 3983.03   7
  -4  -2  -6 58079.7 4208.25   6
   4   2   7 5840.99 1524.99   7
  -4  -2  -7 5941.16 1409.97   6
   4   2   8 59886.8 5024.22   7
  -4  -2  -8 66578.6 4774.27   6
   4   2   9 78146.5 6067.75   7
   4   2  10 3509.32 1333.54   7
  -4  -2 -10 4190.93 832.689  11
   4   2  10 3915.32 684.729  27
   4   2  11 11872.1 2729.54   7
  -4  -2 -11 16392.5 1561.71  11
   4   2  11 14842.0 1423.91  27
  -4  -2 -12 29249.4 2104.45  11
   4   2  12 30362.1 2087.78  27
  -4  -2 -13 15539.2 1526.81  11
  -4  -2 -14 355.106 281.920  13
  -4  -2 -14 258.078 289.135  11
  -4  -2 -15 4002.97 734.854  13
  -4  -2 -15 3858.95 726.759  11
  -4  -2 -16 1875.44 502.694  11
  -4  -2 -16 1840.45 447.481  13
   4   2  16 1634.93 439.881  25
  -4  -2 -17 3769.79 541.185  13
  -4  -2 -17 3213.93 578.692  11
   4   2  17 3062.78 541.798  25
  -4  -3  15 92.6350 112.462  15
  -4  -3  15 2019.60 430.588  26
  -4  -3  14 4549.20 689.951  15
  -4  -3  14 4353.78 737.364  26
  -4  -3  13 76217.1 3066.78  15
  -4  -3  13 74707.2 3252.01  26
  -4  -3  12 57314.8 2759.49  15
  -4  -3  12 62373.1 3074.67  26
  -4  -3  11 1105.60 388.607  15
  -4  -3  11 1266.05 400.018  28
  -4  -3  10 32450.8 2142.96  15
  -4  -3  10 35184.3 2136.70  28
  -4  -3   9 69820.2 3054.87  15
  -4  -3   9 69869.6 2979.03  28
  -4  -3   8 13187.8 2699.88   5
  -4  -3   8 12329.6 1262.64  15
  -4  -3   8 13283.7 1261.62  28
  -4  -3   7 3175.23 1305.98   5
  -4  -3   7 3346.06 628.347  15
  -4  -3   6 989.434 926.821   5
  -4  -3   5 9938.93 2125.51   5
  -4  -3   4 1566.14 891.533   5
  -4  -3   3 1498.80 777.089   5
  -4  -3   2 85362.0 5517.45   5
  -4  -3   1 237783. 8637.03   5
  -4  -3   0 1416.02 675.724   5
  -4  -3  -1 67757.9 4328.31   6
  -4  -3  -1 66912.3 4047.81   5
  -4  -3  -2 273580. 7793.52   5
  -4  -3  -2 271908. 8564.64   6
  -4  -3  -3 55147.0 3975.04   6
  -4  -3  -3 50802.5 3717.00   1
  -4  -3  -4 5292.61 1247.60   6
  -4  -3  -4 4651.05 1109.57   1
   4   3   5 37020.3 2731.69   7
  -4  -3  -5 42885.1 3738.96   6
  -4  -3  -5 41722.8 3162.89   1
   4   3   6 85892.6 4592.29   7
  -4  -3  -6 99023.3 5808.16   6
  -4  -3  -7 12398.9 2105.17   6
   4   3   7 10160.6 1740.33   7
   4   3   8 6300.52 1517.59   7
  -4  -3  -8 7442.77 1696.04   6
   4   3   9 476.607 353.042   7
  -4  -3  -9 598.330 483.041   6
   4   3  10 31835.5 3852.45   7
  -4  -3 -10 32724.3 2469.91  11
   4   3  11 18062.1 3073.28   7
  -4  -3 -11 29792.3 2192.80  11
  -4  -3 -12 4039.20 812.280  11
  -4  -3 -13 43313.6 2580.65  11
  -4  -3 -14 39317.6 2424.86  11
  -4  -3 -15 2615.70 567.352  13
  -4  -3 -15 2551.11 625.480  11
   4   3  15 2432.34 610.584  25
  -4  -3 -16 4736.11 723.554  13
  -4  -3 -16 4205.97 753.950  11
   4   3  16 4501.07 759.045  25
  -4  -3 -17 17279.8 1248.83  13
  -4  -3 -17 14223.3 1295.04  11
   4   3  17 16333.0 1268.85  25
  -4  -3 -18 3929.77 498.877  13
  -4  -3 -18 3835.15 569.743  11
  -4  -4  15 1975.53 413.722  26
  -4  -4  15 679.475 262.148  15
  -4  -4  14 4937.73 757.517  26
  -4  -4  14 5033.22 696.738  15
  -4  -4  13 782.268 361.326  26
  -4  -4  13 745.729 303.031  15
  -4  -4  12 9568.20 1134.79  15
  -4  -4  11 25710.1 1831.31  28
  -4  -4  11 27680.7 2000.01  15
  -4  -4  10 17551.8 1526.41  28
  -4  -4  10 15716.3 1524.29  15
  -4  -4   9 1860.68 526.427  28
  -4  -4   9 2369.10 591.045  15
  -4  -4   8 63737.7 2879.15  28
  -4  -4   8 59668.9 2867.73  15
  -4  -4   7 65921.4 3243.94  12
  -4  -4   7 63994.2 6195.46   5
  -4  -4   6 805.724 724.266   5
  -4  -4   5 125525. 8358.87   5
  -4  -4   4 135968. 8528.47   5
  -4  -4   3 4131.67 1411.60   5
  -4  -4   2 38459.1 4219.37   5
  -4  -4   1 49066.2 4493.16   5
  -4  -4   0 1143.00 666.679   6
  -4  -4   0 1461.05 636.664   5
  -4  -4  -1 5095.85 1210.04   6
  -4  -4  -1 4900.56 1261.68   5
  -4  -4  -2 11980.7 1856.40   6
  -4  -4  -2 13211.5 1836.85   5
  -4  -4  -3 50874.7 4060.15   6
  -4  -4  -3 50563.3 3316.24   5
  -4  -4  -4 266368. 9770.56   6
  -4  -4  -4 245492. 8178.47   1
  -4  -4  -5 692.129 303.555   6
  -4  -4  -5 699.219 457.220   1
  -4  -4  -6 54503.3 4752.27   6
  -4  -4  -7 328007. 12063.8   6
  -4  -4  -8 10741.0 2189.91   6
  -4  -4  -9 22318.5 3176.62   6
  -4  -4 -10 40160.4 4304.88   6
  -4  -4 -10 34861.8 2775.34  11
  -4  -4 -11 13125.7 1506.05  11
  -4  -4 -12 309.606 214.025  11
   4   4  13 5775.38 936.179  25
  -4  -4 -13 5871.18 1001.28  11
   4   4  14 1656.12 488.246  25
  -4  -4 -14 1724.38 517.781  11
   4   4  15 9161.61 1115.36  25
  -4  -4 -15 8375.03 1254.31  13
  -4  -4 -15 8487.96 1122.40  11
   4   4  16 1847.33 493.253  25
  -4  -4 -16 1599.42 545.111  11
  -4  -4 -16 2611.15 565.651  13
   4   4  17 694.872 251.851  25
  -4  -4 -17 616.585 298.968  11
  -4  -4 -17 843.447 307.030  13
   4   4  18 22348.7 1292.65  25
  -4  -4 -18 24060.6 1312.06  13
  -4  -5  14 29436.4 1753.37  26
  -4  -5  14 33573.9 1735.44  15
  -4  -5  13 9963.48 1130.17  26
  -4  -5  13 10488.0 1085.84  15
  -4  -5  12 15247.0 1424.41  15
  -4  -5  11 29448.0 1929.42  28
  -4  -5  11 27888.6 2001.61  15
  -4  -5  10 13494.5 1361.53  28
  -4  -5  10 13610.2 1450.65  15
  -4  -5   9 10740.7 1230.25  28
  -4  -5   9 9865.09 1235.34  15
  -4  -5   8 3734.31 752.783  22
  -4  -5   8 26113.5 2234.42  12
  -4  -5   7-254.164 376.769  19
  -4  -5   7 397.382 315.425  12
  -4  -5   7-28.1838 221.275   5
  -4  -5   6 11640.3 1666.39  19
  -4  -5   6 13749.6 1466.52  18
  -4  -5   6 16862.1 3405.61   5
  -4  -5   6 15471.4 1563.73  12
  -4  -5   5 29336.7 4485.97   5
  -4  -5   4 37217.8 5009.89   5
  -4  -5   3 184490. 10947.5   5
   4   5  -2 111710. 5665.18   2
  -4  -5   2 142626. 9274.44   5
  -4  -5   1 17329.5 3052.96   5
   4   5  -1 12691.4 1722.14   2
  -4  -5   0 133141. 6291.53   6
  -4  -5   0 160226. 8652.33   5
  -4  -5  -1 129851. 6196.46   6
  -4  -5  -1 155492. 7828.45   5
  -4  -5  -2 721.527 541.488   6
  -4  -5  -2 779.752 516.905   5
  -4  -5  -3 67041.3 5126.58   6
  -4  -5  -3 68352.6 4303.45   5
  -4  -5  -4 152674. 8256.14   6
  -4  -5  -4 130022. 5439.11   5
  -4  -5  -5 4156.42 1514.32   6
  -4  -5  -5 3297.87 969.466   1
  -4  -5  -6 4523.24 1768.36   6
  -4  -5  -7 820.665 779.787   6
  -4  -5  -8 36808.7 4543.06   6
  -4  -5  -9 84153.5 6764.71   6
  -4  -5 -10 7396.46 1299.20  23
   4   5  10 7075.41 898.265  25
  -4  -5 -10 7196.02 1968.40   6
   4   5  11 16833.5 1460.38  25
  -4  -5 -11 15451.6 1839.52  23
  -4  -5 -12 141650. 5220.57  23
  -4  -5 -12 144944. 4882.70  11
  -4  -5 -13 45210.3 2749.91  11
   4   5  13 53988.6 2760.70  25
  -4  -5 -14 441.372 305.724  11
   4   5  14 495.053 252.812  25
  -4  -5 -15 85079.4 3394.31  11
   4   5  15 93791.1 3552.80  25
  -4  -5 -16 20266.4 1634.63  13
  -4  -5 -16 17112.4 1450.93  11
   4   5  16 20777.0 1575.75  25
  -4  -5 -17 94.0908 116.107  11
  -4  -5 -17 119.480 126.234  13
  -4  -5 -17 17.6989 207.146  17
   4   5  17-55.4063 169.181  25
  -4  -5 -18 3945.80 553.372  13
   4   5  18 3601.83 508.158  25
  -4  -6  14 190.693 113.528  15
  -4  -6  14 111.548 98.0687  26
  -4  -6  13 3368.81 585.022  15
  -4  -6  13 2561.72 541.380  26
  -4  -6  12 13657.5 1307.40  15
  -4  -6  11 1319.55 429.613  15
  -4  -6  10 34441.9 2304.17  15
  -4  -6  10 35820.4 2225.03  28
  -4  -6   9 75578.6 3962.80  12
  -4  -6   9 70791.9 3227.80  28
  -4  -6   8 14877.6 1733.80  12
  -4  -6   7 21443.6 2635.52  19
  -4  -6   7 24771.0 2164.91  12
  -4  -6   6 72718.7 4470.73  19
  -4  -6   6 77213.6 3627.88  12
  -4  -6   6 69619.5 3489.28  18
  -4  -6   6 77796.0 7975.12   5
   4   6  -6 81975.5 6543.04   2
  -4  -6   5 31622.4 2240.28  18
  -4  -6   5 35127.8 5302.30   5
   4   6  -5 30484.1 3832.00   2
  -4  -6   5 26228.4 2492.49  19
   4   6  -4 11148.8 2124.78   2
  -4  -6   4 12177.7 3233.66   5
   4   6  -3 10909.2 2007.48   2
  -4  -6   3 13152.0 3363.37   5
  -4  -6   2 8742.37 2707.29   5
   4   6  -2 4706.65 1280.38   2
  -4  -6   1 781.157 494.529   6
  -4  -6   1 6109.22 2252.87   5
   4   6  -1 4982.35 1219.05   2
  -4  -6   0 21108.4 2600.20   6
  -4  -6   0 24981.0 4144.17   5
  -4  -6  -1 1185.00 561.614   6
  -4  -6  -1 1354.66 844.328   5
  -4  -6  -2 87681.3 5761.44   6
  -4  -6  -2 102688. 6733.26   5
  -4  -6  -3 113088. 7139.84   6
  -4  -6  -3 120921. 6590.46   5
  -4  -6  -4 21566.9 3473.18   6
  -4  -6  -5 76663.2 7525.87   6
  -4  -6  -6 39208.6 6192.86   6
  -4  -6  -7 4883.93 2309.20   6
  -4  -6  -8 15844.8 3831.19   6
  -4  -6  -9 25697.3 2101.12  23
   4   6   9 27542.9 1699.00  25
  -4  -6  -9 23724.0 4007.43   6
  -4  -6 -10 4567.35 962.236  23
   4   6  10 5107.02 763.795  25
  -4  -6 -10 5385.77 1847.87   6
   4   6  11 2045.98 513.770  25
  -4  -6 -11 1849.59 625.855  23
   4   6  12 23089.3 1766.77  25
  -4  -6 -12 20862.8 2054.84  23
   4   6  13 13372.0 1357.90  25
  -4  -6 -13 11510.3 1477.51  23
   4   6  14 36681.4 2251.19  25
  -4  -6 -14 29071.8 2173.20  23
   4   6  15 94.3681 148.953  25
  -4  -6 -16 25214.7 1807.35  13
   4   6  16 24338.9 1693.10  25
  -4  -6 -17 40655.9 2041.49  13
   4   6  17 42281.0 2020.09  25
  -4  -6 -18 17844.1 1156.91  13
   4   6  18 18162.9 1155.91  25
  -4  -7  13 8189.80 844.764  15
  -4  -7  13 5944.50 749.858  26
  -4  -7  12 11844.3 1156.40  15
  -4  -7  11 493.589 314.904  15
  -4  -7  10 551.454 310.940  15
  -4  -7  10 519.203 286.614  28
  -4  -7   9 3801.68 957.705  12
  -4  -7   9 4537.72 868.232  15
  -4  -7   9 3802.55 811.149  28
  -4  -7   8 11636.0 1554.16  12
  -4  -7   7 6443.41 1713.43  19
  -4  -7   7 8831.67 1318.11  12
  -4  -7   6 3648.31 892.873  18
  -4  -7   6 3897.45 1112.96  19
  -4  -7   6 3930.23 859.550  12
  -4  -7   5 28114.3 2643.04  19
  -4  -7   5 24910.1 2090.37  12
  -4  -7   5 26628.9 2173.85  18
  -4  -7   5 26560.0 5150.88   5
   4   7  -5 28047.4 3822.57   2
  -4  -7   4 102556. 4265.87  18
   4   7  -4 112000. 7331.52   2
  -4  -7   4 113021. 5054.75  19
  -4  -7   3 761.619 854.349   5
   4   7  -3-298.348 360.063   2
  -4  -7   3 345.023 241.479  19
  -4  -7   2 85832.4 10249.1   5
   4   7  -2 57281.4 4755.38   2
  -4  -7   1 155631. 14160.0   5
  -4  -7   0 32245.3 3333.17   6
  -4  -7   0 38326.8 6386.08   5
  -4  -7  -1 14033.7 2312.53   6
  -4  -7  -1 16528.6 3761.32   5
  -4  -7  -2 117.950 154.474   6
  -4  -7  -2 166.557 391.836   5
  -4  -7  -3 16697.7 2936.76   6
  -4  -7  -3 17723.8 2892.45   5
  -4  -7  -4 4087.45 1661.92   6
  -4  -7  -5 1689.99 1333.99   6
  -4  -7  -6 7635.99 3406.47   6
  -4  -7  -7 43027.3 6931.56   6
  -4  -7  -8 6665.59 1033.54  23
  -4  -7  -8 7324.96 2765.42   6
  -4  -7  -9 12453.4 1491.28  23
   4   7   9 13605.8 1219.45  25
   4   7  10 85664.9 3189.96  25
  -4  -7 -10 85375.6 4075.48  23
   4   7  11 57082.6 2700.17  25
  -4  -7 -11 53980.4 3311.53  23
   4   7  12 5371.56 848.448  25
  -4  -7 -12 4418.04 952.004  23
   4   7  13 11762.4 1269.68  25
  -4  -7 -13 10775.7 1445.90  23
   4   7  14 31308.5 2054.34  25
  -4  -7 -14 25704.9 2108.99  23
   4   7  15 2856.70 598.670  25
  -4  -7 -15 2199.74 584.826  23
  -4  -7 -15 1842.79 595.124  13
  -4  -7 -16 580.904 329.094  13
   4   7  16 404.046 211.475  25
  -4  -7 -17 330.227 241.709  13
   4   7  17 123.438 89.0996  25
  -4  -7 -18 3134.39 465.520  13
  -4  -8  12 16884.2 1261.63  15
  -4  -8  11 35427.2 2032.13  15
  -4  -8  10 9302.93 1147.55  15
  -4  -8  10 9032.57 1056.46  28
  -4  -8   9 2985.25 793.100  12
  -4  -8   9 2942.10 687.145  15
  -4  -8   9 2719.91 671.887  28
  -4  -8   8 21142.1 2069.50  12
  -4  -8   7 6949.60 1176.70  12
  -4  -8   7 7110.59 1498.52  19
  -4  -8   6 5652.12 1418.75  19
  -4  -8   6 5438.86 1021.01  12
  -4  -8   6 5277.85 1096.73  18
  -4  -8   5 2870.23 1026.21  19
  -4  -8   5 3569.06 824.765  12
  -4  -8   5 3856.73 894.711  18
  -4  -8   4 1928.84 617.943  18
  -4  -8   4 2436.80 845.038  19
  -4  -8   3 5959.94 1166.41  19
  -4  -8   3 6383.35 2959.83   5
  -4  -8   3 6039.57 997.151  23
  -4  -8   3 5416.38 1011.32  18
  -4  -8   2 364.344 706.116   5
  -4  -8   2 1128.15 495.745  19
  -4  -8   2 813.016 333.334  18
  -4  -8   2 164.886 210.628  23
  -4  -8   1 56153.3 10628.9   5
  -4  -8   1 33969.7 2630.56  19
  -4  -8   0 47168.9 9944.51   5
  -4  -8  -1 132842. 12861.4   5
  -4  -8  -2 1191.69 1012.72   5
  -4  -8  -2 994.232 749.860   6
  -4  -8  -3 56049.4 6181.10   5
  -4  -8  -3 54745.5 5509.05   6
  -4  -8  -4 64458.8 6838.05   6
  -4  -8  -5 10089.9 3114.31   6
  -4  -8  -6 15325.7 4326.01   6
  -4  -8  -6 10740.1 1256.45  23
  -4  -8  -7 9444.73 3637.93   6
  -4  -8  -7 9516.27 1221.72  23
  -4  -8  -7 9586.94 1370.19  19
  -4  -8  -8 15168.4 1593.80  23
  -4  -8  -8 14327.0 4079.74   6
  -4  -8  -8 16891.1 1858.29  19
   4   8   8 16452.3 1360.26  25
   4   8   9 2699.86 561.149  25
  -4  -8  -9 2613.27 664.397  23
   4   8  10 1755.02 462.376  25
  -4  -8 -10 1620.75 578.841  23
   4   8  11 1015.14 359.589  25
  -4  -8 -11 706.425 422.044  23
   4   8  12 36763.4 2238.91  25
  -4  -8 -12 34527.8 2637.82  23
   4   8  13 1732.01 478.814  25
  -4  -8 -13 1506.79 555.600  23
   4   8  14 14743.3 1379.05  25
  -4  -8 -14 12400.7 1462.62  23
   4   8  15 35711.4 2080.54  25
  -4  -8 -15 32170.4 2187.81  23
   4   8  16 13971.8 1225.22  25
  -4  -8 -16 12091.1 1193.08  23
  -4  -8 -16 14210.8 1259.80  13
  -4  -8 -17 3122.84 512.510  13
   4   8  17 2792.56 500.789  25
  -4  -9  11-18.4211 102.535  15
  -4  -9  10 12740.8 1235.23  15
  -4  -9  10 11837.0 1101.55  28
  -4  -9   9 9490.44 1164.08  15
  -4  -9   9 9505.59 1143.18  28
  -4  -9   8 884.193 387.455  12
  -4  -9   7 14523.3 1691.47  12
  -4  -9   7 14376.5 2097.93  19
  -4  -9   6 30238.3 3086.04  19
  -4  -9   6 23583.4 2158.82  12
  -4  -9   6 26036.3 2385.55  18
  -4  -9   5 14507.1 2095.37  19
  -4  -9   5 11693.1 1530.06  12
  -4  -9   5 13261.0 1715.08  18
  -4  -9   4 4544.37 959.848  18
  -4  -9   4 4636.24 1171.52  19
  -4  -9   3 56156.4 3409.08  18
  -4  -9   3 64248.1 4064.99  19
  -4  -9   2 27154.8 2252.32  18
  -4  -9   2 30556.5 2689.04  19
  -4  -9   1 8252.41 3967.54   5
  -4  -9   1 5553.01 1148.47  19
  -4  -9   1 4674.54 902.992  18
  -4  -9   1 5676.10 919.337  23
  -4  -9   0 8650.91 1384.92  19
  -4  -9   0 9536.81 4253.04   5
  -4  -9   0 8426.17 1110.49  23
  -4  -9   0 8362.59 1213.21  18
  -4  -9  -1 3727.47 2487.82   5
  -4  -9  -1 3334.63 911.183  19
  -4  -9  -1 2783.15 750.831  18
  -4  -9  -1 2541.37 591.480  23
  -4  -9  -2 12481.7 1321.65  23
  -4  -9  -2 12837.0 3935.14   5
  -4  -9  -2 13939.2 1711.37  19
  -4  -9  -3 10872.1 1486.97  19
  -4  -9  -3 10326.5 1201.67  23
  -4  -9  -3 13045.9 2806.49   6
  -4  -9  -4 21772.7 2116.90  19
  -4  -9  -4 18910.5 1658.21  23
  -4  -9  -4 22802.4 3913.77   6
  -4  -9  -5 79682.1 3971.48  19
  -4  -9  -5 71624.3 3284.48  23
  -4  -9  -6 46540.3 3081.74  19
  -4  -9  -6 43292.1 2632.29  23
  -4  -9  -7 704.780 353.754  23
  -4  -9  -7 464.066 367.020  19
  -4  -9  -7-74.2874 433.102   6
  -4  -9  -8 59339.5 3239.61  23
  -4  -9  -8 62464.2 3669.93  19
  -4  -9  -9 98896.4 4327.43  23
  -4  -9  -9 102510. 4817.34  19
  -4  -9 -10-41.6134 272.920  23
   4   9  11 184.713 93.8788  25
  -4  -9 -11 103.092 266.203  23
   4   9  12 8448.09 1100.46  25
  -4  -9 -12 8043.23 1252.68  23
   4   9  13 5248.18 878.199  25
  -4  -9 -13 5444.09 1022.46  23
   4   9  14 553.055 283.186  25
  -4  -9 -14 699.038 340.856  23
  -4  -9 -14 1225.80 421.370  13
  -4  -9 -15 1890.35 519.334  23
  -4  -9 -15 2185.07 488.237  13
  -4  -9 -16 799.982 296.973  23
  -4  -9 -16 1087.57 332.942  13
  -4  -9 -17 3448.57 532.134  23
  -4  -9 -17 658.722 460.985  17
  -4 -10  10 15404.0 1218.72  15
  -4 -10   9 5914.71 798.781  28
  -4 -10   9 6940.52 900.623  15
  -4 -10   8 3625.53 799.016  12
  -4 -10   8 3089.09 657.857  15
  -4 -10   7 2250.40 661.481  12
  -4 -10   6 150.417 272.199  19
  -4 -10   6-190.327 306.052  12
  -4 -10   6 6.15928 282.911  18
  -4 -10   5 13853.3 2013.48  19
  -4 -10   5 10932.3 1465.86  12
  -4 -10   5 11418.2 1594.99  18
  -4 -10   4 22461.6 2610.71  19
  -4 -10   4 20229.3 2137.19  18
  -4 -10   3 3998.31 1020.50  19
  -4 -10   3 3116.45 809.439  18
  -4 -10   2 53610.6 3760.82  19
  -4 -10   2 51420.3 3295.56  18
  -4 -10   1 45847.1 3414.44  19
  -4 -10   1 40780.0 2889.81  18
  -4 -10   0 15102.4 1910.85  19
  -4 -10   0 13687.3 1663.12  18
  -4 -10   0 14108.5 1476.50  23
  -4 -10  -1 30979.6 2752.11  19
  -4 -10  -1 26204.2 2374.81  18
  -4 -10  -1 31015.4 2169.29  23
  -4 -10  -2 35474.0 2898.52  19
  -4 -10  -2 34764.2 2295.37  23
  -4 -10  -3 13944.5 1866.18  19
  -4 -10  -3 14416.8 1487.09  23
  -4 -10  -4 5293.17 896.653  23
  -4 -10  -4 4498.36 1877.62   6
  -4 -10  -4 5334.79 1097.29  19
  -4 -10  -5 2243.08 745.805  19
  -4 -10  -5 1869.83 556.787  23
  -4 -10  -6 525.174 325.442  19
  -4 -10  -6 482.373 296.658  23
  -4 -10  -7 8812.48 1262.73  23
  -4 -10  -7 8435.79 1501.90  19
  -4 -10  -8 1319.51 601.205  19
  -4 -10  -8 1780.97 582.748  23
  -4 -10  -9 2461.58 765.713  19
  -4 -10  -9 2788.56 692.355  23
  -4 -10 -10 33976.9 2616.56  23
  -4 -10 -10 34500.0 2830.09  19
  -4 -10 -11 34202.7 2608.13  23
  -4 -10 -11 32410.0 2631.32  19
  -4 -10 -12 5091.90 997.560  23
  -4 -10 -13 51125.5 3044.26  23
  -4 -10 -14 64569.5 3226.97  23
  -4 -10 -15 1304.31 436.010  23
  -4 -10 -16 466.273 412.826  17
  -4 -10 -16 848.806 319.198  23
  -4 -11   9 14225.7 1132.41  15
  -4 -11   8 17485.8 1453.40  28
  -4 -11   8 30652.5 1823.87  15
  -4 -11   7 19981.8 1584.60  15
  -4 -11   7 22441.4 1865.92  12
  -4 -11   6-21.2384 94.6144  12
  -4 -11   6 6.56441 202.325  18
  -4 -11   5 41894.9 3037.99  18
  -4 -11   5 49629.7 3760.29  19
  -4 -11   4 8267.98 1389.70  18
  -4 -11   4 9688.66 1631.14  19
  -4 -11   3 195.935 239.784  18
  -4 -11   3 899.852 520.864  19
  -4 -11   2 26673.7 2445.36  18
  -4 -11   2 29565.1 2838.32  19
  -4 -11   1-114.783 329.080  19
  -4 -11   1 379.255 243.721  18
  -4 -11   0 1897.79 630.464  18
  -4 -11   0 1377.89 613.634  19
  -4 -11  -1 4379.11 1065.30  19
  -4 -11  -1 4206.72 997.827  18
  -4 -11  -2 667.632 404.233  19
  -4 -11  -2 674.821 431.670  18
  -4 -11  -2 511.186 284.719  23
  -4 -11  -3 23990.4 1964.03  23
  -4 -11  -3 23275.2 2406.56  19
  -4 -11  -4 23687.8 1981.04  23
  -4 -11  -4 22215.6 2335.92  19
  -4 -11  -5 1866.58 658.356  19
  -4 -11  -5 1378.45 475.680  23
  -4 -11  -6 51794.7 3027.98  23
  -4 -11  -6 54189.9 3678.50  19
  -4 -11  -7 69088.6 3542.15  23
  -4 -11  -7 85088.3 4503.19  19
  -4 -11  -8 32026.6 2428.71  23
  -4 -11  -8 34192.6 2887.84  19
  -4 -11  -9 13522.8 1597.82  23
  -4 -11  -9 11497.6 1681.16  19
  -4 -11 -10 17170.4 1826.84  23
  -4 -11 -10 15027.7 1912.76  19
  -4 -11 -11 2963.57 752.371  23
  -4 -11 -11 2267.01 710.954  19
  -4 -11 -12 889.354 401.072  23
  -4 -11 -13 180.348 146.753  23
  -4 -11 -14 5048.47 875.123  23
  -4 -11 -14 2576.11 986.303  17
  -4 -11 -15 19779.6 1573.63  23
  -4 -11 -15 3370.48 1195.29  17
  -4 -11 -16 8732.32 912.976  23
  -4 -11 -16 3405.51 925.265  17
  -4 -12   7 4190.46 634.915  15
  -4 -12   7 123.408 155.704  22
  -4 -12   6 16037.7 1325.99  15
  -4 -12   5 5875.80 1087.65  18
  -4 -12   4 24816.1 2281.69  18
  -4 -12   4 26004.0 2614.30  19
  -4 -12   3 57087.2 3523.74  18
  -4 -12   3 68225.5 4287.03  19
  -4 -12   2 31410.5 2638.50  18
  -4 -12   2 35448.6 3077.41  19
  -4 -12   1 3585.47 923.940  19
  -4 -12   1 3119.18 824.942  18
  -4 -12   0 40447.3 3049.80  18
  -4 -12   0 42299.2 3424.37  19
  -4 -12  -1 48481.1 3309.86  18
  -4 -12  -1 48983.5 3709.00  19
  -4 -12  -2 6071.29 1312.06  19
  -4 -12  -2 5440.15 1149.24  18
  -4 -12  -3 5627.50 1552.82  18
  -4 -12  -3 11058.7 1328.44  23
  -4 -12  -3 9385.13 1727.69  19
  -4 -12  -4 1353.58 655.150  19
  -4 -12  -4 1107.06 418.632  23
  -4 -12  -5 2705.10 935.014  19
  -4 -12  -5 3608.44 772.207  23
  -4 -12  -6 14133.8 1563.36  23
  -4 -12  -6 13913.5 1923.03  19
  -4 -12  -7 5600.14 1202.41  19
  -4 -12  -7 5322.00 968.240  23
  -4 -12  -8 21885.6 1968.70  23
  -4 -12  -8 22336.9 2358.96  19
  -4 -12  -9 50323.5 2991.23  23
  -4 -12  -9 50312.8 3440.45  19
  -4 -12 -10 4608.00 1005.88  19
  -4 -12 -10 4650.55 921.874  23
  -4 -12 -11 34142.2 2434.33  23
  -4 -12 -11 31775.2 2546.31  19
  -4 -12 -12 53792.7 2953.76  23
  -4 -12 -12 45801.8 2850.82  19
  -4 -12 -13 5668.09 1350.57  17
  -4 -12 -13 17512.0 1598.10  23
  -4 -12 -14 2391.83 825.865  17
  -4 -12 -14 8374.14 1026.61  23
  -4 -12 -15 24955.2 1614.43  23
  -4 -13   4 2871.42 755.927  18
  -4 -13   3 777.179 368.042  19
  -4 -13   3 413.604 273.017  18
  -4 -13   2 5796.30 1243.22  19
  -4 -13   2 4626.69 959.955  18
  -4 -13   1 11439.3 1757.79  19
  -4 -13   1 12100.1 1581.50  18
  -4 -13   0 5470.72 1131.66  18
  -4 -13   0 6260.04 1248.25  19
  -4 -13  -1 38096.4 3199.09  19
  -4 -13  -1 39259.5 2923.74  18
  -4 -13  -2 76263.7 4538.59  19
  -4 -13  -2 80026.2 4197.19  18
  -4 -13  -3 38216.2 3321.59  19
  -4 -13  -3 45145.9 3165.50  18
  -4 -13  -4 5638.38 1249.34  19
  -4 -13  -4 6955.87 1279.54  18
  -4 -13  -5 38530.4 3240.94  19
  -4 -13  -5 39984.7 2509.25  23
  -4 -13  -5 40018.6 3146.07  18
  -4 -13  -6 75364.0 3476.23  23
  -4 -13  -6 71440.2 4248.83  19
  -4 -13  -7 378.874 216.778  23
  -4 -13  -7 541.705 436.087  19
  -4 -13  -8 8022.90 1142.15  23
  -4 -13  -8 7928.59 1384.44  19
  -4 -13  -9 1557.58 461.615  23
  -4 -13  -9 1121.33 512.811  19
  -4 -13 -10 378.584 281.934  23
  -4 -13 -10-97.7079 141.227  19
  -4 -13 -11 9280.98 1180.87  23
  -4 -13 -11 7403.69 1185.93  19
  -4 -13 -12 5005.37 843.974  23
  -4 -13 -12 3396.73 784.838  19
  -4 -13 -13 10225.9 1122.94  23
  -4 -13 -14 19470.9 1425.46  23
  -4 -14   3 2669.83 660.983  18
  -4 -14   2 10774.0 1487.97  19
  -4 -14   2 11041.0 1363.66  18
  -4 -14   1 23818.4 2307.67  19
  -4 -14   1 20573.2 1946.65  18
  -4 -14   0 2672.75 760.871  19
  -4 -14   0 2062.80 588.434  18
  -4 -14  -1 906.826 409.493  18
  -4 -14  -1 887.199 473.396  19
  -4 -14  -2 462.512 362.749  19
  -4 -14  -2 652.887 393.753  18
  -4 -14  -3 1052.77 536.060  19
  -4 -14  -3 1321.77 469.328  18
  -4 -14  -4 8625.04 1424.06  19
  -4 -14  -4 9922.69 1389.73  18
  -4 -14  -5 693.663 469.209  19
  -4 -14  -5 444.688 370.535  18
  -4 -14  -6 23860.5 2447.85  19
  -4 -14  -6 24544.8 2269.76  18
  -4 -14  -7 30861.0 2637.06  19
  -4 -14  -7 31825.0 2097.69  23
  -4 -14  -7 29626.6 2687.86  18
  -4 -14  -8 12070.5 1284.50  23
  -4 -14  -8 8241.54 1452.82  19
  -4 -14  -9 11459.2 1252.47  23
  -4 -14  -9 9296.51 1478.16  19
  -4 -14 -10 25483.0 1807.70  23
  -4 -14 -10 20253.7 2016.78  19
  -4 -14 -11 29589.5 1878.07  23
  -4 -14 -11 25301.3 2030.93  19
  -4 -14 -12-24.2082 134.292  23
  -4 -14 -12 193.059 260.103  19
  -4 -14 -13 7324.26 813.919  23
  -4 -15   2 1227.68 461.211  18
  -4 -15   1 2795.61 624.628  18
  -4 -15   0 26513.4 1970.63  18
  -4 -15   0 29251.1 2293.47  19
  -4 -15  -1 16299.2 1636.68  18
  -4 -15  -1 18176.5 1876.81  19
  -4 -15  -2 65.1552 115.827  18
  -4 -15  -2 327.459 298.789  19
  -4 -15  -3 13557.2 1509.61  18
  -4 -15  -3 14586.1 1725.50  19
  -4 -15  -4 20187.7 1833.34  18
  -4 -15  -4 17272.4 1930.41  19
  -4 -15  -5 3763.97 903.584  19
  -4 -15  -5 4126.97 810.066  18
  -4 -15  -6 5023.47 1016.37  19
  -4 -15  -6 5745.86 964.088  18
  -4 -15  -7 317.515 284.780  19
  -4 -15  -7 53.8417 97.4695  18
  -4 -15  -8 502.676 329.817  19
  -4 -15  -8 503.608 292.514  18
  -4 -15  -9 417.548 269.549  19
  -4 -15  -9 186.942 180.369  18
  -4 -15 -10-318.346 338.558  19
  -4 -15 -11 4787.79 777.419  19
  -4 -16  -3 1899.82 477.775  18
  -4 -16  -3 1857.33 581.982  19
  -4 -16  -4 9275.92 1065.46  18
  -4 -16  -4 8624.93 1196.11  19
  -4 -16  -5 27077.3 1810.57  18
  -4 -16  -5 27325.5 2112.32  19
  -4 -16  -6 9250.93 1195.24  19
  -4 -16  -7 541.447 306.407  19
  -4 -16  -8 16292.4 1530.09  19
  -5  13   6 6175.14 551.685  20
  -5  13   5 422.047 132.032  20
  -5  13   4 604.633 175.316  20
  -5  13   3 434.078 148.748  20
  -5  13   2 6233.35 539.618  20
  -5  12   9 5800.59 559.769  20
  -5  12   8 29389.1 1343.78  20
  -5  12   7 651.080 214.936  20
  -5  12   6 15550.1 1055.59  20
  -5  12   5 54733.6 1988.14  20
  -5  12   4 17437.5 1125.23  20
  -5  12   3 585.857 202.519  20
  -5  12   2 15119.1 1014.15  20
  -5  12   1 16951.1 1029.01  20
  -5  12   0 925.014 237.284  20
   5 -12   1 1481.35 448.990  12
   5 -12   2 375.473 202.458  12
  -5  12  -3 1123.26 279.731  16
  -5  11  10 1380.30 309.345  29
  -5  11  10 1429.10 304.129  20
  -5  11   9 1715.52 364.810  29
  -5  11   9 1377.10 337.441  20
  -5  11   8 10910.1 934.347  29
  -5  11   8 11909.5 970.319  20
  -5  11   7 299.983 168.138  29
  -5  11   7 129.755 97.7012  20
  -5  11   6 1004.34 292.681  29
  -5  11   6 647.082 258.521  20
  -5  11   5 2129.78 415.896  29
  -5  11   5 2076.81 434.938  20
  -5  11   4 5629.42 723.319  20
  -5  11   3 37540.6 1836.45  20
  -5  11   2 378.463 188.542  20
  -5  11   1 4485.56 606.495  20
  -5  11   0 42936.1 1801.02  20
  -5  11  -1 26973.5 1552.34  21
  -5  11  -1 22821.0 1245.59  20
  -5  11  -2 331.942 144.465  21
   5 -11   2 380.663 253.416  12
  -5  11  -3 15647.9 1166.17  21
   5 -11   3 12867.2 1374.75  12
  -5  11  -4 5613.89 629.453  16
  -5  11  -4 10565.7 917.268  21
  -5  11  -5-114.855 101.650  16
  -5  11  -5 64.8488 108.746  21
  -5  11  -6 4107.14 491.869  21
  -5  10  12 1329.68 264.853  20
  -5  10  12 1558.30 332.114  29
  -5  10  11 798.337 237.663  20
  -5  10  11 825.614 262.968  29
  -5  10  10 17972.3 1267.33  29
  -5  10  10 17111.4 1163.11  20
  -5  10   9 12486.4 1103.58  29
  -5  10   9 12241.5 1042.37  20
  -5  10   8 134.673 100.432  29
  -5  10   8 222.561 181.819  20
  -5  10   7 33627.6 1878.48  29
  -5  10   7 37573.2 1941.95  20
  -5  10   6 28500.5 1703.17  29
  -5  10   6 30426.0 1785.03  20
  -5  10   5 18.6392 73.1860  29
  -5  10   5 214.093 166.002  20
  -5  10   4 479.842 239.917  20
  -5  10   3 9284.39 993.146  20
  -5  10   2-7.64634 134.966  20
  -5  10   1 2747.73 529.783  20
  -5  10   0 275.672 155.995  20
  -5  10  -1 13191.1 1239.75  21
  -5  10  -1 10546.4 938.570  20
  -5  10  -2 27840.5 1833.10  21
  -5  10  -3 1616.82 447.989  21
   5 -10   3 1019.46 485.753  12
  -5  10  -4 10222.6 1074.81  21
   5 -10   4 9524.49 1223.60  12
  -5  10  -5 16643.1 1183.49  16
  -5  10  -5 26693.4 1644.54  21
  -5  10  -6 2493.50 412.790  16
  -5  10  -6 3841.94 585.471  21
  -5  10  -7 206.301 152.209  21
   5  -9 -13 1251.40 368.939  19
  -5   9  13 13866.9 968.403  29
  -5   9  12 8728.33 774.744  20
  -5   9  12 10205.3 935.033  29
  -5   9  11 126.246 150.297  20
  -5   9  11 53.0705 124.045  29
  -5   9  10 9258.83 924.891  20
  -5   9  10 10371.9 1053.45  29
  -5   9   9 8124.66 915.198  20
  -5   9   9 7318.48 932.454  29
  -5   9   8 4595.80 718.244  20
  -5   9   8 4519.19 733.751  29
  -5   9   7 1845.61 452.168  20
  -5   9   7 1420.80 422.085  29
  -5   9   6 556.048 256.028  20
  -5   9   6 312.540 130.988  29
  -5   9   5 22572.2 1615.79  20
  -5   9   5 20197.5 1538.81  29
  -5   9   4 9301.35 1033.84  20
  -5   9   4 9076.90 985.147  29
  -5   9   3 3689.64 636.813  20
  -5   9   2 52445.2 2369.43  20
  -5   9   1 28207.3 1719.79  20
  -5   9   0 567.878 285.336  21
  -5   9   0 700.400 259.383  20
  -5   9  -1 14744.4 1456.16  21
  -5   9  -1 13398.1 1118.65  20
  -5   9  -2 27276.7 2057.91  21
  -5   9  -3 3801.57 769.029  21
  -5   9  -4 236.646 137.851  21
  -5   9  -5 244.009 193.778  21
  -5   9  -6 4610.56 738.968  21
  -5   9  -6 3262.95 573.073  16
  -5   9  -7 5665.52 758.781  21
  -5   9  -7 4053.13 564.694  16
  -5   9  -8 261.187 134.987  21
  -5   9  -9 14967.4 996.492  21
  -5   8  14 4054.82 488.549  29
  -5   8  13 5626.71 675.890  29
   5  -8 -13 4583.42 643.733  23
  -5   8  12 7505.54 854.947  29
  -5   8  11 24393.4 1654.86  29
  -5   8  11 12050.5 1302.17  17
  -5   8  10 992.928 374.308  29
  -5   8   9 28750.3 1967.22  29
  -5   8   8 44763.1 2433.20  29
  -5   8   7 5184.65 821.244  29
  -5   8   6 2596.76 594.314  29
  -5   8   5 605.071 284.930  29
  -5   8   4 10779.2 1124.25  29
  -5   8   3 400.377 225.241  29
  -5   8   3 442.388 145.108  20
  -5   8   2 313.191 116.796  20
  -5   8   1 6107.84 797.713  20
  -5   8   0 11068.2 1241.20  21
  -5   8   0 11274.9 1072.06  20
  -5   8  -1 3988.67 796.193  21
  -5   8  -1 4027.38 620.281  20
  -5   8  -2 12064.3 1515.16  21
  -5   8  -3 45910.6 3036.38  21
  -5   8  -4 10230.7 1143.10  11
  -5   8  -4 14430.8 1661.96  21
  -5   8  -5 481.125 271.625  11
  -5   8  -5 807.525 359.701  21
  -5   8  -6 11086.1 1263.51  21
  -5   8  -6 8161.33 922.263  11
  -5   8  -6 8921.52 1011.62  16
  -5   8  -7 9952.41 981.718  11
  -5   8  -7 11769.3 1045.71  16
  -5   8  -8 1120.03 338.440  21
  -5   8  -9-203.567 160.401  21
  -5   8 -10 1507.40 315.621  21
  -5   7  14 12059.2 914.676  29
   5  -7 -14 12287.7 1081.91  23
  -5   7  13 466.816 209.439  29
   5  -7 -13 223.068 161.275  23
   5  -7 -12 455.738 270.710  23
  -5   7  12 650.166 277.706  29
  -5   7  12 690.388 319.736  17
   5  -7 -11 436.123 262.716  23
  -5   7  11 351.123 165.822  29
  -5   7  11 531.243 249.683  17
  -5   7  10 12340.4 1295.05  29
  -5   7  10 11584.1 1358.03  17
  -5   7   9 1716.25 477.023  29
  -5   7   9 1795.77 551.671  17
  -5   7   8 45195.4 2519.81  29
  -5   7   7 57240.0 2835.75  29
  -5   7   6 59017.3 2793.96  29
  -5   7   5 5477.10 835.336  29
  -5   7   4 41352.6 2250.09  29
  -5   7   3 72687.3 2872.42  29
  -5   7   1 8312.56 1010.75  21
  -5   7   1 8666.79 970.693  20
  -5   7   0 10329.4 1204.83  21
  -5   7   0 11723.1 1081.03  20
  -5   7  -1 6028.12 1021.36  21
  -5   7  -1 6121.95 783.241  20
  -5   7  -2 120.224 201.108  11
  -5   7  -2-3.35595 245.431  21
  -5   7  -3 635.179 279.727  11
  -5   7  -3 647.416 550.036  21
  -5   7  -4 4515.68 768.938  11
  -5   7  -4 6218.20 1352.15  21
  -5   7  -5 7315.02 959.878  11
  -5   7  -5 8651.19 1355.66  21
  -5   7  -6 604.456 303.899  11
  -5   7  -6 504.058 275.353  21
  -5   7  -7 17236.5 1610.68  21
  -5   7  -7 14633.7 1307.53  11
  -5   7  -7 15665.2 1330.08  16
  -5   7  -8 30061.6 1993.71  21
  -5   7  -8 30382.9 1667.96  16
  -5   7  -9 10626.7 1010.89  11
  -5   7  -9 13924.2 1243.88  21
  -5   7 -10 841.687 303.632  11
  -5   7 -10 1214.36 302.035  21
  -5   7 -11 9923.67 825.921  21
   5  -6 -15 145.384 129.900  23
  -5   6  14 21531.1 1275.06  29
   5  -6 -14 23552.2 1595.07  23
  -5   6  13 42598.6 2505.72  17
  -5   6  13 44313.6 2103.22  29
   5  -6 -13 47371.2 2395.44  23
  -5   6  12 4261.10 854.225  17
  -5   6  12 3859.20 679.450  29
   5  -6 -12 3600.33 687.956  23
  -5   6  11 18555.0 1909.83  17
  -5   6  11 20528.2 1655.94  29
   5  -6 -11 19643.7 1694.47  23
  -5   6  10 28531.6 2321.19  17
  -5   6  10 25700.7 1908.40  29
   5  -6 -10 23744.6 1869.58  23
  -5   6   9 31761.6 2490.84  17
  -5   6   9 31501.6 2142.85  29
  -5   6   8 8390.81 1298.64  17
  -5   6   8 6679.17 985.930  29
  -5   6   7 785.951 404.286  17
  -5   6   7 594.318 335.942  29
  -5   6   6 1741.08 484.108  29
  -5   6   5 490.537 510.234   4
  -5   6   5 237.922 174.992  29
  -5   6   4 234.774 148.635  29
  -5   6   4 939.422 694.899   4
  -5   6   4 301.202 309.178   8
  -5   6   3 3780.09 654.285  29
  -5   6   3 3211.50 845.364   8
  -5   6   2 38534.4 2035.66  29
  -5   6   2 38957.9 2632.03   8
  -5   6   1 48730.4 2948.06   8
  -5   6   1 42171.8 2165.73  21
  -5   6   0 8631.27 1309.95   8
  -5   6   0 6544.32 931.959  21
  -5   6  -1 46687.1 3005.67   8
  -5   6  -1 42256.8 2487.21  21
  -5   6  -1 44468.5 2006.14  20
  -5   6  -2 108165. 4456.20  21
  -5   6  -2 140703. 4088.51  11
  -5   6  -3 1518.29 686.480  21
  -5   6  -3 1935.23 525.558  11
  -5   6  -4 12070.5 2056.28  21
  -5   6  -4 15736.7 1436.39  11
  -5   6  -5 28597.2 2687.80  21
  -5   6  -5 36071.2 2175.21  11
  -5   6  -6 8773.05 1318.83  21
  -5   6  -6 9896.69 1144.11  11
  -5   6  -7 6997.50 1087.57  21
  -5   6  -7 7835.27 984.594  16
  -5   6  -7 7422.69 993.366  11
  -5   6  -8 2335.65 565.584  21
  -5   6  -8 2382.11 505.982  16
  -5   6  -8 1961.16 492.521  11
  -5   6  -9-126.769 140.235  21
  -5   6  -9 109.620 160.031  11
  -5   6 -10 9226.67 998.861  21
  -5   6 -10 7773.79 921.144  11
  -5   6 -11 83.9339 122.211  21
  -5   6 -11 164.996 125.126  11
  -5   6 -12 4842.51 593.610  11
   5  -5 -16 7659.87 749.687  23
   5  -5 -15 163.853 173.560  23
  -5   5  14 4514.45 824.805  17
   5  -5 -14 5025.13 800.169  23
  -5   5  13 627.436 360.191  17
  -5   5  13 505.666 227.393  29
   5  -5 -13 505.979 244.487  23
  -5   5  12 4605.42 940.238  17
  -5   5  12 4007.72 704.891  29
   5  -5 -12 3499.62 783.146  23
  -5   5  11 13957.4 1628.22  17
  -5   5  11 11805.5 1272.13  29
  -5   5  10 175.446 211.575  17
  -5   5  10 68.0469 169.312  29
  -5   5   9 27172.6 2482.77  17
  -5   5   9 24433.0 1881.26  29
  -5   5   8 70052.3 4195.48  17
  -5   5   7 12164.0 1751.32  17
  -5   5   6 83346.3 4515.77  17
  -5   5   6 68907.9 5970.01   4
  -5   5   6 74909.4 3551.68   8
  -5   5   5 116379. 4244.97   8
  -5   5   5 106981. 7270.24   4
  -5   5   4 33025.0 2197.56   8
  -5   5   4 30481.1 3766.47   4
  -5   5   3 13223.2 1361.30   8
  -5   5   3 12942.6 2382.50   4
  -5   5   2 51286.9 2651.09   8
  -5   5   1 15282.6 1444.36   8
  -5   5   0 7480.88 1027.23   8
  -5   5   0 7596.51 942.377  11
  -5   5  -1 263.398 198.217   8
  -5   5  -1 317.954 243.382  11
  -5   5  -1 276.282 246.987  21
  -5   5  -2 5496.65 893.765   8
  -5   5  -2 6728.80 899.399  11
  -5   5  -2 5060.54 868.794  21
  -5   5  -3 49340.7 2431.44  11
  -5   5  -3 37642.0 1935.59  14
  -5   5  -3 41183.8 2537.07   8
   5  -5   3 49388.6 7235.58   7
  -5   5  -3 37892.5 2627.80  21
  -5   5  -4 34859.9 2089.43  11
  -5   5  -4 28385.1 1696.18  14
   5  -5   4 35440.5 6308.31   7
  -5   5  -4 33303.9 2394.71   8
  -5   5  -4 30688.8 2668.69  21
  -5   5  -5 15728.7 1864.32  21
  -5   5  -5 16723.2 1283.10  14
  -5   5  -5 18976.9 1616.92  11
  -5   5  -6 23701.4 2126.61  21
  -5   5  -6 26030.1 1597.54  14
  -5   5  -6 29687.0 2028.99  11
  -5   5  -7 55896.7 2614.40  16
  -5   5  -7 54328.3 2766.61  11
  -5   5  -8 110.595 167.015  21
  -5   5  -8 194.338 152.925  16
  -5   5  -8 159.731 206.789  11
  -5   5  -9 7701.72 1042.92  21
  -5   5  -9 6016.35 943.898  11
  -5   5 -10 17884.0 1481.94  21
  -5   5 -10 14771.7 1412.52  11
  -5   5 -11 3923.10 635.142  21
  -5   5 -11 3027.39 595.635  11
  -5   5 -12 805.920 350.729  11
  -5   5 -13 64.2237 106.728  11
   5  -4 -16 5399.35 664.914  23
   5  -4 -15 28295.5 1758.02  23
  -5   4  14 34918.5 2321.17  17
   5  -4 -14 32556.8 2072.56  23
  -5   4  13 267.844 169.069  29
  -5   4  13 43.4166 145.867  17
  -5   4  12 65379.9 2893.03  29
  -5   4  12 75966.9 4014.93  17
  -5   4  11 56753.3 2797.47  29
  -5   4  11 64794.3 3690.50  17
  -5   4  10 7894.42 1380.58  17
  -5   4  10-78.0815 191.552  15
  -5   4   9 45604.8 3460.00  17
  -5   4   9 110.110 94.8157  15
  -5   4   8 2264.59 889.991  17
  -5   4   8 16.7568 158.256  15
  -5   4   7 4060.02 1087.13  17
  -5   4   7 5692.66 1692.00   4
  -5   4   6 12082.8 2340.47   4
  -5   4   6 12042.9 1242.75   8
  -5   4   6 10482.1 1635.89  17
  -5   4   5 583.991 301.413   8
  -5   4   5 510.982 469.294   4
  -5   4   5 1037.91 697.058   1
  -5   4   4 60561.9 2692.67   8
  -5   4   4 57618.3 4866.13   4
  -5   4   4 63704.1 5512.44   1
  -5   4   3 95336.4 3316.05   8
  -5   4   3 92633.5 6020.94   4
  -5   4   3 97452.8 6888.28   1
  -5   4   2 4450.80 705.924   8
  -5   4   2 3757.54 1353.49   1
  -5   4   2 3512.19 1128.17   4
  -5   4   1 56290.1 2543.77   8
  -5   4   1 59468.5 5425.03   1
  -5   4   0 136744. 3936.19   8
  -5   4   0 147697. 8701.67   1
  -5   4  -1 16381.0 1369.06   8
  -5   4  -2 9560.56 1088.65   9
  -5   4  -2 9131.75 1054.63   8
  -5   4  -3 27534.9 1974.76  21
  -5   4  -3 34346.1 1978.34  11
  -5   4  -3 29532.2 1928.81   9
  -5   4  -3 28630.0 1855.35   8
   5  -4   3 35832.6 5667.91   7
  -5   4  -3 29175.1 1635.33  14
  -5   4  -4 3774.93 797.385  21
  -5   4  -4 3710.37 675.202  11
   5  -4   4 2758.47 1466.74   7
  -5   4  -4 3407.21 661.728   8
  -5   4  -4 3013.31 543.700  14
  -5   4  -5 5238.92 998.604  21
  -5   4  -5 6542.76 922.085  11
   5  -4   5 3626.39 1887.55   7
  -5   4  -5 5426.74 714.859  14
  -5   4  -6 4244.83 810.840  16
  -5   4  -6 4923.44 704.669  14
  -5   4  -6 5771.72 912.888  11
  -5   4  -6 5313.31 960.890  21
  -5   4  -7 905.980 269.165  16
  -5   4  -7 835.022 295.455  14
  -5   4  -7 840.860 274.595  11
  -5   4  -7 1152.12 458.111  21
  -5   4  -8 24863.2 1554.11  14
  -5   4  -8 26616.6 1717.27  16
  -5   4  -8 22866.6 1871.14  21
  -5   4  -8 23025.0 1912.51  11
  -5   4  -9 22942.9 1815.03  21
  -5   4  -9 24342.9 1970.13  11
  -5   4 -10 3959.08 714.153  21
  -5   4 -10 3950.26 795.125  11
  -5   4 -11 26740.4 1731.40  21
  -5   4 -11 22333.4 1791.22  11
   5  -4  11 23347.0 1829.07  27
  -5   4 -12 26139.2 1767.02  11
   5  -4  12 29710.5 1960.21  27
  -5   4 -13 112.039 117.414  11
   5  -4  13 146.898 174.960  27
  -5   4 -14 2315.81 421.568  11
   5  -3 -16 2745.35 482.455  23
   5  -3 -15 2939.68 578.729  23
  -5   3  14 4769.39 1038.08  17
   5  -3 -14 5694.66 882.924  23
  -5   3  13 9948.02 1391.79  17
  -5   3  12 8892.79 1058.14  29
  -5   3  12 8575.37 1080.80  26
  -5   3  12 9658.51 1414.10  17
  -5   3  11 48340.5 2546.76  26
  -5   3  11 56169.0 3585.96  17
  -5   3  10 38899.7 2252.01  26
  -5   3  10 47168.6 3445.93  17
  -5   3   9 62349.5 2783.98  26
  -5   3   9 70878.5 4437.00  17
  -5   3   8 5923.96 828.372  26
  -5   3   8 5112.71 1241.51  17
  -5   3   7 79187.0 2908.98  26
  -5   3   7 84848.8 6351.21   4
  -5   3   6 47217.8 4485.43   4
  -5   3   6 44019.1 4461.81   1
  -5   3   6 42345.1 2053.65  22
  -5   3   5 335.780 122.594   8
  -5   3   5 415.538 350.571   4
  -5   3   5 243.185 332.092   1
  -5   3   4 75049.7 5212.10   4
  -5   3   4 70662.7 5562.38   1
  -5   3   3 8583.39 1718.12   4
  -5   3   3 7231.75 1790.68   1
  -5   3   2 101.244 355.746   1
  -5   3   2 437.289 380.796   4
  -5   3   1 33013.8 3805.14   1
  -5   3   0 860.031 644.051   1
  -5   3  -1 37786.7 4152.40   1
  -5   3  -2 76222.5 6020.63   1
   5  -3   3 1683.83 1158.08   7
  -5   3  -4 49178.5 2525.19   9
  -5   3  -4 47072.8 2218.41   8
   5  -3   4 51123.3 6487.49   7
  -5   3  -5 81400.0 3416.81  21
  -5   3  -5 96196.6 3556.28  11
   5  -3   5 56074.2 7072.09   7
  -5   3  -5 70834.9 2514.65  14
  -5   3  -6 25919.0 1968.08  21
  -5   3  -6 29501.3 2056.28  11
   5  -3   6 27709.4 4938.84   7
  -5   3  -6 25415.2 1728.10  16
  -5   3  -6 25989.0 1596.76  14
  -5   3  -7 14904.8 1513.29  21
  -5   3  -7 17012.4 1614.99  11
   5  -3   7 14476.5 3563.59   7
  -5   3  -7 14079.5 1155.56  14
  -5   3  -7 15314.8 1302.72  16
  -5   3  -8 33583.4 1922.34  16
  -5   3  -8 30287.2 1713.78  14
  -5   3  -8 34885.4 2351.06  11
  -5   3  -8 31128.5 2134.68  21
  -5   3  -9 16515.8 1285.72  14
  -5   3  -9 18036.7 1588.20  21
  -5   3  -9 17870.4 1719.29  11
  -5   3 -10 154.058 179.176  21
  -5   3 -10 26.2403 158.713  14
  -5   3 -10-236.345 335.564  11
  -5   3 -11 3167.04 749.521  11
   5  -3  11 3041.05 678.981  27
  -5   3 -12 191.563 113.247  11
   5  -3  12-7.90127 156.874  27
  -5   3 -13 10538.5 1099.09  11
   5  -3  13 11868.1 1209.16  27
  -5   3 -14 894.954 242.240  11
   5  -3  14 1699.03 395.114  27
  -5   3 -15-2.97945 97.9363  11
   5  -2 -16 17076.2 1174.86  23
   5  -2 -15 1587.82 401.747  23
  -5   2  14 13137.7 1463.97  17
  -5   2  14 15731.7 1361.03  26
  -5   2  13 26472.2 2189.54  17
  -5   2  13 25585.6 1824.30  26
  -5   2  12 14035.1 1807.51  17
  -5   2  12 12848.5 1317.68  26
  -5   2  11 15173.9 1936.61  17
  -5   2  11 15055.3 1432.73  26
  -5   2  10 10766.3 1863.14  17
  -5   2  10 9958.59 1152.85  26
  -5   2   9 580.759 547.494  17
  -5   2   9 867.351 318.394  26
  -5   2   8 3687.72 1125.16  17
  -5   2   8 5061.30 756.509  26
  -5   2   8 5154.27 716.217  22
  -5   2   7 6437.40 1239.87  17
  -5   2   7 9287.29 980.578  26
  -5   2   7 8782.52 937.309  22
  -5   2   6 47378.4 4588.42   1
  -5   2   5 83066.2 6009.37   1
  -5   2   4 105373. 6696.47   1
  -5   2   3 6874.02 1714.03   1
  -5   2   2 88344.4 5976.01   1
  -5   2   1 117753. 7001.86   1
  -5   2   0 511.554 407.746   1
  -5   2  -1 41894.9 4102.02   1
  -5   2  -2 2039.87 880.641   1
   5  -2   3 13647.3 2961.49   7
  -5   2  -3 11930.3 2295.57   1
   5  -2   4 22366.4 3971.77   7
   5  -2   5 57.6023 517.505   7
  -5   2  -6 16051.2 1449.48  21
  -5   2  -6 18914.7 1607.13  11
   5  -2   6 18888.7 3768.61   7
  -5   2  -6 13985.9 1117.56  14
  -5   2  -6 16385.9 1306.87  16
  -5   2  -7 67912.9 3023.59  21
  -5   2  -7 65551.3 2519.21  13
  -5   2  -7 77111.7 3451.03  11
   5  -2   7 68075.6 7334.54   7
  -5   2  -7 73828.7 2795.71  16
  -5   2  -7 65070.2 2466.54  14
  -5   2  -8 6848.47 892.224  16
  -5   2  -8 6628.16 806.012  14
  -5   2  -8 6512.02 815.704  13
  -5   2  -8 6775.92 1053.59  11
  -5   2  -8 6552.10 940.812  21
  -5   2  -9 75387.5 2760.92  14
  -5   2  -9 76450.6 2864.14  13
  -5   2  -9 79066.7 3254.20  21
  -5   2 -10 76757.8 2788.04  14
  -5   2 -10 78424.9 2899.65  13
  -5   2 -10 80110.6 3202.56  21
  -5   2 -11 17942.3 1308.52  14
   5  -2  11 18283.2 1669.11  27
  -5   2 -12 6761.25 1078.89  11
   5  -2  12 9529.99 1183.29  27
  -5   2 -13 14639.5 1450.41  11
   5  -2  13 19963.1 1645.77  27
  -5   2 -14 9584.75 1033.85  11
   5  -2  14 15636.2 1340.78  27
  -5   2 -15 57.2508 106.606  11
   5  -1 -16 1632.01 365.092  23
   5  -1 -15 9584.05 1022.18  23
  -5   1  15 11339.0 1058.38  26
  -5   1  14 3112.92 752.564  17
  -5   1  14 3231.58 613.755  26
  -5   1  13 6578.90 1090.10  17
  -5   1  13 6486.76 915.176  26
  -5   1  12 37114.2 2753.20  17
  -5   1  12 33020.0 2148.09  26
  -5   1  11 11561.9 1763.38  17
  -5   1  11 12170.6 1294.40  26
  -5   1  10 67.0051 240.060  17
  -5   1  10 60.7615 118.324  26
  -5   1   9 22366.6 2583.31  17
  -5   1   9 22239.1 1666.25  26
  -5   1   8 40617.0 2046.93  22
  -5   1   8 13513.9 2418.64  17
  -5   1   8 40089.0 2132.30  26
  -5   1   7 22941.5 1497.01  22
  -5   1   7 23720.9 1577.90  26
  -5   1   6 2242.02 987.922   1
  -5   1   5 157.909 173.303   1
  -5   1   4 9431.55 1999.59   1
  -5   1   3 7176.23 1727.92   1
  -5   1   2 325.606 493.300   1
  -5   1   1 13599.2 2299.47   1
  -5   1   0 18580.1 2734.87   1
  -5   1  -1 88307.3 5794.78   1
  -5   1  -2 14827.6 2373.86   1
   5  -1   3 194784. 10354.5   7
  -5   1  -3 157284. 7770.70   1
   5  -1   4 181051. 10499.0   7
  -5   1  -4 177759. 8489.02   1
   5  -1   5 4758.27 1650.90   7
   5  -1   6 9092.74 2416.32   7
  -5   1  -7 1781.59 471.958  21
  -5   1  -7 1415.97 386.818  13
  -5   1  -7 1566.28 357.720  14
  -5   1  -7 2394.68 620.307  11
   5  -1   7 830.830 983.297   7
  -5   1  -7 1811.18 447.888  16
  -5   1  -8 327.336 239.699  21
  -5   1  -8-120.421 167.549  14
  -5   1  -8 151.865 249.840  13
  -5   1  -8 298.228 236.980  11
  -5   1  -8 252.345 127.157  16
  -5   1  -9 4923.36 711.078  14
  -5   1  -9 5185.74 784.126  13
  -5   1  -9 6233.13 1084.81  11
  -5   1  -9 5026.38 782.312  21
  -5   1 -10 7174.73 932.869  13
  -5   1 -10 6784.56 1178.25  11
  -5   1 -10 6237.70 791.600  14
  -5   1 -11 1109.58 367.203  13
  -5   1 -11 679.576 200.834  14
  -5   1 -11 1314.42 486.492  11
   5  -1  11 1153.81 399.558  27
  -5   1 -12 5192.97 768.834  13
  -5   1 -12 6383.97 1103.48  11
  -5   1 -12 5156.55 722.122  14
   5  -1  12 5486.67 908.467  27
  -5   1 -13 1132.58 315.162  14
  -5   1 -13 1001.67 339.790  13
  -5   1 -13 61.6067 144.461  11
   5  -1  13 881.447 315.422  27
  -5   1 -14 8880.18 1130.60  11
  -5   1 -15 8232.36 959.600  11
  -5   1 -16 288.977 195.559  11
   5   0 -15 12669.2 1114.81  23
  -5   0  15 17514.5 1294.72  26
  -5   0  14 315.242 254.154  17
  -5   0  14 176.433 133.678  26
  -5   0  13 3261.68 855.989  17
  -5   0  13 3735.76 700.785  26
  -5   0  12 231.884 339.582  17
  -5   0  12 133.529 98.7833  26
  -5   0  11 5043.72 1157.55  17
  -5   0  11 2229.08 629.917  15
  -5   0  11 5487.00 875.581  26
  -5   0  10 27775.1 2960.60  17
  -5   0  10 25172.0 1853.35  15
  -5   0  10 24425.0 1828.12  26
  -5   0   9-221.066 341.563  17
  -5   0   9 278.748 162.743  15
  -5   0   9 177.776 206.802  26
  -5   0   8 37161.6 1952.02  22
  -5   0   8 37541.7 2129.22  15
  -5   0   8 38077.6 2115.98  26
  -5   0   7 100083. 3117.56  22
  -5   0   7 99205.6 3241.10  26
  -5   0   7 105419. 3416.31  15
  -5   0   6 62836.0 5409.22   1
  -5   0   5 3069.78 1181.77   1
  -5   0   4 92424.5 6282.46   1
  -5   0   3 56858.3 4915.27   1
  -5   0   2 32373.1 3563.21   1
  -5   0   1 8166.27 1772.24   1
  -5   0   0 1235.97 681.582   1
  -5   0  -1 7462.42 1696.07   1
   5   0   2 28443.8 3655.72   7
  -5   0  -2 27490.8 3172.65   1
   5   0   3 42631.5 4415.62   7
  -5   0  -3 37608.9 3683.25   1
   5   0   4 68492.8 5720.30   7
  -5   0  -4 81355.5 5443.43   1
   5   0   5 33126.3 4055.80   7
  -5   0  -5 30182.9 3382.26   1
   5   0   6 25953.7 3729.43   7
   5   0   7 14473.7 2910.69   7
  -5   0  -8 27174.5 1749.57  21
   5   0   8 25815.8 4034.44   7
  -5   0  -8 27623.7 1691.70  16
  -5   0  -8 29906.1 1890.70  13
   5   0   9 19299.7 3670.82   7
  -5   0  -9 22988.2 1732.53  13
  -5   0  -9 27270.4 2159.92  11
  -5   0  -9 21631.5 1460.44  16
  -5   0 -10 4987.58 826.019  13
  -5   0 -10 5914.59 1068.11  11
  -5   0 -11 6598.31 930.211  13
  -5   0 -11 6240.86 1146.18  11
  -5   0 -11 5728.07 794.599  14
  -5   0 -12 19704.7 1584.55  13
  -5   0 -12 25307.5 2066.06  11
  -5   0 -12 18829.4 1408.23  14
   5   0  12 23402.8 1862.41  27
  -5   0 -13 898.517 289.597  14
  -5   0 -13 729.694 308.220  13
  -5   0 -13 721.119 322.847  11
   5   0  13 677.311 304.106  27
  -5   0 -14-17.3575 95.0866  14
  -5   0 -14 104.191 123.259  13
  -5   0 -14 127.863 216.932  11
  -5   0 -15 2159.28 438.101  13
  -5   0 -15 568.271 269.189  11
  -5   0 -16-67.9580 121.917  11
   5   0  16 179.997 151.942  25
  -5  -1  15-66.7356 77.2379  26
   5   1 -15 8.44457 61.9377  23
  -5  -1  14 39634.7 2130.11  26
  -5  -1  13 47633.6 2497.44  26
  -5  -1  13 34205.6 2619.95  17
  -5  -1  12 14219.8 1451.07  26
  -5  -1  12 14855.2 1424.35  15
  -5  -1  12 14958.8 1705.57  17
  -5  -1  11 4913.50 842.024  26
  -5  -1  11 4401.67 784.791  15
  -5  -1  11 4214.63 1100.09  17
  -5  -1  10 60193.7 2964.99  26
  -5  -1  10 59564.4 2882.56  15
  -5  -1   9 1518.67 468.482  26
  -5  -1   9 1479.39 409.897  28
  -5  -1   9 1171.23 680.116  17
  -5  -1   9 1868.09 481.376  15
  -5  -1   8 1466.11 420.521  26
  -5  -1   8 1121.08 342.525  28
  -5  -1   8 1313.55 351.589  22
  -5  -1   8 378.257 591.917  17
  -5  -1   8 1282.87 393.404  15
  -5  -1   7 4992.11 711.763  22
  -5  -1   7 6568.21 875.442  28
  -5  -1   7 5750.83 788.914  26
  -5  -1   7 6133.62 824.897  15
  -5  -1   6 3513.67 1323.85   1
  -5  -1   5 18860.2 3076.71   1
  -5  -1   4 106.145 277.873   1
  -5  -1   3 81648.0 5990.39   1
  -5  -1   2 114281. 6896.54   1
  -5  -1   1 53821.9 4583.23   1
  -5  -1   0 2668.92 1017.44   1
  -5  -1  -1 138568. 7083.23   1
  -5  -1  -2 58487.6 4539.25   1
  -5  -1  -3 8416.67 1703.84   1
   5   1   3 7355.68 1693.86   7
  -5  -1  -4 25006.8 2934.80   1
   5   1   4 30043.0 3241.24   7
  -5  -1  -5 44710.0 3858.84   1
   5   1   5 50899.2 4435.97   7
   5   1   6 1576.17 823.280   7
   5   1   7 879.791 666.838   7
   5   1   8 474.229 521.093   7
  -5  -1  -8 187.724 147.234  11
  -5  -1  -8 255.880 116.836  13
  -5  -1  -9 12394.5 1096.70  16
  -5  -1  -9 12953.3 1388.71  13
  -5  -1  -9 14854.2 1699.46  11
  -5  -1 -10 27144.3 2044.26  13
  -5  -1 -10 28606.0 2394.83  11
  -5  -1 -11 781.473 447.352  11
  -5  -1 -11 389.799 256.301  13
   5   1  12 29071.8 2048.96  27
  -5  -1 -12 29045.8 2038.23  13
  -5  -1 -12 29191.7 2311.81  11
  -5  -1 -13 41560.9 2354.41  13
  -5  -1 -13 42208.1 2700.20  11
  -5  -1 -14 28100.2 1641.14  14
  -5  -1 -14 29487.8 1887.99  13
  -5  -1 -14 30842.5 2222.87  11
  -5  -1 -15 12716.7 1022.63  14
  -5  -1 -15 13090.3 1146.62  13
  -5  -1 -15 14081.8 1437.38  11
  -5  -1 -16 8253.36 721.610  14
  -5  -1 -16 8396.12 806.472  13
  -5  -1 -17 630.838 231.952  11
  -5  -2  15 81.4696 113.581  26
  -5  -2  14 467.612 241.653  26
  -5  -2  13 598.586 224.628  15
  -5  -2  13 668.128 284.730  26
  -5  -2  12 16223.3 1460.65  15
  -5  -2  12 15700.6 1512.75  26
  -5  -2  11 6286.63 1180.43  17
  -5  -2  11 6335.90 916.988  15
  -5  -2  11 5437.68 905.702  26
  -5  -2  10-90.1887 189.673  17
  -5  -2  10 38.3680 187.809  15
  -5  -2  10 76.2386 110.560  26
  -5  -2  10 132.945 115.376  28
  -5  -2   9 102844. 3851.65  15
  -5  -2   9 111398. 3938.29  28
  -5  -2   9 105062. 3877.27  26
  -5  -2   8 76320.0 2916.29  22
  -5  -2   8 80256.8 3242.27  28
  -5  -2   8 78005.8 3208.21  15
  -5  -2   7 11492.1 1122.90  22
  -5  -2   7 11534.1 1175.03  28
  -5  -2   7 7270.14 1360.53  17
  -5  -2   7 10854.8 1154.63  15
  -5  -2   7 10974.1 2524.49   1
  -5  -2   6 51840.5 2427.08  28
  -5  -2   6 52392.8 2419.43  15
  -5  -2   6 58839.7 5675.51   1
  -5  -2   5 68741.2 6034.88   1
  -5  -2   4 8018.85 1955.64   1
  -5  -2   3 571.264 633.344   1
  -5  -2   2 15022.5 2631.44   1
  -5  -2   1 11012.4 2131.66   1
  -5  -2   0 14098.0 2369.07   1
  -5  -2  -1 12336.3 2159.94   1
  -5  -2  -2 54534.6 4466.66   1
  -5  -2  -3 65390.0 4757.54   1
  -5  -2  -4 2925.96 946.785   1
  -5  -2  -5 5656.23 1531.46   6
  -5  -2  -5 7504.64 1542.46   1
  -5  -2  -6 110447. 6735.02   6
  -5  -2  -7 44072.2 4312.40   6
  -5  -2  -8 736.338 571.750   6
  -5  -2  -8 3283.26 713.578  13
  -5  -2  -9 32088.6 2401.95  13
  -5  -2  -9 34112.5 2736.69  11
  -5  -2  -9 27297.0 1615.26  16
  -5  -2 -10 17715.9 1843.39  13
  -5  -2 -10 19447.6 2161.33  11
  -5  -2 -11 198.622 328.000  11
  -5  -2 -11 140.067 194.551  13
  -5  -2 -12 3343.28 842.856  11
  -5  -2 -12 5300.16 941.018  13
  -5  -2 -12 5393.66 1267.49  17
  -5  -2 -13 204.019 182.014  11
  -5  -2 -13 51.1613 171.812  13
  -5  -2 -14 2073.86 612.418  11
  -5  -2 -14 2889.08 635.021  13
  -5  -2 -15 6547.88 856.893  13
  -5  -2 -15 5527.15 990.126  11
  -5  -2 -15 6418.15 769.735  14
   5   2  15 6198.08 874.844  25
  -5  -2 -16 244.651 174.204  13
  -5  -2 -16 90.8868 118.467  14
  -5  -2 -16 282.344 220.643  11
   5   2  16 178.498 114.499  25
  -5  -2 -17 11596.6 884.413  13
  -5  -2 -17 853.378 299.365  11
  -5  -3  15 42390.5 1816.38  26
  -5  -3  14 117.062 131.063  15
  -5  -3  14 17143.5 1323.66  26
  -5  -3  13 72.4024 113.074  15
  -5  -3  13 67.6208 115.785  26
  -5  -3  12 26973.3 1904.26  15
  -5  -3  12 28702.5 2009.79  26
  -5  -3  11 19543.2 1673.42  15
  -5  -3  11 20498.9 1656.21  28
  -5  -3  11 18676.9 1681.03  26
  -5  -3  10 2730.84 642.093  15
  -5  -3  10 2987.99 681.183  26
  -5  -3  10 3048.54 663.167  28
  -5  -3   9 30287.0 2140.36  15
  -5  -3   9 31733.5 2124.61  28
  -5  -3   8 5327.68 787.931  22
  -5  -3   8 5441.25 873.885  28
  -5  -3   8 3534.55 1030.58  17
  -5  -3   8 5848.25 938.556  15
  -5  -3   7 27254.5 4208.52   5
  -5  -3   7 23572.5 1758.33  28
  -5  -3   7 22346.4 1649.40  22
  -5  -3   7 24629.8 3936.34   1
  -5  -3   7 23716.4 1795.39  15
  -5  -3   6 12855.0 1262.91  22
  -5  -3   6 14087.3 1308.82  28
  -5  -3   6 14247.5 1335.09  15
  -5  -3   6 17158.7 3245.32   5
  -5  -3   5 2550.15 1230.81   5
  -5  -3   4 163934. 9013.44   5
  -5  -3   3 106402. 6990.27   5
  -5  -3   2 25031.5 3276.15   5
  -5  -3   1 77408.2 5417.30   5
  -5  -3   0 91794.0 6163.03   1
  -5  -3   0 91742.0 5682.30   5
  -5  -3  -1 16375.2 2536.21   1
  -5  -3  -2 7584.41 1716.71   1
  -5  -3  -2 7170.60 1703.28   6
  -5  -3  -3 18101.5 2579.04   1
  -5  -3  -3 19928.0 2872.30   6
  -5  -3  -4 23448.2 2834.65   1
  -5  -3  -4 26930.6 3302.09   6
  -5  -3  -5 14023.7 2144.93   1
  -5  -3  -5 15816.1 2601.42   6
  -5  -3  -6 37682.4 4056.89   6
  -5  -3  -7 33965.8 3918.07   6
  -5  -3  -8 59036.9 3107.39  13
  -5  -3  -8 62291.0 5387.49   6
  -5  -3  -9 22503.1 2225.45  13
  -5  -3  -9 21712.3 2273.88  11
  -5  -3  -9 20429.3 1405.47  16
  -5  -3 -10 8504.18 1539.33  13
  -5  -3 -10 10447.0 1873.05  11
  -5  -3 -11 65055.7 3850.21  13
  -5  -3 -11 50114.4 3613.38  11
  -5  -3 -12 20547.6 1966.14  13
  -5  -3 -12 16484.2 1849.41  11
  -5  -3 -13 728.146 420.136  13
  -5  -3 -13 713.075 374.370  11
  -5  -3 -14 48740.0 3798.08  17
  -5  -3 -14 50591.9 2740.89  13
  -5  -3 -14 43118.1 2656.79  11
   5   3  14 51449.1 2657.26  25
  -5  -3 -15 13705.0 1330.42  13
  -5  -3 -15 11541.0 1358.12  11
   5   3  15 13943.4 1311.42  25
  -5  -3 -16-23.4258 93.1927  14
  -5  -3 -16 146.716 91.4674  13
  -5  -3 -16 92.8320 159.591  11
   5   3  16 117.916 73.8664  25
  -5  -3 -17 1977.60 348.293  14
  -5  -3 -17 2157.31 410.472  13
   5   3  17 1237.31 300.891  25
  -5  -4  14 1635.88 417.569  15
  -5  -4  14 5842.03 737.046  26
  -5  -4  13 12372.3 1173.28  15
  -5  -4  13 11734.8 1195.50  26
  -5  -4  12 54.8581 162.737  15
  -5  -4  12 250.323 221.997  26
  -5  -4  11 25588.3 1912.04  15
  -5  -4  11 25813.3 1858.60  28
  -5  -4  11 23880.1 1909.46  26
  -5  -4  10 57592.3 2964.75  15
  -5  -4  10 61622.5 2971.55  28
  -5  -4   9 3939.43 793.481  15
  -5  -4   9 4912.80 857.323  28
  -5  -4   8 8381.47 1005.43  22
  -5  -4   8 9546.46 1245.14  15
  -5  -4   8 8050.75 1084.54  28
  -5  -4   7 35004.0 2132.99  22
  -5  -4   7 40121.6 2393.65  28
  -5  -4   7 49876.6 5845.85   5
  -5  -4   7 44201.5 2601.73  15
  -5  -4   6 19682.0 1574.33  22
  -5  -4   6 13792.5 1956.14  19
  -5  -4   6 26875.2 4178.61   5
  -5  -4   6 15424.7 1470.42  28
  -5  -4   6 21789.8 1761.43  15
  -5  -4   5 4162.31 1632.02   5
  -5  -4   5 2977.91 639.811  15
  -5  -4   5 215.903 274.418  22
  -5  -4   5 1843.35 688.787  19
  -5  -4   4 29938.1 4141.98   5
  -5  -4   3 1301.22 821.933   5
  -5  -4   2 16098.8 2791.85   5
  -5  -4   1 64670.8 5311.92   5
  -5  -4   0-4.69237 197.674   5
  -5  -4  -1 107386. 6149.07   5
  -5  -4  -1 96141.3 6163.91   6
  -5  -4  -2 89946.6 6043.26   1
  -5  -4  -2 91502.8 5468.67   5
  -5  -4  -2 103817. 6369.26   6
  -5  -4  -3 7720.31 1730.42   1
  -5  -4  -3 8153.15 1887.92   6
  -5  -4  -4 120805. 6783.11   1
  -5  -4  -4 133239. 7532.07   6
  -5  -4  -5 135711. 6855.39   1
  -5  -4  -5 149299. 8256.45   6
  -5  -4  -6 49790.5 4879.83   6
  -5  -4  -7 15267.5 2769.25   6
  -5  -4  -8 35353.6 4263.71   6
  -5  -4  -8 28126.4 2104.93  13
  -5  -4  -9 4332.44 1437.77   6
  -5  -4  -9 3948.11 649.637  16
  -5  -4  -9 3963.04 933.110  13
  -5  -4 -10 278.160 540.863  13
  -5  -4 -11 11421.6 1961.74  13
  -5  -4 -11 6753.87 1302.99  11
   5   4  12 33753.5 2147.65  25
  -5  -4 -12 31304.0 2711.26  13
   5   4  13 17401.2 1541.50  25
  -5  -4 -13 14659.6 1663.29  13
   5   4  14 8191.32 1047.17  25
  -5  -4 -14 8345.32 1173.04  13
  -5  -4 -14 7151.74 1071.74  11
   5   4  15 13245.8 1263.69  25
  -5  -4 -15 13903.6 1378.64  13
  -5  -4 -15 10996.5 1214.41  11
   5   4  16 47078.4 2201.38  25
  -5  -4 -16 48538.4 2331.97  13
   5   4  17 17983.9 1201.00  25
  -5  -4 -17 19904.3 1172.79  14
  -5  -4 -17 20939.7 1345.40  13
  -5  -5  14 1334.64 367.572  15
  -5  -5  14 3344.89 523.455  26
  -5  -5  13 11284.7 1074.46  15
  -5  -5  13 8836.75 986.962  26
  -5  -5  12 857.694 270.664  15
  -5  -5  12 758.384 290.835  26
  -5  -5  11 3418.58 712.611  15
  -5  -5  11 3329.76 636.453  28
  -5  -5  10 439.304 256.912  15
  -5  -5  10 363.795 258.554  28
  -5  -5   9 15334.0 1508.55  28
  -5  -5   9 14749.7 1572.29  15
  -5  -5   9 15808.0 1395.77  22
  -5  -5   8 11545.9 1332.84  28
  -5  -5   8 9305.69 1165.50  22
  -5  -5   8 12415.0 1446.48  15
  -5  -5   7 2734.06 630.644  22
  -5  -5   7 2797.10 1080.51  19
  -5  -5   7 2976.00 702.385  28
  -5  -5   7 3429.14 786.294  15
  -5  -5   6 4667.96 894.565  15
  -5  -5   6 3627.80 1632.92   5
  -5  -5   6 3428.97 970.415  19
  -5  -5   5 78596.5 3539.46  15
  -5  -5   5 99165.5 8544.12   5
  -5  -5   4 44392.5 5594.04   5
  -5  -5   4 25765.6 2403.58  19
  -5  -5   3 13338.2 2996.77   5
  -5  -5   2 142889. 9333.54   5
  -5  -5   1 32296.5 4169.58   5
  -5  -5   0 7214.38 1882.75   5
  -5  -5  -1 37044.7 4031.70   6
  -5  -5  -1 44670.2 4302.82   5
  -5  -5  -2 3448.18 1238.04   6
  -5  -5  -2 2817.34 967.089   5
  -5  -5  -3 13290.8 2087.81   5
  -5  -5  -3 12634.1 2370.46   6
  -5  -5  -4 13309.6 2637.72   6
  -5  -5  -4 13649.5 2337.91   1
  -5  -5  -5 12649.8 2591.21   6
  -5  -5  -6 156994. 9364.72   6
  -5  -5  -7 114424. 8182.03   6
  -5  -5  -8 49.4661 112.760  13
  -5  -5  -8 759.321 670.825   6
  -5  -5  -8 239.785 183.808  16
  -5  -5  -9 102450. 4321.84  13
  -5  -5  -9 93931.3 4867.41  23
  -5  -5  -9 93691.9 3146.94  16
  -5  -5 -10 56772.6 3662.41  13
  -5  -5 -10 57539.7 4727.28  23
  -5  -5 -10 59063.3 5893.32   6
  -5  -5 -10 49204.3 2324.94  16
  -5  -5 -11 21074.2 2374.07  13
   5   5  12 28124.2 1927.42  25
  -5  -5 -12 25480.6 2473.86  13
   5   5  13 19792.7 1630.79  25
  -5  -5 -13 16495.2 1821.30  13
   5   5  14 4086.89 731.127  25
  -5  -5 -14 3903.64 802.905  13
   5   5  15 1243.71 368.259  25
  -5  -5 -15 938.054 622.486  17
  -5  -5 -15 511.363 236.699  11
  -5  -5 -15 787.188 373.724  13
   5   5  16 2176.93 479.512  25
  -5  -5 -16 1136.59 638.081  17
  -5  -5 -16 2468.58 528.168  13
   5   5  17 4270.00 583.918  25
  -5  -5 -17 3956.16 898.887  17
  -5  -5 -17 4113.13 623.227  13
  -5  -6  13 2151.58 442.092  15
  -5  -6  13 2034.37 454.562  26
  -5  -6  12 26687.0 1749.49  15
  -5  -6  12 21510.5 1592.10  26
  -5  -6  11 20379.8 1659.41  15
  -5  -6  11 19783.7 1552.82  28
  -5  -6  10 3539.66 740.730  15
  -5  -6  10 3384.36 685.732  28
  -5  -6   9 8717.06 1148.19  28
  -5  -6   9 8275.47 1162.84  15
  -5  -6   9 7548.11 994.797  22
  -5  -6   8 23405.6 1920.29  28
  -5  -6   8 23189.0 1994.95  15
  -5  -6   8 19790.5 1710.39  22
  -5  -6   7 8.72550 118.972  22
  -5  -6   7-118.379 244.403  19
  -5  -6   7 301.611 255.362  15
  -5  -6   6 824.200 487.251  19
  -5  -6   6 1021.21 575.800  15
  -5  -6   5 4526.57 1061.91  19
  -5  -6   5 5443.66 2147.38   5
  -5  -6   5 3738.73 883.359  15
  -5  -6   4 30853.1 2726.43  19
  -5  -6   4 36715.3 2656.45  15
  -5  -6   3 22534.9 2212.16  19
  -5  -6   3 26556.1 2026.24  23
  -5  -6   2 1471.02 1002.39   5
  -5  -6   1 71860.8 7207.83   5
  -5  -6   0 187025. 10598.8   5
  -5  -6  -1 22578.1 3200.61   6
  -5  -6  -1 26149.1 3658.44   5
  -5  -6  -2 18835.6 2935.56   6
  -5  -6  -2 18988.0 2900.78   5
  -5  -6  -3 121168. 7840.37   6
  -5  -6  -3 137487. 7218.88   5
  -5  -6  -4 92649.5 7122.93   6
  -5  -6  -5 989.292 811.511   6
  -5  -6  -6 1895.48 1268.63   6
  -5  -6  -7 138.383 127.369  16
  -5  -6  -7 255.968 346.634   6
  -5  -6  -7 134.630 144.909  23
  -5  -6  -8 371.143 241.026  13
  -5  -6  -8 9.78908 218.399  16
  -5  -6  -8 385.927 324.422  23
  -5  -6  -8 145.575 370.431   6
  -5  -6  -9 2789.07 690.241  13
  -5  -6  -9 2554.94 737.443  23
  -5  -6  -9 2381.26 1273.24   6
  -5  -6 -10 8289.63 1258.01  13
  -5  -6 -10 7180.17 1389.76  23
  -5  -6 -11 86108.1 4279.82  13
  -5  -6 -11 72763.5 4417.20  23
   5   6  12 23931.8 1761.46  25
  -5  -6 -12 25495.1 2306.33  13
  -5  -6 -12 19247.8 2035.54  23
   5   6  13 185.422 164.333  25
  -5  -6 -13 244.187 244.281  13
   5   6  14 43418.9 2354.83  25
  -5  -6 -14 39462.2 2575.00  13
   5   6  15 61176.8 2672.14  25
  -5  -6 -15 56962.9 2853.89  13
   5   6  16 16882.1 1290.41  25
  -5  -6 -16 16156.8 1373.58  13
  -5  -6 -17 5816.99 1195.00  17
  -5  -6 -17 7629.97 831.279  13
   5   6  17 7230.47 750.712  25
  -5  -7  12 22.9096 181.664  15
  -5  -7  12 673.935 271.742  26
  -5  -7  11 9457.14 1077.06  15
  -5  -7  11 9499.52 1008.85  28
  -5  -7  10 29107.5 2046.07  15
  -5  -7  10 28226.6 1931.37  28
  -5  -7   9 763.263 313.655  22
  -5  -7   9 1287.07 477.992  15
  -5  -7   9 827.526 407.524  28
  -5  -7   8 15146.8 1493.95  22
  -5  -7   8 17855.8 1717.97  28
  -5  -7   8 16563.9 1688.96  15
  -5  -7   7 84749.1 3945.11  15
  -5  -7   7 89342.4 5686.22  19
  -5  -7   6 13734.9 1622.07  15
  -5  -7   6 15431.0 2261.00  19
  -5  -7   5-168.213 339.376  19
  -5  -7   5 781.080 574.997  15
  -5  -7   5 570.986 398.544  18
  -5  -7   4 41307.5 3343.47  19
  -5  -7   3 24321.6 5207.63   5
  -5  -7   3 22095.7 2290.72  19
  -5  -7   3 22410.3 1938.37  23
  -5  -7   2 2586.89 1902.82   5
  -5  -7   2 3824.83 935.775  19
  -5  -7   2 295.350 367.453  23
  -5  -7   1 10009.3 3242.92   5
  -5  -7   1 8933.87 1340.31  19
  -5  -7   1 7984.84 1078.96  23
  -5  -7   0 3803.54 1788.77   5
  -5  -7  -1 39093.0 4313.58   6
  -5  -7  -1 45155.6 5507.49   5
  -5  -7  -2 1009.64 776.087   6
  -5  -7  -2 673.394 381.272   5
  -5  -7  -3 8010.47 2097.97   6
  -5  -7  -4 52712.8 5795.26   6
  -5  -7  -5 60683.9 6875.29   6
  -5  -7  -6 15246.2 4078.58   6
  -5  -7  -6 11698.4 1331.05  23
  -5  -7  -6 8005.82 1851.05  17
  -5  -7  -7 11027.4 1361.73  23
  -5  -7  -7 17419.5 4482.28   6
  -5  -7  -8 75598.8 3701.40  23
  -5  -7  -8 98951.9 9642.48   6
  -5  -7  -9 20807.3 1710.23  13
  -5  -7  -9 20649.5 2044.02  23
  -5  -7 -10-37.5421 186.312  13
  -5  -7 -10-154.401 240.446  23
  -5  -7 -11 27417.0 2219.43  13
  -5  -7 -11 23681.0 2364.21  23
   5   7  12 1899.91 491.165  25
  -5  -7 -12 2286.20 673.586  13
  -5  -7 -12 1476.23 595.624  23
   5   7  13 1087.89 356.958  25
  -5  -7 -13 972.743 401.523  13
  -5  -7 -13 754.280 404.852  23
   5   7  14 826.326 330.587  25
  -5  -7 -14 763.451 405.422  13
  -5  -7 -14 932.071 384.601  23
   5   7  15 170.209 134.636  25
  -5  -7 -15 611.578 300.178  13
   5   7  16 11503.5 1055.35  25
  -5  -7 -16 11771.4 1142.45  13
  -5  -7 -17 8188.22 1377.22  17
  -5  -7 -17 10936.5 964.685  13
  -5  -8  12-181.227 139.978  15
  -5  -8  11 1362.09 391.688  26
  -5  -8  11 2055.38 456.039  15
  -5  -8  10 5332.81 786.659  28
  -5  -8  10 5809.65 852.106  15
  -5  -8   9 340.038 232.626  28
  -5  -8   9-35.2727 204.831  15
  -5  -8   8 1333.11 495.720  28
  -5  -8   8 1462.05 507.093  15
  -5  -8   8 743.151 289.809  22
  -5  -8   7 425.212 347.671  15
  -5  -8   7 343.810 439.639  19
  -5  -8   6 15329.5 1690.55  15
  -5  -8   6 20889.0 2590.09  19
  -5  -8   5 15245.3 1756.29  15
  -5  -8   5 13321.1 1788.47  18
  -5  -8   4-1.18861 246.566  19
  -5  -8   4 3.05381 167.035  18
  -5  -8   3 47258.4 3541.65  19
  -5  -8   3 45780.1 2868.70  23
  -5  -8   2 134986. 5789.49  19
  -5  -8   2 162245. 16281.6   5
  -5  -8   1 34011.2 2821.70  19
  -5  -8   1 32280.8 2324.06  23
  -5  -8   1 42467.4 8747.53   5
  -5  -8   0 96.1820 137.305  19
  -5  -8   0 9.72400 94.1115  23
  -5  -8  -1 65916.8 3127.07  23
  -5  -8  -1 72919.7 3983.25  19
  -5  -8  -2 29307.3 2504.08  19
  -5  -8  -2 28081.5 2008.67  23
  -5  -8  -2 35324.0 4996.24   5
  -5  -8  -2 33588.4 4298.99   6
  -5  -8  -3 62.4638 188.597  23
  -5  -8  -3 284.548 566.583   6
  -5  -8  -3 408.787 398.043  19
  -5  -8  -4 1302.07 432.107  23
  -5  -8  -4 1380.47 549.033  19
  -5  -8  -4 1980.48 1128.00   6
  -5  -8  -5 15549.5 1918.79  19
  -5  -8  -5 18258.4 2706.32  17
  -5  -8  -5 15456.7 1559.35  23
  -5  -8  -5 17885.5 3949.66   6
  -5  -8  -6 5364.78 959.599  23
  -5  -8  -6 4746.13 1078.52  19
  -5  -8  -6 5555.68 1585.27  17
  -5  -8  -6 7671.18 3044.11   6
  -5  -8  -7 656.794 705.201  17
  -5  -8  -7 1816.16 561.675  23
  -5  -8  -7 3829.33 2725.89   6
  -5  -8  -8-10.2381 166.515  23
  -5  -8  -9 46281.8 3031.43  23
  -5  -8 -10 22302.2 2185.41  23
  -5  -8 -11 523.501 296.240  13
  -5  -8 -11 811.316 327.983  23
   5   8  12 19208.2 1576.26  25
  -5  -8 -12 19703.4 1764.57  13
  -5  -8 -12 17600.6 1940.16  23
   5   8  13 39233.3 2219.60  25
  -5  -8 -13 40111.2 2482.89  13
  -5  -8 -13 35413.1 2572.88  23
   5   8  14 1114.69 381.810  25
  -5  -8 -14 1226.56 405.176  13
  -5  -8 -14 886.170 397.374  23
  -5  -8 -15 782.915 310.375  13
  -5  -8 -15 237.923 187.856  23
   5   8  15 300.320 175.405  25
  -5  -8 -15-120.634 280.525  17
  -5  -8 -16 7617.06 1681.67  17
  -5  -8 -16 24293.9 1557.67  13
  -5  -8 -17 895.785 485.570  17
  -5  -8 -17 1587.82 344.686  13
  -5  -9  11 9573.09 896.870  15
  -5  -9  10 3096.85 564.679  15
  -5  -9  10 2772.87 515.097  28
  -5  -9   9 28862.9 1920.63  15
  -5  -9   9 26220.7 1788.81  28
  -5  -9   8 34597.5 2157.31  22
  -5  -9   8 39034.1 2407.82  28
  -5  -9   8 39000.9 2358.56  15
  -5  -9   7 1713.23 508.206  15
  -5  -9   6 14496.0 1579.20  15
  -5  -9   6 17092.4 2429.40  19
  -5  -9   5 12460.9 1508.65  15
  -5  -9   5 13348.6 1708.28  18
  -5  -9   4 2925.75 943.185  19
  -5  -9   4 2930.46 795.459  18
  -5  -9   3 3166.74 983.940  19
  -5  -9   3 1849.82 600.219  18
  -5  -9   2 983.011 470.096  19
  -5  -9   2 773.602 454.113  23
  -5  -9   2 1032.00 411.587  18
  -5  -9   1 46284.3 3472.79  19
  -5  -9   1 43165.8 2766.99  23
  -5  -9   0 31660.0 2806.67  19
  -5  -9   0 31162.5 2277.82  23
  -5  -9  -1-38.8044 783.547   5
  -5  -9  -1 486.959 366.346  19
  -5  -9  -1 164.909 119.853  23
  -5  -9  -2 60657.8 3876.36  19
  -5  -9  -2 56857.9 2986.60  23
  -5  -9  -3 58504.4 3728.34  19
  -5  -9  -3 55336.5 2965.06  23
  -5  -9  -3 63080.4 6263.89   6
  -5  -9  -4 23154.1 2361.27  19
  -5  -9  -4 23147.5 1930.15  23
  -5  -9  -4 25338.0 4175.31   6
  -5  -9  -5 5415.81 1227.68  19
  -5  -9  -5 5219.48 917.846  23
  -5  -9  -5 6112.27 2266.54   6
  -5  -9  -6 89488.7 3972.43  23
  -5  -9  -6 91507.0 4779.04  19
  -5  -9  -7 21001.2 2743.63  17
  -5  -9  -7 21198.7 1965.04  23
  -5  -9  -7 19706.2 2262.56  19
  -5  -9  -8 217.810 304.804  23
  -5  -9  -8-98.8147 251.123  17
  -5  -9  -8 159.344 332.830  19
  -5  -9  -9 3498.90 875.574  23
  -5  -9  -9 940.916 1093.91  17
  -5  -9 -10 1463.93 563.822  23
  -5  -9 -11 12454.5 1624.59  23
  -5  -9 -12 3720.82 873.733  23
  -5  -9 -13 94.6939 157.137  23
  -5  -9 -14 11555.0 1164.05  13
  -5  -9 -14 10693.1 1310.07  23
  -5  -9 -14 7320.74 1936.24  17
  -5  -9 -15 8604.16 930.765  13
  -5  -9 -15 7563.76 990.416  23
  -5  -9 -16 981.934 260.563  13
  -5  -9 -16 417.254 428.609  17
  -5  -9 -16 1286.56 354.495  23
  -5  -9 -17 13283.1 1645.72  17
  -5 -10  10 4608.12 618.800  15
  -5 -10   9 70.5523 80.6752  15
  -5 -10   9 128.572 128.081  28
  -5 -10   8 3882.31 667.734  22
  -5 -10   8 6304.19 893.851  28
  -5 -10   8 6403.51 891.101  15
  -5 -10   7 41536.4 2405.54  15
  -5 -10   7 2874.57 678.763  22
  -5 -10   6 12561.4 1367.70  15
  -5 -10   6 13529.7 2106.11  19
  -5 -10   5 2975.97 1028.57  19
  -5 -10   5 2530.00 687.174  15
  -5 -10   5 2134.39 724.212  18
  -5 -10   4 44462.4 2701.35  15
  -5 -10   4 49350.3 3252.17  18
  -5 -10   3 69029.2 3797.22  18
  -5 -10   3 84664.2 5011.02  19
  -5 -10   2 364.081 255.584  18
  -5 -10   2 211.987 381.209  19
  -5 -10   2 589.693 408.733  23
  -5 -10   1 46049.2 3012.01  18
  -5 -10   1 51675.2 3780.51  19
  -5 -10   0 36720.9 2656.81  18
  -5 -10   0 40639.6 3320.82  19
  -5 -10   0 36932.1 2581.36  23
  -5 -10  -1 202.395 209.682  19
  -5 -10  -1 390.959 313.900  23
  -5 -10  -2 19269.5 2256.12  19
  -5 -10  -2 19145.8 1815.28  23
  -5 -10  -3 11806.2 1780.94  19
  -5 -10  -3 10969.1 1366.41  23
  -5 -10  -4 17109.5 2160.13  19
  -5 -10  -4 16616.9 1692.46  23
  -5 -10  -5 22947.5 2449.88  19
  -5 -10  -5 22780.1 2019.90  23
  -5 -10  -6 84.0483 269.067  19
  -5 -10  -6 340.987 298.512  23
  -5 -10  -7 65438.6 4131.70  19
  -5 -10  -7 66186.5 3535.87  23
  -5 -10  -8 93169.3 4983.98  19
  -5 -10  -8 89724.7 4183.86  23
  -5 -10  -9 2485.99 878.383  19
  -5 -10  -9 2230.32 870.791  17
  -5 -10  -9 3292.54 853.239  23
  -5 -10 -10 4688.03 1722.55  17
  -5 -10 -10 13599.0 1672.70  23
  -5 -10 -11 13858.8 2386.74  17
  -5 -10 -11 35238.1 2673.93  23
  -5 -10 -12 8089.15 1254.68  23
  -5 -10 -12 1113.77 923.644  17
  -5 -10 -13 518.839 270.046  23
  -5 -10 -13 94.2159 465.711  17
  -5 -10 -14 19229.8 1695.55  23
  -5 -10 -14 3551.06 1455.53  17
  -5 -10 -15 870.116 337.241  23
  -5 -10 -15 660.009 465.163  17
  -5 -10 -16 185.806 130.494  23
  -5 -10 -16 164.999 228.965  17
  -5 -11   8 1073.51 328.296  15
  -5 -11   8 956.038 325.335  28
  -5 -11   7 9298.46 1038.23  22
  -5 -11   7 7083.57 1030.00  28
  -5 -11   6 5193.15 811.672  15
  -5 -11   6 5337.64 1227.59  19
  -5 -11   5 5139.36 834.135  15
  -5 -11   5 4416.85 1006.67  18
  -5 -11   4 6277.01 1203.48  18
  -5 -11   4 9052.73 1693.75  19
  -5 -11   3 423.814 342.787  18
  -5 -11   3-39.9156 329.525  19
  -5 -11   2 35798.3 2740.47  18
  -5 -11   2 42164.6 3493.45  19
  -5 -11   1 23296.3 2204.26  18
  -5 -11   1 27271.9 2784.61  19
  -5 -11   0 4942.73 1034.23  18
  -5 -11   0 5345.41 1237.45  19
  -5 -11  -1 75049.0 3936.21  18
  -5 -11  -1 81663.8 4791.13  19
  -5 -11  -1 77243.0 3749.79  23
  -5 -11  -2 77225.6 4663.48  19
  -5 -11  -2 74486.5 3657.14  23
  -5 -11  -3 246.087 278.151  19
  -5 -11  -3 692.583 332.745  23
  -5 -11  -4 19560.5 2266.62  19
  -5 -11  -4 18012.3 1799.42  23
  -5 -11  -5 35954.7 3136.60  19
  -5 -11  -5 35639.5 2544.18  23
  -5 -11  -6 252.158 199.773  19
  -5 -11  -6 481.444 313.522  23
  -5 -11  -7 9268.19 1690.74  19
  -5 -11  -7 10702.4 1431.08  23
  -5 -11  -8 4802.59 947.266  23
  -5 -11  -8 4628.34 1155.60  19
  -5 -11  -9 125.169 164.359  23
  -5 -11  -9 152.166 246.381  19
  -5 -11  -9-197.659 420.533  17
  -5 -11 -10 10682.3 1545.34  19
  -5 -11 -10 12116.2 1529.49  23
  -5 -11 -11 3046.21 1170.46  17
  -5 -11 -11 5418.82 1028.44  23
  -5 -11 -12 5081.97 1275.72  17
  -5 -11 -12 6971.32 1121.20  23
  -5 -11 -13 32330.8 3236.03  17
  -5 -11 -13 53613.9 2906.33  23
  -5 -11 -14 10051.5 1174.26  23
  -5 -11 -14 4681.46 1297.89  17
  -5 -11 -15 10385.4 1062.67  23
  -5 -11 -15 4701.23 1145.04  17
  -5 -12   7 30.3862 132.694  28
  -5 -12   6 630.994 301.417  22
  -5 -12   5 40814.0 3164.72  19
  -5 -12   4 2182.56 658.046  18
  -5 -12   4 4159.79 1063.60  19
  -5 -12   3 1402.01 509.494  18
  -5 -12   3 1381.18 698.570  19
  -5 -12   2 27679.5 2376.03  18
  -5 -12   2 33663.4 3058.83  19
  -5 -12   1 7495.38 1226.85  18
  -5 -12   1 9061.59 1587.98  19
  -5 -12   0 1037.62 519.982  18
  -5 -12   0 1339.29 593.935  19
  -5 -12  -1 2739.37 896.297  19
  -5 -12  -1 2013.08 625.521  18
  -5 -12  -1 211.490 197.423  23
  -5 -12  -2 958.236 460.680  18
  -5 -12  -2 942.066 589.572  19
  -5 -12  -2 1093.07 405.612  23
  -5 -12  -3 13052.1 1626.65  18
  -5 -12  -3 13992.7 1962.09  19
  -5 -12  -3 13161.9 1534.86  23
  -5 -12  -4 8151.36 1587.23  19
  -5 -12  -4 9329.73 1294.76  23
  -5 -12  -5-1.10641 333.053  19
  -5 -12  -5-112.023 245.317  23
  -5 -12  -6 35651.0 3073.61  19
  -5 -12  -6 33014.4 2448.94  23
  -5 -12  -7 33908.0 3111.56  19
  -5 -12  -7 39419.2 2682.87  23
  -5 -12  -8 305.337 202.323  19
  -5 -12  -8-46.1258 182.413  23
  -5 -12  -9 30124.9 2730.83  19
  -5 -12  -9 34239.2 2509.38  23
  -5 -12 -10 60873.6 3673.41  19
  -5 -12 -10 68532.6 3502.69  23
  -5 -12 -11 3728.15 785.402  23
  -5 -12 -11 4137.36 916.835  19
  -5 -12 -12 6721.89 1039.74  23
  -5 -12 -12 2184.74 1063.10  17
  -5 -12 -13 4804.31 816.267  23
  -5 -12 -13 3306.75 960.082  17
  -5 -12 -14 1018.58 357.737  23
  -5 -12 -14-111.961 255.717  17
  -5 -12 -15 2428.84 471.050  23
  -5 -13   5 29.8512 92.5684  22
  -5 -13   4 13857.4 1736.18  19
  -5 -13   3 18217.7 1778.72  18
  -5 -13   3 25456.2 2461.81  19
  -5 -13   2-14.3292 162.811  18
  -5 -13   2-295.664 325.572  19
  -5 -13   1 33834.8 2524.80  18
  -5 -13   1 39828.0 3243.94  19
  -5 -13   0 66931.8 3599.36  18
  -5 -13   0 74522.1 4441.06  19
  -5 -13  -1 10539.2 1419.65  18
  -5 -13  -1 10649.6 1722.85  19
  -5 -13  -2 644.030 486.471  19
  -5 -13  -2 803.743 367.596  18
  -5 -13  -3 47750.4 3060.26  18
  -5 -13  -3 48641.4 3690.26  19
  -5 -13  -3 47961.7 2806.96  23
  -5 -13  -4 7551.51 1210.28  18
  -5 -13  -4 7367.01 1369.20  19
  -5 -13  -4 6890.33 1071.46  23
  -5 -13  -5 513.276 478.587  19
  -5 -13  -5 709.286 352.235  23
  -5 -13  -6 1148.43 621.005  19
  -5 -13  -6 2195.50 620.055  23
  -5 -13  -7 685.285 430.766  19
  -5 -13  -7 451.896 319.422  23
  -5 -13  -8 16022.6 2058.70  19
  -5 -13  -8 20680.1 1853.22  23
  -5 -13  -9 1747.01 644.032  19
  -5 -13  -9 2122.57 566.516  23
  -5 -13 -10 4921.59 1029.27  19
  -5 -13 -10 6078.22 973.759  23
  -5 -13 -11 45256.2 2855.20  19
  -5 -13 -11 55402.8 2854.40  23
  -5 -13 -12 19594.6 1609.74  23
  -5 -13 -13 301.399 181.267  23
  -5 -13 -14 23495.8 1491.94  23
  -5 -14   2 105.496 99.0666  18
  -5 -14   2-131.782 231.575  19
  -5 -14   1 197.060 133.398  18
  -5 -14   1 52.3172 185.348  19
  -5 -14   0 1945.36 543.966  18
  -5 -14   0 2968.86 819.359  19
  -5 -14  -1 13191.2 1526.31  18
  -5 -14  -1 15774.4 1904.19  19
  -5 -14  -2 5820.01 1165.05  19
  -5 -14  -2 5627.46 1010.20  18
  -5 -14  -3 2399.92 800.332  19
  -5 -14  -3 2141.49 579.832  18
  -5 -14  -4 30710.0 2302.66  18
  -5 -14  -4 28105.0 2689.52  19
  -5 -14  -5 37232.1 2524.50  18
  -5 -14  -5 35647.0 2922.48  19
  -5 -14  -5 36208.3 2282.02  23
  -5 -14  -6 6635.23 1268.03  19
  -5 -14  -6 6771.29 983.792  23
  -5 -14  -7 3462.73 886.008  19
  -5 -14  -7 3586.30 707.038  23
  -5 -14  -8 27900.0 2451.98  19
  -5 -14  -8 33215.6 2149.20  23
  -5 -14  -9 7798.69 1294.57  19
  -5 -14  -9 10553.4 1187.76  23
  -5 -14 -10 325.277 247.034  19
  -5 -14 -10 207.914 208.826  23
  -5 -14 -11 1345.25 469.266  19
  -5 -14 -11 1546.25 416.793  23
  -5 -14 -12 186.345 143.895  23
  -5 -15   0 1117.49 395.184  18
  -5 -15   0 754.252 375.147  19
  -5 -15  -1 10215.5 1158.81  18
  -5 -15  -1 12386.3 1572.04  19
  -5 -15  -2 2719.05 616.637  18
  -5 -15  -2 2878.82 786.057  19
  -5 -15  -3 875.474 341.388  18
  -5 -15  -3 965.965 463.913  19
  -5 -15  -4 1934.31 631.944  19
  -5 -15  -4 1630.03 498.309  18
  -5 -15  -5 297.039 280.525  19
  -5 -15  -6 4883.36 1010.14  19
  -5 -15  -7 2164.94 677.159  19
  -5 -15  -8 1513.62 566.988  19
  -5 -15  -8 1921.86 446.307  23
  -5 -15  -9 30007.8 2202.37  19
  -5 -15  -9 35198.2 1872.05  23
  -5 -15 -10 12760.7 1343.01  19
  -5 -16  -4 6021.59 963.924  19
  -5 -16  -5 3668.91 760.565  19
  -5 -16  -6 5859.65 945.599  19
  -6  12   6 7500.03 612.900  20
  -6  12   5 995.931 228.898  20
  -6  12   4 16695.1 923.154  20
  -6  12   3 83.7942 42.8386  20
  -6  12   2 1921.39 348.807  16
  -6  12   1 2711.93 413.005  16
  -6  11   9 915.240 228.228  20
  -6  11   8 3052.91 430.926  20
  -6  11   7 535.447 191.900  20
  -6  11   6 34354.4 1538.70  20
  -6  11   5 8235.03 778.088  20
  -6  11   4 868.390 278.858  16
  -6  11   4 1771.70 368.928  20
  -6  11   3 12990.3 953.902  20
  -6  11   2 21213.6 1184.22  20
  -6  11   1 2152.71 361.144  20
  -6  11   0 2770.39 538.672  16
  -6  11   0 4414.55 487.176  20
  -6  11  -1 10412.0 912.716  16
  -6  11  -2 1393.06 334.867  16
  -6  11  -3 238.592 124.516  16
  -6  10  11 9947.29 751.857  29
  -6  10  10 3125.74 455.051  29
  -6  10  10 2974.90 435.074  20
  -6  10   9 21211.3 1250.54  29
  -6  10   9 22878.7 1266.63  20
  -6  10   8 9067.88 850.039  29
  -6  10   8 9315.60 856.891  20
  -6  10   7 284.054 154.199  29
  -6  10   7 127.994 112.225  20
  -6  10   6 7763.90 805.932  29
  -6  10   6 8233.60 852.465  20
  -6  10   5 3787.42 546.746  29
  -6  10   5 3898.38 590.336  20
  -6  10   4 1106.47 323.861  20
  -6  10   3 3372.15 555.069  20
  -6  10   2 670.142 264.500  20
  -6  10   1 12900.2 1014.69  20
  -6  10   0 7901.87 754.042  20
  -6  10  -1-128.731 177.084  21
  -6  10  -2 26382.7 1659.80  16
  -6  10  -2 34566.0 1835.91  21
  -6  10  -3 21326.0 1357.67  16
  -6  10  -3 24058.7 1513.02  21
  -6  10  -4 7289.32 754.002  16
  -6  10  -4 8959.86 888.521  21
  -6  10  -5 3429.32 468.804  16
  -6  10  -5 4507.61 594.440  21
  -6  10  -6 11576.2 866.923  21
  -6   9  12 668.426 208.065  29
  -6   9  11 1533.47 340.054  29
  -6   9  11 1425.66 302.480  20
  -6   9  10 5916.22 705.397  29
  -6   9  10 5518.17 651.850  20
  -6   9   9-49.7857 90.1351  29
  -6   9   9-3.13105 67.2189  20
  -6   9   8 6640.46 811.613  29
  -6   9   8 6957.31 814.338  20
  -6   9   7 21493.1 1507.46  29
  -6   9   7 23630.5 1549.45  20
  -6   9   6 2113.74 484.191  29
  -6   9   6 2453.27 489.008  20
  -6   9   5 8309.06 917.258  29
  -6   9   5 9546.65 997.060  20
  -6   9   4 21334.7 1480.83  20
  -6   9   3 17368.2 1326.18  20
  -6   9   2 1321.19 349.372  20
  -6   9   1 7177.84 823.997  20
  -6   9   0 4330.16 709.129  21
  -6   9   0 3879.30 584.049  20
  -6   9  -1 366.750 175.863  21
  -6   9  -2 762.536 285.946  21
  -6   9  -3 1034.91 345.681  21
  -6   9  -4 3420.51 602.451  16
  -6   9  -4 4153.92 727.570  21
  -6   9  -5 4915.34 661.642  16
  -6   9  -5 5429.98 787.385  21
  -6   9  -6 70.4907 108.811  16
  -6   9  -6 220.869 182.027  21
  -6   9  -7 11482.6 819.080  16
  -6   9  -7 18399.7 1211.86  21
  -6   9  -8 21439.4 1156.20  21
  -6   8  13 7642.73 673.669  29
  -6   8  12 1664.02 363.339  29
  -6   8  12 1472.46 298.606  20
  -6   8  11 17244.4 1257.88  29
  -6   8  10 14262.3 1220.65  29
  -6   8   9 507.993 273.001  29
  -6   8   8 661.229 314.215  29
  -6   8   7 1745.95 482.014  29
  -6   8   6 1172.68 389.820  29
  -6   8   5 2309.99 529.180  29
  -6   8   4 1586.90 433.244  29
  -6   8   4 2219.49 508.246  20
  -6   8   3 16730.4 1360.52  20
  -6   8   2 19104.9 1424.80  20
  -6   8   1 253.086 161.187  20
  -6   8   0 24643.7 1823.45  21
  -6   8   0 25514.8 1572.18  20
  -6   8  -1 33168.0 2239.49  21
  -6   8  -2 7981.76 1185.68  21
  -6   8  -3 410.715 346.347  21
  -6   8  -4 8900.10 1064.15  16
  -6   8  -4 10920.4 1407.42  21
  -6   8  -5 8978.41 999.512  16
  -6   8  -5 10019.2 1220.46  21
  -6   8  -6 1554.95 401.382  16
  -6   8  -6 1463.61 452.973  21
  -6   8  -7 475.032 207.451  16
  -6   8  -7 687.843 303.456  21
  -6   8  -8 8169.06 852.029  21
  -6   8  -9 5502.96 622.977  21
  -6   7  13 9840.01 830.693  29
  -6   7  13 9509.70 749.145  20
  -6   7  12 9984.29 946.550  29
  -6   7  12 6238.85 849.257  17
  -6   7  11-61.3019 172.509  29
  -6   7  11 278.460 227.681  17
  -6   7  10 7963.25 997.554  29
  -6   7  10 5648.65 895.179  17
  -6   7   9 51097.0 2552.73  29
  -6   7   9 41504.8 2451.28  17
  -6   7   8 11407.5 1233.53  29
  -6   7   7 2499.16 582.017  29
  -6   7   6 44646.4 2432.96  29
  -6   7   5 33815.4 2072.28  29
  -6   7   4 1428.45 415.921  29
  -6   7   3 4330.27 708.042  29
  -6   7   1 5744.87 774.672  20
  -6   7   0 420.852 223.184  20
  -6   7   0 591.762 295.391  21
  -6   7  -1-64.5145 184.554  21
  -6   7  -2 26217.0 2288.70  21
  -6   7  -3 31181.2 2796.11  21
  -6   7  -4 85.5772 301.291  21
  -6   7  -4 174.505 123.717  11
  -6   7  -5 18219.6 1924.96  21
  -6   7  -5 16893.5 1466.20  16
  -6   7  -5 16314.2 1398.49  11
  -6   7  -6 35468.5 2404.98  21
  -6   7  -6 37611.8 2055.94  16
  -6   7  -6 32346.1 1920.64  11
  -6   7  -7 1523.26 461.893  21
  -6   7  -7 1468.14 380.147  16
  -6   7  -7 1070.90 363.220  11
  -6   7  -8 1945.83 456.646  21
  -6   7  -8 1741.78 402.206  16
  -6   7  -8 1347.39 390.570  11
  -6   7  -9 6431.49 781.145  21
  -6   7  -9 4388.95 616.990  11
  -6   7 -10 5396.53 623.676  21
  -6   7 -10 2565.18 427.079  11
   6  -6 -14 1303.47 325.513  23
  -6   6  13 5115.27 780.615  17
  -6   6  13 7922.15 796.357  29
   6  -6 -13 6791.20 796.578  23
  -6   6  12 23346.3 1776.72  17
  -6   6  12 23415.5 1549.63  29
   6  -6 -12 21544.6 1553.41  23
  -6   6  11 109.576 226.206  17
  -6   6  11 488.773 222.317  29
   6  -6 -11 504.192 290.996  23
  -6   6  10 2896.92 634.551  29
  -6   6  10 2324.06 671.746  17
  -6   6   9 3683.72 750.573  29
  -6   6   9 4024.38 850.479  17
  -6   6   8 1272.65 480.134  29
  -6   6   8 1274.58 463.481  17
  -6   6   7 2806.84 635.524  29
  -6   6   7 4064.16 932.618  17
  -6   6   6 503.570 229.117  29
  -6   6   5 32662.3 2076.43  29
  -6   6   4 92382.6 3445.81  29
  -6   6   4 94131.2 4512.15   8
  -6   6   3 10140.4 1111.34  29
  -6   6   3 10528.9 1486.78   8
  -6   6   2 1114.51 615.397   8
  -6   6   1 65704.2 3124.58   9
  -6   6   1 72248.9 3807.07   8
  -6   6   1 62618.3 2821.14  21
  -6   6   0 24554.6 2237.92   8
  -6   6   0 20842.1 1703.80  21
  -6   6   0 21371.4 1464.65  20
  -6   6  -1 1745.08 639.157   8
  -6   6  -1 1082.97 437.049  21
  -6   6  -2 10755.5 1439.46  21
  -6   6  -2 13644.3 1365.66  11
  -6   6  -3 3918.96 1031.57  21
  -6   6  -3 6516.22 973.165  11
  -6   6  -4 2035.19 985.072  21
  -6   6  -4 1976.99 533.964  11
  -6   6  -5 224.546 243.961  21
  -6   6  -5 453.312 269.332  16
  -6   6  -5 352.178 205.112  11
  -6   6  -6 1149.79 496.441  21
  -6   6  -6 1139.70 408.659  16
  -6   6  -6 1174.83 406.755  11
  -6   6  -7 21092.6 1891.57  21
  -6   6  -7 23436.6 1646.60  16
  -6   6  -7 20136.5 1600.99  11
  -6   6  -8 7569.73 1030.82  21
  -6   6  -8 8603.35 942.608  16
  -6   6  -8 7524.54 919.412  11
  -6   6  -9 543.371 173.581  21
  -6   6  -9 122.195 181.729  11
  -6   6 -10 11022.9 1022.70  21
  -6   6 -10 7782.74 862.738  11
  -6   6 -11 18458.8 1129.90  21
  -6   6 -11 12142.1 946.086  11
  -6   5  14 7345.29 931.955  17
   6  -5 -14 11827.2 1019.34  23
  -6   5  13 5474.60 860.166  17
  -6   5  13 5470.61 697.027  29
   6  -5 -13 4931.77 737.152  23
  -6   5  12 8585.86 1131.39  17
  -6   5  12 7502.21 911.018  29
   6  -5 -12 7103.21 931.638  23
  -6   5  11 46472.4 2880.22  17
  -6   5  11 45068.8 2399.52  29
   6  -5 -11 38170.6 2252.32  23
  -6   5  10 42130.2 2430.77  29
  -6   5  10 44093.4 2930.81  17
  -6   5   9 260.082 215.488  29
  -6   5   9 284.830 263.869  17
  -6   5   8 42088.7 3204.08  17
  -6   5   7 77233.0 4670.50  17
  -6   5   6 12580.2 1552.38   8
  -6   5   6 14699.4 1921.08  17
  -6   5   5 10238.9 1338.82   8
  -6   5   5 13202.2 1802.31  17
  -6   5   4 5999.70 1010.19   8
  -6   5   3 17074.2 1697.57   8
  -6   5   2 14424.9 1506.06   8
  -6   5   1 3884.99 814.085   8
  -6   5   1 3727.06 679.207  21
  -6   5   0 13714.7 1436.75   9
  -6   5   0 13863.7 1484.78   8
  -6   5   0 12078.5 1267.92  21
  -6   5  -1 83300.4 3523.95   9
  -6   5  -1 87238.6 3741.39   8
  -6   5  -1 75862.4 3319.99  21
  -6   5  -2 9799.36 1206.13   9
  -6   5  -2 10679.5 1353.87   8
  -6   5  -2 11616.6 1252.18  11
  -6   5  -2 8668.46 1228.21  21
  -6   5  -3 18826.0 1800.78   8
  -6   5  -3 18961.4 1591.60  11
  -6   5  -3 14744.3 1725.91  21
  -6   5  -4 99654.3 4337.54   8
  -6   5  -4 90575.4 4758.45  21
  -6   5  -4 104566. 3807.12  11
  -6   5  -5 14435.2 1913.34  21
  -6   5  -5 16781.2 1567.03  16
  -6   5  -5 18789.8 1649.39  11
  -6   5  -6 374.284 316.288  21
  -6   5  -6 390.706 262.783  14
  -6   5  -6 68.3793 162.709  16
  -6   5  -6 316.839 121.789  11
  -6   5  -7 13580.1 1583.77  21
  -6   5  -7 16043.9 1403.76  16
  -6   5  -7 14923.4 1238.72  14
  -6   5  -7 16214.6 1516.70  11
  -6   5  -8 2037.32 576.845  21
  -6   5  -8 2676.38 527.107  16
  -6   5  -8 2830.07 630.246  11
  -6   5  -9-83.8854 143.886  21
  -6   5  -9-206.360 158.532  16
  -6   5 -10 1319.85 390.423  21
  -6   5 -10 1214.81 408.168  11
  -6   5 -11-21.9017 94.7044  21
  -6   5 -11-39.9793 101.074  11
  -6   5 -12 6360.58 700.504  11
   6  -4 -15 3220.48 494.061  23
  -6   4  14 11674.4 1209.85  17
   6  -4 -14 11541.1 1070.03  23
  -6   4  13 4821.07 863.137  17
  -6   4  13 4567.13 657.524  29
   6  -4 -13 3597.78 668.560  23
  -6   4  12 328.900 161.578  29
  -6   4  12 251.361 222.170  17
  -6   4  11 598.063 325.717  29
  -6   4  11 265.021 217.198  17
  -6   4  10 3527.02 702.074  29
  -6   4  10 3558.97 975.072  17
  -6   4   9 33043.2 2972.92  17
  -6   4   8 41162.4 3419.95  17
  -6   4   7-4.53205 185.684  17
  -6   4   6 51442.3 2790.79   8
  -6   4   6 49775.7 3692.87  17
  -6   4   5 45662.8 2572.44   8
  -6   4   5 42024.7 3285.80  17
  -6   4   4 628.538 261.933   8
  -6   4   4 1254.12 846.705   1
  -6   4   4 718.587 302.303  17
  -6   4   3 30043.6 2039.48   8
  -6   4   3 28744.8 4142.41   1
  -6   4   2 32212.6 2088.89   8
  -6   4   2 31331.3 4338.92   1
  -6   4   1 4007.30 703.160  21
  -6   4   1 4142.12 770.446   8
  -6   4   1 4898.20 1683.77   1
  -6   4   0 21843.5 1715.10   8
  -6   4   0 19613.9 1557.82  21
  -6   4  -1 17605.3 1619.93   9
  -6   4  -1 18432.0 1589.15   8
  -6   4  -1 21005.6 1627.94  11
  -6   4  -1 15920.9 1458.22  21
  -6   4  -2 257.807 124.517   9
  -6   4  -2 431.022 235.764   8
  -6   4  -2 11.5769 188.528  11
  -6   4  -2 140.289 176.957  21
  -6   4  -3 11005.8 1211.35  11
  -6   4  -3 10304.1 1053.26  14
  -6   4  -3 9658.21 1216.65   9
   6  -4   3 9581.16 3175.76   7
  -6   4  -3 8985.99 1157.74   8
  -6   4  -3 9517.03 1257.42  21
  -6   4  -4 6321.86 940.696  11
  -6   4  -4 4811.79 763.687  14
  -6   4  -4 5494.96 881.767  16
  -6   4  -4 5441.08 915.596   8
  -6   4  -4 4629.32 948.297  21
  -6   4  -5 20950.2 1735.83  11
  -6   4  -5 17979.4 1411.39  14
  -6   4  -5 18632.4 1603.75  16
  -6   4  -5 18902.3 1719.57   8
  -6   4  -5 16552.8 1825.09  21
  -6   4  -6 38967.6 2775.43  21
  -6   4  -6 40902.7 2126.77  14
  -6   4  -6 42197.6 2363.99  16
  -6   4  -7 14198.9 1598.14  21
  -6   4  -7 15472.0 1311.07  14
  -6   4  -7 16283.3 1444.29  16
  -6   4  -7 16478.4 1588.19  11
  -6   4  -8 8368.14 1162.48  21
  -6   4  -8 9138.05 984.952  14
  -6   4  -8 9672.06 1108.00  16
  -6   4  -8 9671.30 1220.86  11
  -6   4  -9 43927.7 2535.36  21
  -6   4  -9 43954.1 2062.52  14
  -6   4  -9 48983.8 2283.24  16
  -6   4  -9 45244.7 2566.92  11
  -6   4 -10 24070.2 1734.63  21
  -6   4 -10 22294.0 1755.02  11
  -6   4 -11 361.452 270.789  21
  -6   4 -11 63.1508 141.289  11
  -6   4 -12 12385.5 1098.21  11
  -6   4 -13 3222.13 475.136  11
   6  -3 -15 13433.3 1046.76  23
  -6   3  14 574.030 318.014  17
   6  -3 -14 725.301 238.189  23
  -6   3  13 17822.3 1804.00  17
  -6   3  12 80514.1 3815.73  17
  -6   3  12 68832.7 2846.95  29
  -6   3  11 18597.0 2001.43  17
  -6   3  11 16455.4 1489.12  29
  -6   3  10 3186.84 891.260  17
  -6   3  10 76.7964 106.590  15
  -6   3   9 35663.6 3244.43  17
  -6   3   9 144.841 200.936  15
  -6   3   8 4149.67 1202.54  17
  -6   3   8-33.4391 99.0287  15
  -6   3   7 4977.95 1412.87  17
  -6   3   7 8.93251 131.078  15
  -6   3   6-208.994 326.663  17
  -6   3   6 25.4629 100.019  10
  -6   3   6 1.43395 163.436  15
  -6   3   5 1019.61 371.837   8
  -6   3   5 1520.54 902.942   1
  -6   3   5 1083.11 621.116  17
  -6   3   4 31064.5 1968.06   8
  -6   3   4 25892.0 3732.56   1
  -6   3   4 29625.0 2732.42  17
  -6   3   3 233.962 191.303   8
  -6   3   3 45.3867 180.163   1
  -6   3   3-56.2042 147.443  17
  -6   3   2 8181.18 2130.63   1
  -6   3   2 7496.28 947.976   8
  -6   3   1 60468.3 5724.97   1
  -6   3   0 58927.1 5696.79   1
  -6   3   0 52584.0 2462.77  21
  -6   3   0 63503.9 2736.39  11
  -6   3  -1 714.147 329.505  14
  -6   3  -1 227.548 210.189  21
  -6   3  -1 864.612 358.792  11
  -6   3  -1 345.060 443.680   1
  -6   3  -1 220.052 127.972   9
  -6   3  -1 491.109 281.304   8
  -6   3  -2 47833.5 2415.20  11
  -6   3  -2 42547.6 2086.48  14
  -6   3  -2 42938.9 2531.73   9
  -6   3  -2 39428.1 2190.08   8
   6  -3   2 50387.6 6755.41   7
  -6   3  -2 36558.7 2199.80  21
  -6   3  -3 55056.4 2630.88  11
  -6   3  -3 49190.3 2267.75  14
  -6   3  -3 50239.5 2541.96  16
  -6   3  -3 48854.8 2721.56   9
  -6   3  -3 39804.9 2197.95   8
   6  -3   3 52543.5 6975.49   7
  -6   3  -3 43155.3 2487.17  21
  -6   3  -4 2828.25 620.562  11
  -6   3  -4 2427.01 509.150  14
  -6   3  -4 2329.10 528.588  16
   6  -3   4 4643.51 2166.58   7
  -6   3  -4 2722.88 676.838   9
  -6   3  -4 2415.16 554.561   8
  -6   3  -4 1994.22 536.751  21
  -6   3  -5 20591.7 1737.21  11
  -6   3  -5 20401.4 1627.80  16
  -6   3  -5 20798.2 1484.57  14
  -6   3  -5 18458.5 1436.86  10
   6  -3   5 22165.3 4625.53   7
  -6   3  -5 19734.3 1610.14   8
  -6   3  -5 17604.4 1724.23  21
  -6   3  -6 17754.9 1751.95  21
  -6   3  -6 19679.0 1593.24  16
  -6   3  -6 19329.0 1449.80  14
  -6   3  -6 21140.8 1807.04  11
  -6   3  -7 3691.92 800.014  21
  -6   3  -7 3797.51 656.047  14
  -6   3  -7 3721.68 703.846  16
  -6   3  -7 3721.19 757.070  11
  -6   3  -8 1628.51 494.395  21
  -6   3  -8 2025.07 506.433  16
  -6   3  -8 2133.75 497.747  14
  -6   3  -8 2038.56 590.376  11
  -6   3  -9 626.676 287.187  21
  -6   3  -9 1016.75 341.628  16
  -6   3  -9 808.507 318.042  14
  -6   3  -9 786.786 290.432  11
  -6   3 -10 16406.3 1473.25  21
  -6   3 -10 16515.0 1272.49  14
  -6   3 -10 15011.8 1568.19  11
  -6   3 -11 12209.6 1162.77  21
  -6   3 -11 11660.8 1286.66  11
  -6   3 -11 12519.4 1047.57  14
  -6   3 -12 3830.76 648.744  11
  -6   3 -13 7801.20 865.794  11
  -6   3 -14 11644.5 979.122  11
   6  -2 -15 1970.30 397.485  23
  -6   2  14 1400.07 459.155  17
  -6   2  13-16.2074 127.619  15
  -6   2  13-4.52015 125.806  17
  -6   2  12 593.153 279.411  29
  -6   2  12 671.092 432.773  17
  -6   2  11 14820.9 1422.18  26
  -6   2  11 16537.7 1910.33  17
  -6   2  10 21170.6 1676.24  26
  -6   2  10 26002.2 2716.61  17
  -6   2   9-23.0980 71.2016  26
  -6   2   9 62.1347 228.826  17
  -6   2   8 29817.0 1863.93  22
  -6   2   8 29367.7 1899.25  26
  -6   2   7 52392.9 2461.39  22
  -6   2   7 48950.8 2363.21  26
  -6   2   6 663.267 250.891  22
  -6   2   6-41.4609 266.597  17
  -6   2   6 509.766 519.037   1
  -6   2   5 4612.65 702.677  10
  -6   2   5 5066.31 1149.81  17
  -6   2   5 5464.45 1686.42   1
  -6   2   5 5730.82 783.977  22
  -6   2   4 70430.0 2812.53  10
  -6   2   4 83616.3 4317.40  17
  -6   2   4 80597.1 6561.46   1
  -6   2   4 77753.1 2849.62  22
  -6   2   3 30580.2 4046.87   1
  -6   2   3 32249.7 1820.70  22
  -6   2   2 2206.95 1064.88   1
  -6   2   1 1288.46 823.897   1
  -6   2   0 11404.3 2425.63   1
  -6   2  -1 21917.2 3345.11   1
  -6   2  -1 23730.4 1846.11   9
  -6   2  -2 379.757 447.014   1
  -6   2  -2 89.1104 149.452   9
  -6   2  -3 20274.5 1554.37  16
  -6   2  -3 20780.0 1418.04  14
  -6   2  -3 18688.3 1541.12  21
  -6   2  -3 22168.0 1640.71  11
  -6   2  -3 18848.3 3184.15   1
  -6   2  -3 19787.0 1711.79   9
   6  -2   3 24514.9 4407.28   7
  -6   2  -4 56737.3 2756.95  11
  -6   2  -4 54376.0 2345.04  14
  -6   2  -4 55575.1 2595.10  16
  -6   2  -4 53629.6 2441.55  10
  -6   2  -4 56889.4 2940.47   9
   6  -2   4 52404.7 6575.93   7
  -6   2  -4 46387.2 2557.80  21
  -6   2  -5 11168.9 1253.41  11
  -6   2  -5 10234.6 1044.42  14
  -6   2  -5 10108.3 1117.68  16
  -6   2  -5 8309.98 935.294  10
   6  -2   5 9309.53 2682.41   7
  -6   2  -5 8860.17 1003.86   8
  -6   2  -5 10249.3 1228.04  21
  -6   2  -6 23761.0 1943.19  11
  -6   2  -6 21584.2 1639.11  16
  -6   2  -6 21850.6 1552.08  14
   6  -2   6 20150.1 4000.85   7
  -6   2  -6 20099.6 1755.58  21
  -6   2  -7 89799.9 3728.89  21
  -6   2  -7 86676.7 3098.56  14
  -6   2  -7 95395.5 3435.71  16
  -6   2  -7 98203.7 4103.80  11
  -6   2  -8 48983.0 2735.44  21
  -6   2  -8 47249.1 2279.18  14
  -6   2  -8 52064.2 2519.69  16
  -6   2  -8 55594.5 3152.45  11
  -6   2  -9 312.211 248.255  21
  -6   2  -9 643.735 301.749  16
  -6   2  -9 441.589 259.104  14
  -6   2  -9 26.7551 293.707  11
  -6   2 -10 13532.0 1358.83  21
  -6   2 -10 13780.0 1592.11  11
  -6   2 -10 16051.9 1340.22  14
  -6   2 -11 19440.7 1802.99  11
  -6   2 -11 21977.7 1480.22  14
  -6   2 -12 1428.07 382.656  14
  -6   2 -12 1305.31 396.145  11
  -6   2 -13 115.497 120.183  11
  -6   2 -14-116.916 127.384  11
  -6   2 -15 621.156 224.036  11
   6  -1 -15 4582.70 607.252  23
  -6   1  14 38.0919 95.5559  15
  -6   1  14 17220.5 1518.16  17
  -6   1  13 10184.8 1089.80  26
  -6   1  13 9751.79 1274.22  17
  -6   1  12 217.917 135.999  26
  -6   1  12-34.3798 200.012  17
  -6   1  11 18334.0 1574.14  26
  -6   1  11 21551.0 2234.14  17
  -6   1  10 2141.83 504.758  26
  -6   1  10 2962.73 1030.73  17
  -6   1   9 4062.81 733.497  26
  -6   1   9 3951.23 1263.19  17
  -6   1   9 4391.36 705.858  22
  -6   1   8-76.3912 215.129  22
  -6   1   8 125.654 112.710  26
  -6   1   8-357.231 369.920  17
  -6   1   7 161.853 136.598  22
  -6   1   7 242.695 151.292  26
  -6   1   6 40435.8 4788.31   1
  -6   1   6 43730.3 2197.90  22
  -6   1   5 18622.4 3189.29   1
  -6   1   5 17254.9 1352.39  22
  -6   1   5 18429.1 1433.46  24
  -6   1   5 15988.0 1269.83  10
  -6   1   4 1366.93 384.957  10
  -6   1   4 2379.29 487.891  22
  -6   1   4 1415.80 744.458  17
  -6   1   4 2244.35 518.862  24
  -6   1   4 2741.22 1277.43   1
  -6   1   3 114999. 7741.97   1
  -6   1   3 104505. 3311.27  10
  -6   1   2 149682. 8712.90   1
  -6   1   2 141483. 3870.76  10
  -6   1   1 1923.34 1022.62   1
  -6   1   1 2187.57 484.289  10
  -6   1   0 34010.0 4083.66   1
  -6   1   0 34557.7 1912.77  10
  -6   1  -1 78921.0 6201.75   1
  -6   1  -1 79253.6 2899.33  10
  -6   1  -2 1227.23 736.787   1
  -6   1  -2 1395.15 398.625  10
  -6   1  -2 1840.14 508.742   9
  -6   1  -3 579.608 527.560   1
  -6   1  -3 575.533 227.092  10
   6  -1   3 345.517 498.232   7
  -6   1  -3 589.891 347.797   9
  -6   1  -4 2413.31 541.915  16
  -6   1  -4 1905.36 503.449  21
  -6   1  -4 1945.75 418.596  14
  -6   1  -4 1760.09 887.081   1
  -6   1  -4 2023.77 436.665  10
   6  -1   4 348.403 501.479   7
  -6   1  -4 2344.72 616.783   9
  -6   1  -5 349.884 171.586  14
  -6   1  -5 260.732 270.027  11
  -6   1  -5 597.853 340.330  16
   6  -1   5-191.493 382.320   7
  -6   1  -5 300.768 148.280  10
  -6   1  -5 310.212 230.596  21
  -6   1  -6 349.390 247.003  14
  -6   1  -6 404.156 254.619  11
  -6   1  -6 786.865 343.259  16
  -6   1  -6 576.430 294.273  21
  -6   1  -7 3160.90 700.679  21
  -6   1  -7 3966.16 637.173  14
  -6   1  -7 4212.69 721.016  16
  -6   1  -7 3885.27 868.906  11
  -6   1  -8 11817.6 1307.77  21
  -6   1  -8 12003.2 1162.77  14
  -6   1  -8 12863.9 1270.42  16
  -6   1  -8 14624.7 1670.86  11
  -6   1  -8 12847.7 1260.20  13
  -6   1  -9 15066.3 1462.69  21
  -6   1  -9 11663.1 1191.05  16
  -6   1  -9 14401.2 1290.24  14
  -6   1  -9 13577.0 1314.89  13
  -6   1  -9 15277.4 1739.42  11
  -6   1 -10 3993.14 719.847  21
  -6   1 -10 3388.10 678.186  13
  -6   1 -10 3557.95 902.612  11
  -6   1 -10 4176.03 694.599  14
  -6   1 -11 4430.10 1009.23  11
  -6   1 -11 4747.58 781.393  13
  -6   1 -11 5338.98 765.553  14
  -6   1 -12 30184.9 2418.88  11
  -6   1 -12 40493.9 1999.83  14
  -6   1 -13 17372.1 1611.57  11
  -6   1 -13 8421.43 905.229  14
  -6   1 -14-139.330 198.046  11
  -6   1 -15 580.955 273.202  11
   6   0 -15 2956.03 467.215  23
  -6   0  14 1223.92 351.859  26
  -6   0  14 383.253 305.972  17
  -6   0  13 21346.6 1575.79  26
  -6   0  13 18880.6 1753.84  17
  -6   0  12 29616.2 1951.48  26
  -6   0  12 30565.0 2423.11  17
  -6   0  11 124.008 181.668  26
  -6   0  11-212.521 430.565  17
  -6   0  10 23976.4 1817.13  26
  -6   0  10 28426.6 2854.64  17
  -6   0   9 47742.3 2349.83  22
  -6   0   9 47580.0 2531.22  26
  -6   0   9 48713.8 3922.33  17
  -6   0   8 20782.5 1559.23  22
  -6   0   8 18863.3 1563.87  26
  -6   0   7 8164.35 947.276  22
  -6   0   7 7265.97 919.807  26
  -6   0   6 30547.4 4220.43   1
  -6   0   6 29296.0 1790.37  22
  -6   0   6 22761.4 2590.24  17
  -6   0   6 28156.5 1800.33  24
  -6   0   5 7736.95 2120.56   1
  -6   0   5 6952.56 866.721  22
  -6   0   5 4226.20 1291.47  17
  -6   0   5 6415.43 848.207  24
  -6   0   4 4069.27 632.272  22
  -6   0   4 4056.76 1480.41   1
  -6   0   4 4525.47 659.923  10
  -6   0   4 5054.62 1061.79  17
  -6   0   3 4461.43 658.976  10
  -6   0   3 4908.19 1636.54   1
  -6   0   2 380.692 422.824   1
  -6   0   1 49602.3 4962.04   1
  -6   0   0 1186.77 740.095   1
  -6   0  -1 6342.40 1745.44   1
  -6   0  -2 74686.0 5890.33   1
  -6   0  -3 93454.2 3679.72   9
  -6   0  -3 90166.4 6419.62   1
  -6   0  -4 56.0375 72.9226  10
  -6   0  -4-25.8016 137.347   1
  -6   0  -5 57768.4 5238.95   1
  -6   0  -5 54321.5 2600.71  21
  -6   0  -5 60597.6 2414.03  10
  -6   0  -5 61385.9 2608.86  16
  -6   0  -5 58682.6 2397.23  14
  -6   0  -6 111367. 3592.15  16
  -6   0  -6 101762. 3238.36  14
  -6   0  -6 98501.0 3573.21  21
  -6   0  -6 111674. 4103.30  11
  -6   0  -6 99306.2 3382.67  13
  -6   0  -7 7051.85 891.012  14
  -6   0  -7 6735.03 893.756  16
  -6   0  -7 6797.45 953.312  21
  -6   0  -7 7019.90 942.366  13
  -6   0  -7 8170.24 1167.34  11
  -6   0  -8 588.301 298.165  16
  -6   0  -8 836.533 363.388  21
  -6   0  -8 837.360 279.225  14
  -6   0  -8 867.729 338.479  13
  -6   0  -8 970.333 417.051  11
  -6   0  -9 18746.7 1468.88  14
  -6   0  -9 20321.4 1518.27  16
  -6   0  -9 18299.1 1561.98  21
  -6   0  -9 18685.7 1623.89  13
  -6   0  -9 20846.3 2145.87  11
  -6   0 -10-105.031 138.994  16
  -6   0 -10-38.8220 164.578  14
  -6   0 -10-109.524 164.236  13
  -6   0 -10 66.5732 218.924  11
  -6   0 -11-9.62560 95.8903  13
  -6   0 -11-155.022 259.469  11
  -6   0 -12 82.9783 86.3122  14
  -6   0 -12 94.3794 215.035  13
  -6   0 -12-141.685 254.730  11
  -6   0 -13 6674.07 787.692  14
  -6   0 -13 6203.27 824.459  13
  -6   0 -13 4596.39 826.684  11
  -6   0 -14 17456.8 1197.58  14
  -6   0 -14 10312.2 1168.83  11
  -6   0 -15 1805.84 340.433  14
  -6   0 -15 1103.38 345.526  11
  -6   0 -16 757.252 261.183  11
  -6  -1  14 31.7669 80.6930  26
  -6  -1  13 14557.5 1285.87  26
  -6  -1  13 9171.50 1268.62  17
  -6  -1  12 3866.58 710.321  26
  -6  -1  12 3096.66 821.446  17
  -6  -1  11-186.961 210.980  26
  -6  -1  11 488.645 345.588  17
  -6  -1  10 2153.58 540.862  26
  -6  -1  10 2662.95 894.155  17
  -6  -1  10 186.255 207.413  15
  -6  -1   9 3894.81 741.504  26
  -6  -1   9 2796.87 1139.32  17
  -6  -1   9 3133.78 700.495  15
  -6  -1   9 3576.56 643.222  22
  -6  -1   8 13910.4 1350.54  26
  -6  -1   8 14476.5 1466.39  15
  -6  -1   8 14031.9 1283.33  22
  -6  -1   7 19524.3 1630.94  28
  -6  -1   7 16700.5 1396.04  24
  -6  -1   7 18984.1 1485.12  22
  -6  -1   7 19144.7 1612.73  15
  -6  -1   6 275.224 184.304  28
  -6  -1   6 178.339 128.913  24
  -6  -1   6-131.497 296.592   1
  -6  -1   6 103.464 84.8484  22
  -6  -1   6 89.8595 84.5578  15
  -6  -1   5 44974.3 2204.59  24
  -6  -1   5 47660.8 2274.91  22
  -6  -1   5 49961.3 2432.68  28
  -6  -1   5 35363.1 2081.58  15
  -6  -1   5 39713.4 3075.91  17
  -6  -1   5 46653.2 5231.96   1
  -6  -1   4 63642.0 2563.52  22
  -6  -1   4 62781.4 2463.19  10
  -6  -1   4 68788.7 6280.04   1
  -6  -1   3 16368.6 3032.32   1
  -6  -1   2 48311.1 5080.23   1
  -6  -1   1 89597.0 6717.90   1
  -6  -1   0 34960.5 4135.31   1
  -6  -1  -1 386.423 348.420   1
  -6  -1  -2 22022.3 3183.39   1
  -6  -1  -3 2648.57 1120.21   1
  -6  -1  -4 11852.4 1298.40   9
  -6  -1  -4 11429.3 2249.41   1
  -6  -1  -5 717.073 270.882  10
  -6  -1  -5 640.488 310.802   9
  -6  -1  -5-8.77252 102.292   1
  -6  -1  -6 8424.44 1020.29  21
  -6  -1  -6 8500.28 1024.55  13
  -6  -1  -6 9219.51 1056.40  16
  -6  -1  -6 8536.40 935.182  14
  -6  -1  -7 63558.2 2811.35  21
  -6  -1  -7 68214.1 2714.61  14
  -6  -1  -7 66470.6 2959.32  13
  -6  -1  -7 68573.1 3440.24  11
  -6  -1  -8 20769.5 2447.45  17
  -6  -1  -8 27597.1 1795.78  16
  -6  -1  -8 27120.5 1762.73  14
  -6  -1  -8 27396.9 2019.66  13
  -6  -1  -8 28439.2 2465.51  11
  -6  -1  -9 448.829 231.004  16
  -6  -1  -9 324.004 246.951  13
  -6  -1  -9 452.472 445.104  11
  -6  -1  -9 517.466 217.022  14
  -6  -1 -10 31020.9 1830.41  16
  -6  -1 -10 31100.0 1943.37  14
  -6  -1 -10 31380.6 2253.85  13
  -6  -1 -10 24740.1 2666.03  11
  -6  -1 -11 55311.4 2578.09  14
  -6  -1 -11 61517.5 3096.27  13
  -6  -1 -12 4066.04 669.539  14
  -6  -1 -12 4281.67 784.424  13
  -6  -1 -13 1326.39 376.455  14
  -6  -1 -13 1431.08 418.867  13
  -6  -1 -13 700.844 392.776  11
  -6  -1 -14 4357.73 624.865  14
  -6  -1 -14 3973.31 675.354  13
  -6  -1 -14 2880.55 645.125  11
  -6  -1 -15 432.804 192.784  14
  -6  -1 -15 43.1707 123.318  11
  -6  -1 -16-308.308 215.996  11
  -6  -2  14 35185.9 1760.20  26
  -6  -2  13 21661.5 1525.20  26
  -6  -2  12 13629.6 1314.20  26
  -6  -2  11 50548.8 2656.91  26
  -6  -2  11 61278.0 3467.59  17
  -6  -2  10 66564.2 3116.49  26
  -6  -2  10 67955.8 3250.02  15
  -6  -2   9 162.891 187.723  26
  -6  -2   9-26.4325 176.832  28
  -6  -2   9 118.342 93.8160  22
  -6  -2   9-182.843 193.762  17
  -6  -2   9 299.584 235.245  15
  -6  -2   8 22825.5 1846.81  28
  -6  -2   8 23275.9 1787.68  26
  -6  -2   8 18655.6 2590.48  17
  -6  -2   8 23014.1 1883.25  15
  -6  -2   8 22638.0 1660.01  22
  -6  -2   7 34841.4 2234.78  28
  -6  -2   7 33820.0 2045.54  22
  -6  -2   7 32682.0 2188.58  15
  -6  -2   6 321.044 206.081  28
  -6  -2   6 334.787 202.262  24
  -6  -2   6 974.517 804.353   1
  -6  -2   6 548.974 197.366  22
  -6  -2   6-1.08665 210.080  17
  -6  -2   6 420.120 237.339  15
  -6  -2   5 23374.0 1576.60  24
  -6  -2   5 22366.4 1611.94  22
  -6  -2   5 23693.2 1717.52  28
  -6  -2   5 23283.0 3854.57   1
  -6  -2   5 20259.3 2362.74  17
  -6  -2   5 24042.3 1718.85  15
  -6  -2   4 5117.26 746.729  22
  -6  -2   4 4746.31 739.286  28
  -6  -2   4 5807.82 1217.87  17
  -6  -2   4 5044.23 752.052  15
  -6  -2   4 5052.57 1745.56   1
  -6  -2   3 36527.2 4657.88   1
  -6  -2   2 40044.0 4697.72   1
  -6  -2   1 6046.69 1756.42   1
  -6  -2   0 77908.3 6280.92   1
  -6  -2  -1 125399. 7811.62   1
  -6  -2  -2 15154.1 2642.55   1
  -6  -2  -3 29395.1 3645.71   1
  -6  -2  -4 109013. 6966.99   1
  -6  -2  -4 111098. 3957.69   9
  -6  -2  -5 10834.6 2141.51   1
  -6  -2  -6 13279.1 1187.88  16
  -6  -2  -6 13073.4 1174.27  14
  -6  -2  -6 11319.3 1183.29  13
  -6  -2  -7 30191.9 1809.48  16
  -6  -2  -7 25111.3 1876.01  13
  -6  -2  -7 27267.1 2112.85  11
  -6  -2  -8-29.0278 186.827  16
  -6  -2  -8 234.088 235.874  17
  -6  -2  -8 191.288 228.802  13
  -6  -2  -8-52.3353 192.720  11
  -6  -2  -9 12460.2 1174.44  16
  -6  -2  -9 13264.7 1595.30  13
  -6  -2  -9 12502.6 2072.86  11
  -6  -2 -10 15840.3 1769.27  13
  -6  -2 -10 15739.3 2391.46  11
  -6  -2 -10 15027.6 1267.16  16
  -6  -2 -11 4555.83 911.512  13
  -6  -2 -11 4199.58 1173.00  11
  -6  -2 -11 6765.53 1404.14  17
  -6  -2 -12 45675.2 2741.39  13
  -6  -2 -12 38113.0 3014.53  11
  -6  -2 -12 43978.3 2310.99  14
  -6  -2 -13 15572.0 1476.40  13
  -6  -2 -13 14620.7 1279.39  14
  -6  -2 -14 1804.77 404.822  14
  -6  -2 -14 1642.62 443.131  13
  -6  -2 -14 971.207 420.823  11
  -6  -2 -15 35926.0 1890.66  13
  -6  -2 -15 35655.5 1720.17  14
  -6  -2 -16 3090.35 575.020  11
  -6  -2 -16 12759.4 912.762  14
  -6  -3  14 9317.72 857.563  26
  -6  -3  13 751.237 285.391  26
  -6  -3  12 14315.3 1313.75  26
  -6  -3  12 2015.93 576.057  15
  -6  -3  11 518.503 325.844  26
  -6  -3  11 551.686 255.792  15
  -6  -3  10 11767.5 1310.18  28
  -6  -3  10 12056.6 1328.32  26
  -6  -3  10 12015.6 1387.41  15
  -6  -3   9 40667.0 2482.07  28
  -6  -3   9 39916.8 2477.61  26
  -6  -3   9 41990.1 2627.57  15
  -6  -3   9 38277.3 2159.99  22
  -6  -3   8 42568.1 2563.66  28
  -6  -3   8 40833.7 2460.44  26
  -6  -3   8 43919.0 2651.56  15
  -6  -3   8 41704.9 2321.48  22
  -6  -3   7 21504.8 1783.19  28
  -6  -3   7 20758.3 1812.24  15
  -6  -3   7 20465.6 1622.39  22
  -6  -3   6 136335. 10279.3   1
  -6  -3   6 123387. 4187.19  28
  -6  -3   6 120426. 5871.21  17
  -6  -3   6 126294. 4303.15  15
  -6  -3   6 125618. 4051.17  22
  -6  -3   5 134370. 9836.43   1
  -6  -3   5 129537. 3742.48  24
  -6  -3   5 120505. 3874.56  22
  -6  -3   5 116848. 3914.56  28
  -6  -3   5 123855. 4055.68  15
  -6  -3   4 80.8274 127.525  28
  -6  -3   4 85.2571 123.070  24
  -6  -3   4-6.23324 152.171  22
  -6  -3   4 46.9582 275.699  19
  -6  -3   4-183.507 242.046  17
  -6  -3   4 78.1401 106.561  15
  -6  -3   4 616.183 501.555   1
  -6  -3   3 33123.6 4625.87   1
  -6  -3   2 112568. 8221.45   1
  -6  -3   1 543.216 558.324   1
  -6  -3   0 27055.1 3998.49   1
  -6  -3  -1 3491.98 1344.58   1
  -6  -3  -2 3872.40 1376.67   1
  -6  -3  -3 88433.8 6395.92   1
  -6  -3  -4-90.9920 217.804   1
  -6  -3  -5 41344.7 4204.06   1
  -6  -3  -6 134449. 3740.90  16
  -6  -3  -6 107539. 3691.60  13
  -6  -3  -7 5065.39 748.862  16
  -6  -3  -7 5768.82 1508.93  17
  -6  -3  -7 4272.50 797.692  13
  -6  -3  -8 30190.5 1817.07  16
  -6  -3  -8 26247.7 2127.08  13
  -6  -3  -9 109533. 3510.63  16
  -6  -3  -9 104963. 4760.29  13
  -6  -3  -9 99880.8 4743.06  11
  -6  -3 -10 29067.3 1802.08  16
  -6  -3 -10 32836.9 2953.68  13
  -6  -3 -11 9939.82 2122.35  17
  -6  -3 -11 8964.43 1491.20  13
  -6  -3 -12 21436.6 2814.97  17
  -6  -3 -12 17760.5 1855.01  13
  -6  -3 -13 259.718 392.257  17
  -6  -3 -13 499.398 357.533  13
  -6  -3 -13 110.600 219.587  11
  -6  -3 -14 362.322 129.083  14
  -6  -3 -14 305.303 223.953  13
  -6  -3 -15 2768.49 499.563  14
  -6  -3 -15 2379.31 515.741  13
  -6  -3 -16 699.506 217.848  14
  -6  -3 -16 834.401 297.709  13
  -6  -4  13 8572.69 880.964  26
  -6  -4  12 32926.0 2029.66  15
  -6  -4  12 30304.4 1856.59  26
  -6  -4  11 11365.3 1260.89  15
  -6  -4  11 11291.7 1229.69  26
  -6  -4  10 688.359 303.098  15
  -6  -4  10 912.518 378.290  26
  -6  -4  10 725.768 330.585  28
  -6  -4   9 18126.3 1506.60  22
  -6  -4   9 17547.2 1704.95  15
  -6  -4   9 19117.1 1725.26  28
  -6  -4   9 15668.3 1548.79  26
  -6  -4   8 691.454 311.909  22
  -6  -4   8 1020.28 434.913  26
  -6  -4   8 803.327 347.450  28
  -6  -4   8 645.980 334.173  15
  -6  -4   7 30289.1 2164.56  28
  -6  -4   7 27832.8 2827.68  17
  -6  -4   7 33567.5 2428.00  15
  -6  -4   7 29378.6 2012.44  22
  -6  -4   6 6225.70 969.660  28
  -6  -4   6 5811.98 921.041  22
  -6  -4   6 6229.07 1013.95  15
  -6  -4   5 6265.90 948.365  28
  -6  -4   5 6254.17 943.754  22
  -6  -4   5 4416.78 705.647  24
  -6  -4   5 7754.94 2443.90   1
  -6  -4   5 5682.18 2006.24   5
  -6  -4   5 4174.64 1177.27  19
  -6  -4   5 6399.74 990.883  15
  -6  -4   4 44813.1 5649.59   5
  -6  -4   4 39524.9 2291.65  28
  -6  -4   4 39618.5 2329.67  22
  -6  -4   4 48118.9 5952.53   1
  -6  -4   4 39526.5 2283.15  15
  -6  -4   3 5203.55 1172.96  19
  -6  -4   3 6223.50 904.223  22
  -6  -4   3 8225.18 1008.18  28
  -6  -4   3 9249.74 2539.91   1
  -6  -4   3 7194.03 2198.45   5
  -6  -4   2 16261.7 3094.62   5
  -6  -4   2 16988.0 3378.81   1
  -6  -4   1 98446.4 7415.25   5
  -6  -4   1 108507. 8268.00   1
  -6  -4   0 97033.6 7476.83   1
  -6  -4  -1 879.752 750.650   1
  -6  -4  -2 39893.4 4719.93   1
  -6  -4  -3 101086. 7100.14   1
  -6  -4  -4 583.803 585.100   6
  -6  -4  -4 735.006 586.058   1
  -6  -4  -5 2142.60 1304.36   6
  -6  -4  -6 4692.53 703.838  16
  -6  -4  -6 3360.48 1432.01  17
  -6  -4  -6 4895.23 1742.46   6
  -6  -4  -6 4723.50 767.497  13
  -6  -4  -7 3580.96 1155.79  17
  -6  -4  -7 2416.61 509.702  16
  -6  -4  -7 1921.47 1096.15   6
  -6  -4  -7 2263.31 625.590  13
  -6  -4  -8 12631.1 1169.43  16
  -6  -4  -8 9166.68 2662.63  17
  -6  -4  -8 7025.99 2075.04   6
  -6  -4  -8 10763.8 1354.51  13
  -6  -4  -9 434.619 245.919  16
  -6  -4  -9 437.173 918.823  17
  -6  -4  -9 678.534 468.848  13
  -6  -4 -10 11187.5 1118.66  16
  -6  -4 -10 12381.0 2877.45  17
  -6  -4 -10 9470.59 1755.21  13
  -6  -4 -11 58586.3 5530.09  17
  -6  -4 -11 54632.8 2447.13  16
  -6  -4 -11 59916.1 4855.91  13
  -6  -4 -12 10321.1 2114.18  17
  -6  -4 -12 9418.25 1537.55  13
  -6  -4 -12 5251.94 1128.60  11
  -6  -4 -13 12662.9 2132.52  17
  -6  -4 -13 10519.6 1408.31  13
  -6  -4 -13 6824.34 1141.39  11
  -6  -4 -14 73078.5 4676.81  17
  -6  -4 -14 57935.5 2970.74  13
  -6  -4 -15 27129.1 1837.54  13
  -6  -4 -15 27973.4 1662.96  14
  -6  -4 -16 1142.34 304.484  14
  -6  -4 -16 1182.00 363.612  13
  -6  -4 -17 17589.2 1113.44  13
  -6  -5  13 1540.21 354.396  26
  -6  -5  12 4170.12 662.562  26
  -6  -5  12 4963.08 752.718  15
  -6  -5  11 19991.4 1548.26  28
  -6  -5  11 18081.2 1507.49  26
  -6  -5  11 20842.4 1677.89  15
  -6  -5  10 10613.7 1222.55  28
  -6  -5  10 8649.67 1111.35  26
  -6  -5  10 10143.3 1262.35  15
  -6  -5   9 251.974 203.960  26
  -6  -5   9 46.9752 112.078  28
  -6  -5   9-109.833 245.056  15
  -6  -5   9 63.3366 114.051  22
  -6  -5   8 26155.1 1903.91  22
  -6  -5   8 25384.4 2162.95  15
  -6  -5   8 26149.7 2041.88  28
  -6  -5   7 53377.8 2800.42  22
  -6  -5   7 50079.5 2844.56  28
  -6  -5   7 58431.5 3345.59  15
  -6  -5   6 2003.95 579.129  28
  -6  -5   6 2458.95 675.454  15
  -6  -5   6 1748.92 535.771  22
  -6  -5   6 850.516 673.607  19
  -6  -5   5 17865.2 1695.94  22
  -6  -5   5 16364.7 2333.30  19
  -6  -5   5 20764.9 1794.08  28
  -6  -5   5 22024.7 2026.26  15
  -6  -5   4 23828.1 1913.84  22
  -6  -5   4 26736.3 2042.89  15
  -6  -5   4 22827.7 2525.97  19
  -6  -5   4 31063.9 5015.77   5
  -6  -5   3 13078.2 1539.20  23
  -6  -5   3 14450.5 1372.36  15
  -6  -5   3 11324.4 1683.08  19
  -6  -5   3 15579.1 1786.50  17
  -6  -5   3 15600.9 3441.14   5
  -6  -5   2 3143.15 722.429  23
  -6  -5   2 4028.15 1653.57   5
  -6  -5   2 167.356 218.590  22
  -6  -5   2 2999.84 804.935  19
  -6  -5   1 1646.86 1107.64   5
  -6  -5   1-148.737 264.326  23
  -6  -5   0 2848.39 1232.11   5
  -6  -5  -1 29722.6 3872.99   5
  -6  -5  -1 32278.2 4499.54   1
  -6  -5  -2 2691.84 1187.13   1
  -6  -5  -3 8626.20 2367.86   6
  -6  -5  -3 11321.5 2556.26   1
  -6  -5  -4 154483. 9859.53   6
  -6  -5  -4 158682. 9049.20   1
  -6  -5  -5 21833.6 1523.96  16
  -6  -5  -5 28630.7 2980.02  17
  -6  -5  -5 26343.9 4258.96   6
  -6  -5  -6 8667.62 1115.65  23
  -6  -5  -6 9711.64 1033.53  16
  -6  -5  -6 9083.86 1039.76  13
  -6  -5  -6 12399.2 2039.79  17
  -6  -5  -6 12059.1 2917.51   6
  -6  -5  -7 40739.9 2592.06  23
  -6  -5  -7 49358.3 2375.20  16
  -6  -5  -7 46223.3 2507.42  13
  -6  -5  -7 45301.2 4690.25  17
  -6  -5  -8 67291.8 3631.20  23
  -6  -5  -8 77748.7 3007.70  16
  -6  -5  -8 76760.1 6136.73  17
  -6  -5  -8 75936.2 7391.27   6
  -6  -5  -8 71488.3 3331.28  13
  -6  -5  -9 918.569 344.687  16
  -6  -5  -9 965.839 1231.11  17
  -6  -5  -9 1323.23 463.669  13
  -6  -5 -10 1732.80 1728.99  17
  -6  -5 -10 561.772 194.458  16
  -6  -5 -10 700.147 375.660  13
  -6  -5 -11 5575.29 2164.45  17
  -6  -5 -11 5961.10 1352.47  13
  -6  -5 -12 1829.98 1056.54  17
  -6  -5 -12 1470.31 634.338  13
  -6  -5 -13 1609.43 1038.56  17
  -6  -5 -13 1707.27 576.886  13
  -6  -5 -14 1181.88 702.865  17
  -6  -5 -14 1461.54 472.291  13
  -6  -5 -15 40173.8 3272.37  17
  -6  -5 -15 30856.4 2009.86  13
  -6  -5 -16 23074.3 1542.59  13
  -6  -5 -16 22221.5 1369.49  14
  -6  -5 -17 163.395 95.7873  14
  -6  -5 -17 0.59166 124.143  13
  -6  -6  12-189.984 224.873  15
  -6  -6  12 98.9610 101.732  26
  -6  -6  11 5664.24 838.945  15
  -6  -6  11 5288.43 760.486  28
  -6  -6  11 4557.17 715.344  26
  -6  -6  10 115.151 262.143  15
  -6  -6  10 12.5670 86.3127  26
  -6  -6  10 340.663 228.047  28
  -6  -6   9 15.8213 174.028  22
  -6  -6   9 94.8620 171.023  15
  -6  -6   9-25.1132 127.171  28
  -6  -6   8-122.324 230.947  22
  -6  -6   8 105.626 148.641  15
  -6  -6   8 296.005 299.751  28
  -6  -6   7 18506.0 1754.99  28
  -6  -6   7 17024.2 1636.06  22
  -6  -6   7 17470.6 1884.52  15
  -6  -6   6 34543.5 3597.97  19
  -6  -6   6 38863.0 2543.77  28
  -6  -6   6 36523.9 2453.43  22
  -6  -6   6 41056.0 3066.77  15
  -6  -6   5 19249.8 2624.91  19
  -6  -6   5 16723.3 1645.98  22
  -6  -6   5 23607.0 2371.65  15
  -6  -6   4 6678.30 1463.79  19
  -6  -6   4 7218.67 1215.70  15
  -6  -6   3 46486.5 3589.24  19
  -6  -6   3 47903.7 2962.57  23
  -6  -6   3 46177.9 2691.28  15
  -6  -6   2 74615.7 4350.47  19
  -6  -6   2 78213.9 3682.64  23
  -6  -6   1 14173.8 3224.64   5
  -6  -6   1 11318.1 1606.91  19
  -6  -6   1 10001.0 1278.77  23
  -6  -6   0 47002.2 3195.71  19
  -6  -6   0 41465.1 2543.68  23
  -6  -6  -1 31675.7 2151.13  23
  -6  -6  -1 37557.7 4611.12   5
  -6  -6  -2-306.201 440.971   6
  -6  -6  -2 526.662 275.827  23
  -6  -6  -2 375.962 446.961   5
  -6  -6  -3 4827.06 829.436  23
  -6  -6  -3 4777.97 734.032  16
  -6  -6  -3 4644.18 1829.84   6
  -6  -6  -3 8282.25 2235.78   1
  -6  -6  -4 33.2803 95.2355  23
  -6  -6  -4-141.353 244.787  16
  -6  -6  -4 74.4836 488.108  17
  -6  -6  -4 291.378 400.732   1
  -6  -6  -5 3994.64 702.261  16
  -6  -6  -5 5391.46 1422.62  17
  -6  -6  -5 6454.51 2236.75   6
  -6  -6  -5 3838.03 765.962  23
  -6  -6  -6 9028.20 1215.11  23
  -6  -6  -6 11642.1 1167.44  16
  -6  -6  -6 10498.6 1101.61  13
  -6  -6  -7 152.805 183.603  13
  -6  -6  -7 45.6360 215.406  16
  -6  -6  -7 210.269 411.619  17
  -6  -6  -7 255.725 223.981  23
  -6  -6  -7-542.249 692.987   6
  -6  -6  -8 8037.00 1088.86  13
  -6  -6  -8 6560.16 1222.00  23
  -6  -6  -8 8004.21 1904.73  17
  -6  -6  -8 7235.89 994.479  16
  -6  -6  -9 46163.0 2774.68  13
  -6  -6  -9 44518.9 3593.12  23
  -6  -6 -10 9233.90 1319.19  13
  -6  -6 -10 10850.4 2121.79  23
  -6  -6 -10 8400.54 2520.27  17
  -6  -6 -11 1355.76 1075.95  17
  -6  -6 -11 959.067 396.966  13
  -6  -6 -12 18286.3 3521.38  17
  -6  -6 -12 43786.2 3031.75  13
  -6  -6 -13 14606.7 2802.79  17
  -6  -6 -13 22301.9 2046.71  13
  -6  -6 -14-76.5240 324.574  17
  -6  -6 -14 356.247 286.010  13
  -6  -6 -15 516.890 543.096  17
  -6  -6 -15 1824.15 480.198  13
  -6  -6 -16 6112.52 1207.85  17
  -6  -6 -16 4848.56 652.980  14
  -6  -6 -16 4899.81 702.665  13
  -6  -6 -17-87.8844 119.124  14
  -6  -6 -17 62.3461 56.6528  13
  -6  -7  12 19847.1 1295.98  15
  -6  -7  11 103.757 130.284  15
  -6  -7  11-86.2832 84.2916  26
  -6  -7  11 123.955 125.052  28
  -6  -7  10 24679.9 1783.60  15
  -6  -7  10 25479.0 1765.46  28
  -6  -7   9 30453.3 1901.11  22
  -6  -7   9 30472.0 2135.16  15
  -6  -7   9 30505.5 2088.25  28
  -6  -7   8 25737.8 1872.67  22
  -6  -7   8 23774.1 1931.32  28
  -6  -7   8 24493.4 2052.86  15
  -6  -7   7 376.772 301.568  28
  -6  -7   7 233.081 180.885  15
  -6  -7   7 360.003 291.228  22
  -6  -7   6 3176.65 819.968  28
  -6  -7   6 3421.88 899.473  15
  -6  -7   6 3835.40 803.429  22
  -6  -7   6 2707.37 1168.63  19
  -6  -7   5 100.189 208.591  15
  -6  -7   5 68.5122 416.976  19
  -6  -7   5-37.9917 189.379  22
  -6  -7   4 6576.41 1442.10  15
  -6  -7   4 6594.18 1478.65  19
  -6  -7   3 948.824 409.022  23
  -6  -7   3 938.260 442.108  15
  -6  -7   3 1497.45 689.396  19
  -6  -7   2 32038.5 2901.71  19
  -6  -7   2 31781.9 2509.20  23
  -6  -7   1 15778.2 1954.53  19
  -6  -7   1 16374.1 4019.12   5
  -6  -7   0 7653.71 1350.12  19
  -6  -7   0 6940.15 2357.55   5
  -6  -7   0 6574.59 1052.08  23
  -6  -7  -1 27038.7 2515.99  19
  -6  -7  -1 22136.3 2184.41  17
  -6  -7  -1 24408.1 1977.60  23
  -6  -7  -2 44412.2 2633.90  23
  -6  -7  -2 20896.6 3966.08   6
  -6  -7  -2 56153.2 3559.05  19
  -6  -7  -2 18869.8 2366.77  17
  -6  -7  -2 56623.3 5716.25   5
  -6  -7  -3 53604.8 3509.32  19
  -6  -7  -3 45940.2 2649.65  23
  -6  -7  -3 46161.8 5568.95   6
  -6  -7  -4 631.091 308.697  23
  -6  -7  -4 42.4963 205.565  17
  -6  -7  -5 36791.3 2444.00  23
  -6  -7  -5 52941.1 6765.94   6
  -6  -7  -6 43736.9 4090.18  17
  -6  -7  -6 42870.1 6665.35   6
  -6  -7  -6 29005.9 2232.78  23
  -6  -7  -7 2131.67 618.604  23
  -6  -7  -7 3573.99 1278.08  17
  -6  -7  -8 2324.78 574.068  13
  -6  -7  -8 1996.83 683.216  23
  -6  -7  -8 2104.53 1181.09  17
  -6  -7  -9 3550.40 712.728  13
  -6  -7  -9 3145.61 889.054  23
  -6  -7  -9 1771.73 1444.04  17
  -6  -7 -10 836.485 419.090  13
  -6  -7 -10 550.948 476.784  23
  -6  -7 -10-59.6121 513.803  17
  -6  -7 -11 1156.23 451.771  13
  -6  -7 -11 1121.97 544.977  23
  -6  -7 -11 656.304 640.985  17
  -6  -7 -12 3776.78 791.307  13
  -6  -7 -12 2907.38 863.443  23
  -6  -7 -12 1711.02 1436.50  17
  -6  -7 -13 12230.5 2644.33  17
  -6  -7 -13 19195.0 1773.34  13
  -6  -7 -14 25409.5 3138.58  17
  -6  -7 -14 34302.8 2241.31  13
  -6  -7 -15 613.230 601.544  17
  -6  -7 -15 706.356 272.648  13
  -6  -7 -16 5240.34 1180.18  17
  -6  -7 -16 5622.81 744.924  13
  -6  -8  11 2828.77 508.350  15
  -6  -8  10 3602.29 624.777  15
  -6  -8  10 4001.15 643.201  28
  -6  -8   9 4933.01 729.941  22
  -6  -8   9 5995.85 892.769  15
  -6  -8   9 5582.82 844.659  28
  -6  -8   8 26824.4 1862.76  22
  -6  -8   8 24429.9 1923.47  15
  -6  -8   8 25876.9 1948.97  28
  -6  -8   7 14172.9 1552.99  22
  -6  -8   7 16722.8 1664.52  28
  -6  -8   7 16914.3 1703.68  15
  -6  -8   6 1706.63 616.989  22
  -6  -8   6 1215.52 885.544  19
  -6  -8   6 2094.25 641.401  15
  -6  -8   5 44466.7 4059.02  19
  -6  -8   5 36380.4 2961.74  15
  -6  -8   4 18758.3 2543.26  19
  -6  -8   4 16519.2 2340.21  15
  -6  -8   3 22495.9 2664.60  19
  -6  -8   2 7100.64 1458.42  19
  -6  -8   2 7604.26 1202.18  23
  -6  -8   1 24479.3 2620.73  19
  -6  -8   1 289.814 426.027  23
  -6  -8   0 11911.2 1747.87  19
  -6  -8   0 10141.1 1380.05  23
  -6  -8  -1 4008.97 1010.62  19
  -6  -8  -1 4284.21 850.138  23
  -6  -8  -1 3793.97 1812.31   5
  -6  -8  -2 1120.56 368.973  23
  -6  -8  -2 976.885 507.881  19
  -6  -8  -3 17870.8 2132.12  19
  -6  -8  -3 16050.9 1639.77  23
  -6  -8  -3 12245.1 3156.33   6
  -6  -8  -4 24529.5 2585.14  19
  -6  -8  -4 24766.8 2048.01  23
  -6  -8  -4 28332.7 4846.94   6
  -6  -8  -5 6501.57 1071.73  23
  -6  -8  -5 5732.85 1364.91  19
  -6  -8  -6 29088.7 2281.23  23
  -6  -8  -6 53414.1 4352.82  17
  -6  -8  -7 34398.2 2566.85  23
  -6  -8  -7 55143.0 4533.56  17
  -6  -8  -8 46376.6 3077.27  23
  -6  -8  -8 52676.8 5204.70  17
  -6  -8  -9 770.434 412.492  23
  -6  -8  -9 1067.93 725.804  17
  -6  -8 -10 41037.7 4942.88  17
  -6  -8 -10 49077.6 2644.25  13
  -6  -8 -10 50119.5 3491.74  23
  -6  -8 -11 32444.1 2794.29  23
  -6  -8 -11 33100.7 2223.64  13
  -6  -8 -12 64.6832 359.757  17
  -6  -8 -12 1369.92 511.753  23
  -6  -8 -12 1311.86 427.835  13
  -6  -8 -13 1042.60 854.602  17
  -6  -8 -13 2078.34 637.403  23
  -6  -8 -13 2395.37 585.089  13
  -6  -8 -14 882.016 758.784  17
  -6  -8 -14 1385.04 445.673  23
  -6  -8 -14 1865.59 492.332  13
  -6  -8 -15 348.862 371.992  17
  -6  -8 -15 475.722 241.541  13
  -6  -8 -16 363.461 429.830  17
  -6  -8 -16 607.694 228.220  13
  -6  -9  10 10802.4 978.283  15
  -6  -9  10 9154.29 874.136  28
  -6  -9   9 808.797 308.488  15
  -6  -9   9 861.117 319.471  28
  -6  -9   8 5744.80 873.185  28
  -6  -9   8 5888.92 835.389  22
  -6  -9   8 6739.76 934.896  15
  -6  -9   7 202.143 213.470  22
  -6  -9   7 173.679 102.966  15
  -6  -9   7 307.386 201.443  28
  -6  -9   6 1203.75 512.444  22
  -6  -9   6 1285.58 791.162  19
  -6  -9   6 1556.24 514.766  15
  -6  -9   5 15091.6 2284.20  19
  -6  -9   5 11315.3 1434.50  15
  -6  -9   4 1124.98 580.860  19
  -6  -9   3 50138.6 3988.12  19
  -6  -9   2 35266.5 2676.26  23
  -6  -9   2 35628.2 3323.83  19
  -6  -9   1 803.025 616.141  23
  -6  -9   1 2519.20 901.831  19
  -6  -9   0 27296.1 2407.73  23
  -6  -9   0 30388.1 2924.87  19
  -6  -9  -1 34718.1 2526.01  23
  -6  -9  -1 36487.2 3174.88  19
  -6  -9  -2 2748.93 707.522  23
  -6  -9  -2 2493.43 885.902  19
  -6  -9  -3 33153.8 3064.21  19
  -6  -9  -3 30956.9 2342.57  23
  -6  -9  -4 12729.1 1932.40  19
  -6  -9  -4 11850.1 1467.41  23
  -6  -9  -5 4153.23 1129.58  19
  -6  -9  -5 4001.96 836.424  23
  -6  -9  -6 9394.53 1841.62  19
  -6  -9  -6 9426.40 1339.04  23
  -6  -9  -7-14.6701 217.668  23
  -6  -9  -7 553.953 602.855  17
  -6  -9  -8 15078.4 2550.13  17
  -6  -9  -8 12836.0 1630.93  23
  -6  -9  -9 29155.6 3844.10  17
  -6  -9  -9 30896.9 2552.65  23
  -6  -9 -10 2042.38 679.202  23
  -6  -9 -10 1268.76 801.775  17
  -6  -9 -11 7454.49 2574.61  17
  -6  -9 -11 14130.7 1780.23  23
  -6  -9 -12 27894.8 3927.23  17
  -6  -9 -12 33624.8 2588.68  23
  -6  -9 -13 24493.8 3142.72  17
  -6  -9 -13 24867.3 2069.15  23
  -6  -9 -14 3333.25 689.231  23
  -6  -9 -14 2370.97 1053.31  17
  -6  -9 -15 17581.1 2367.27  17
  -6  -9 -15 20420.0 1449.81  23
  -6  -9 -16 9195.96 1381.56  17
  -6  -9 -16 14057.9 983.835  14
  -6 -10   9 36931.2 1750.82  15
  -6 -10   9 30747.4 1645.76  28
  -6 -10   8 5248.08 757.888  28
  -6 -10   8 5725.70 758.660  15
  -6 -10   8 4447.45 661.394  22
  -6 -10   7 9259.98 1101.77  28
  -6 -10   7 8797.67 1022.55  22
  -6 -10   7 9623.64 1073.70  15
  -6 -10   6 46207.7 3802.84  19
  -6 -10   6 39105.3 2529.70  28
  -6 -10   6 57132.9 2788.28  15
  -6 -10   6 50195.4 2837.19  22
  -6 -10   5 20620.1 2647.38  19
  -6 -10   5 17356.0 1612.98  15
  -6 -10   4 863.945 511.111  19
  -6 -10   3 30633.9 3174.18  19
  -6 -10   2 8853.14 1717.71  19
  -6 -10   1 6958.66 1196.56  23
  -6 -10   1 7252.71 1486.49  19
  -6 -10   0 168.787 323.348  23
  -6 -10   0 21762.8 2495.91  19
  -6 -10  -1 6892.67 1151.33  23
  -6 -10  -1 6257.06 1380.38  19
  -6 -10  -2 34834.6 2571.46  23
  -6 -10  -2 37377.3 3247.65  19
  -6 -10  -3 32371.1 2470.79  23
  -6 -10  -3 36220.0 3219.63  19
  -6 -10  -4 3261.90 784.150  23
  -6 -10  -4 3329.28 977.541  19
  -6 -10  -5 37714.3 3292.81  19
  -6 -10  -5 32246.6 2484.84  23
  -6 -10  -6 57320.9 4143.52  19
  -6 -10  -6 52169.7 3185.87  23
  -6 -10  -7 7353.70 1573.78  19
  -6 -10  -7 6597.64 1165.50  23
  -6 -10  -8 12073.1 1571.94  23
  -6 -10  -8 763.445 683.226  17
  -6 -10  -9 31890.7 3897.07  17
  -6 -10  -9 36045.4 2698.58  23
  -6 -10 -10 9709.74 1419.63  23
  -6 -10 -10 7823.78 1802.76  17
  -6 -10 -11 6582.83 2042.13  17
  -6 -10 -11 14424.8 1685.36  23
  -6 -10 -12-79.4293 376.923  17
  -6 -10 -12 679.860 383.952  23
  -6 -10 -13 841.513 608.041  17
  -6 -10 -13 967.473 395.067  23
  -6 -10 -14 7690.73 1509.84  17
  -6 -10 -14 8968.60 1081.26  23
  -6 -10 -15 15.1044 212.370  17
  -6 -10 -15 61.8461 102.752  23
  -6 -11   7 3673.63 646.527  28
  -6 -11   7 3350.01 562.095  22
  -6 -11   7 3463.72 543.121  15
  -6 -11   6 1905.21 528.378  22
  -6 -11   6 3164.05 643.350  28
  -6 -11   5 1336.41 525.402  22
  -6 -11   5 19061.3 2317.57  19
  -6 -11   4 53067.0 4115.46  19
  -6 -11   3 5408.30 1386.52  19
  -6 -11   2 22123.8 2628.59  19
  -6 -11   1 55359.4 3253.45  23
  -6 -11   1 58043.9 4182.03  19
  -6 -11   0 9594.10 1540.46  23
  -6 -11   0 12074.3 1877.21  19
  -6 -11  -1 735.660 462.642  23
  -6 -11  -1 1262.64 652.339  19
  -6 -11  -2 37601.2 2700.92  23
  -6 -11  -2 36850.8 3344.16  19
  -6 -11  -3 26451.0 2248.17  23
  -6 -11  -3 26167.1 2782.95  19
  -6 -11  -4 640.056 286.182  23
  -6 -11  -4 209.673 271.873  19
  -6 -11  -5 19867.9 1945.88  23
  -6 -11  -5 21018.2 2565.29  19
  -6 -11  -6 459.687 356.049  23
  -6 -11  -6 75.8541 221.953  19
  -6 -11  -7 5775.01 1094.00  23
  -6 -11  -7 4904.41 1330.68  19
  -6 -11  -8 6612.62 1139.80  23
  -6 -11  -8 5836.55 1360.63  19
  -6 -11  -9 6514.39 1130.38  23
  -6 -11  -9 1398.04 714.303  17
  -6 -11 -10 49247.9 3065.89  23
  -6 -11 -10 7126.97 1504.26  17
  -6 -11 -11 47919.8 2951.19  23
  -6 -11 -11 26228.9 2946.07  17
  -6 -11 -12 2247.93 605.618  23
  -6 -11 -12 2080.97 756.768  17
  -6 -11 -13 14479.5 1439.61  23
  -6 -11 -13 4747.07 1310.18  17
  -6 -11 -14 45237.0 2308.60  23
  -6 -11 -14 5026.73 1188.37  17
  -6 -12   6 880.515 359.792  22
  -6 -12   6 1735.82 426.830  28
  -6 -12   5 1879.29 556.101  22
  -6 -12   5 2309.11 583.466  28
  -6 -12   4 171.442 201.035  22
  -6 -12   4 6964.86 1342.69  19
  -6 -12   3 1355.03 652.982  19
  -6 -12   2 5769.28 1260.06  19
  -6 -12   1-281.777 320.575  19
  -6 -12   0 25073.0 2128.74  23
  -6 -12   0 26518.3 2770.48  19
  -6 -12  -1 10779.8 1915.54  23
  -6 -12  -1 54875.7 3985.71  19
  -6 -12  -2 11926.9 1476.52  23
  -6 -12  -2 11796.6 1818.39  19
  -6 -12  -3 55955.2 3243.54  23
  -6 -12  -3 55680.8 4013.32  19
  -6 -12  -4 82325.6 3924.57  23
  -6 -12  -4 83612.4 4891.79  19
  -6 -12  -5 23293.5 2070.44  23
  -6 -12  -5 25326.6 2675.78  19
  -6 -12  -6 1225.24 487.669  23
  -6 -12  -6 1789.56 740.107  19
  -6 -12  -7 27017.9 2223.67  23
  -6 -12  -7 24827.7 2634.79  19
  -6 -12  -8 25417.9 2135.64  23
  -6 -12  -8 22972.2 2443.08  19
  -6 -12  -9 284.753 282.833  19
  -6 -12  -9 95.4103 152.310  23
  -6 -12 -10 4984.93 936.532  23
  -6 -12 -11 377.512 244.508  23
  -6 -12 -12-329.569 413.298  17
  -6 -12 -12 15066.2 1474.86  23
  -6 -12 -13-907.092 594.342  17
  -6 -12 -13 3787.89 686.550  23
  -6 -12 -14 2332.40 475.312  23
  -6 -13   5 8751.44 888.595  28
  -6 -13   4 1055.00 398.929  22
  -6 -13   4 978.362 479.496  19
  -6 -13   4 880.537 383.822  28
  -6 -13   3 281.050 238.566  22
  -6 -13   3 28759.4 2592.40  19
  -6 -13   2 21942.2 2342.27  19
  -6 -13   1 8742.75 1486.83  19
  -6 -13   0 6896.65 1320.63  19
  -6 -13  -1 4483.32 1118.71  19
  -6 -13  -2 202.112 186.820  23
  -6 -13  -2 964.355 511.305  19
  -6 -13  -3 597.725 309.079  23
  -6 -13  -3 368.298 297.317  19
  -6 -13  -4 2364.13 621.450  23
  -6 -13  -4 2419.76 802.302  19
  -6 -13  -5 25177.5 2071.52  23
  -6 -13  -5 24743.6 2554.88  19
  -6 -13  -6 21473.6 1896.84  23
  -6 -13  -6 20991.2 2307.76  19
  -6 -13  -7 1601.54 521.840  23
  -6 -13  -7 1050.32 625.898  19
  -6 -13  -8 32837.4 2301.64  23
  -6 -13  -8 30825.8 2706.60  19
  -6 -13  -9 46172.3 2693.67  23
  -6 -13  -9 39722.5 2882.41  19
  -6 -13 -10 24887.2 1922.63  23
  -6 -13 -11 3786.60 716.983  23
  -6 -13 -12 23399.0 1672.76  23
  -6 -13 -13 13282.5 1162.21  23
  -6 -14   2 341.661 247.431  22
  -6 -14   2 13940.2 1655.82  19
  -6 -14   1 23402.8 2249.96  19
  -6 -14   0 5395.11 1089.93  19
  -6 -14  -1 6017.33 1166.39  19
  -6 -14  -2 37910.5 2972.95  19
  -6 -14  -3 15537.7 1944.57  19
  -6 -14  -4 19.2144 112.808  23
  -6 -14  -4 91.3246 231.699  19
  -6 -14  -5 7831.67 1052.91  23
  -6 -14  -5 6986.02 1326.57  19
  -6 -14  -6 5483.54 881.146  23
  -6 -14  -6 5085.54 1035.93  19
  -6 -14  -7 1127.39 394.204  23
  -6 -14  -7 867.891 489.801  19
  -6 -14  -8 1066.02 394.792  23
  -6 -14  -8 1089.73 506.716  19
  -6 -14  -9 854.709 323.185  23
  -6 -14  -9 813.462 437.746  19
  -6 -14 -10 5243.33 880.586  19
  -6 -14 -10 5946.54 837.166  23
  -6 -14 -11 2698.13 532.640  23
  -6 -15  -1 3824.77 860.195  19
  -6 -15  -2-188.790 221.730  19
  -6 -15  -3 18465.0 1894.05  19
  -6 -15  -4 19333.4 1917.83  19
  -6 -15  -5 884.573 424.429  19
  -6 -15  -6 13807.3 1589.01  19
  -6 -15  -7 22424.9 1976.15  19
  -6 -15  -8 11702.9 1331.03  19
  -7  10   8 461.449 152.597  20
  -7  10   7 153.386 141.239  20
  -7  10   7 90.2629 77.0885  29
  -7  10   6 7814.23 772.769  10
  -7  10   6 8938.45 754.243  20
  -7  10   5-17.5004 113.232  10
  -7  10   5 96.7545 61.0072  20
  -7  10   4 3291.13 475.315  20
  -7  10   3 20391.3 1143.35  20
  -7  10   3 18443.3 1215.93  16
  -7  10   2 8269.22 712.865  20
  -7  10   2 8348.81 853.214  16
  -7  10   1 865.194 287.029  16
  -7  10   0 6645.87 760.240  16
  -7  10  -1 8672.37 801.254  10
  -7  10  -1 9073.90 861.383  16
  -7  10  -2 93.1579 103.951  16
  -7  10  -3 611.330 196.462  16
  -7   9  10 16645.3 950.281  20
  -7   9  10 15860.5 966.303  29
  -7   9   9 17180.1 1055.20  20
  -7   9   9 16736.0 1056.45  29
  -7   9   8 116.928 92.7749  20
  -7   9   8 247.484 135.985  29
  -7   9   7 10569.5 929.072  10
  -7   9   7 13401.8 1023.29  20
  -7   9   7 12863.2 994.237  29
  -7   9   6 20548.5 1434.00  10
  -7   9   6 23534.8 1408.85  20
  -7   9   6 21076.2 1285.93  29
  -7   9   5 319.294 174.516  20
  -7   9   5 339.502 155.214  29
  -7   9   4 2398.91 457.268  20
  -7   9   3 1729.49 375.870  20
  -7   9   3 1092.09 366.770  16
  -7   9   2 262.762 114.265  20
  -7   9   2 173.530 191.403  16
  -7   9   1 2013.41 387.512  20
  -7   9   1 2173.17 529.502  16
  -7   9   0 840.637 328.006  16
  -7   9  -1 6467.69 853.843  16
  -7   9  -2 24740.1 1494.28  10
  -7   9  -2 27241.7 1656.73  21
  -7   9  -2 27376.5 1666.12  16
  -7   9  -3 1365.27 316.392  10
  -7   9  -3 1420.24 353.348  21
  -7   9  -3 1698.70 403.109  16
  -7   9  -4 8349.40 873.785  21
  -7   9  -4 7636.43 772.213  16
  -7   9  -5 26665.2 1450.65  21
  -7   9  -5 21529.6 1197.13  16
  -7   8  11 1612.08 301.086  20
  -7   8  11 1682.83 330.131  29
  -7   8  10 3959.73 533.413  20
  -7   8  10 4054.60 567.818  29
  -7   8   9 7892.04 792.442  20
  -7   8   9 7467.42 805.975  29
  -7   8   8 19437.6 1317.32  20
  -7   8   8 17894.3 1302.79  29
  -7   8   7 1526.57 373.763  10
  -7   8   7 2076.94 437.307  20
  -7   8   7 1995.81 455.813  29
  -7   8   6 11198.4 1154.80  10
  -7   8   6 13597.5 1161.90  20
  -7   8   6 11507.6 1081.52  29
  -7   8   5 36805.0 1905.44  20
  -7   8   5 32692.8 1788.09  29
  -7   8   4 20526.6 1423.38  20
  -7   8   3 241.932 192.743  20
  -7   8   3 194.916 197.498  16
  -7   8   2 15794.0 1214.95  20
  -7   8   2 17083.8 1838.89  16
  -7   8   1 25587.3 1489.86  20
  -7   8   1 28237.8 2682.76  16
  -7   8   0 2343.86 659.196  16
  -7   8  -1 1072.10 388.389  21
  -7   8  -1 919.773 387.400  16
  -7   8  -2 3173.71 690.506  21
  -7   8  -2 2508.50 564.425  16
  -7   8  -3 578.903 229.935  10
  -7   8  -3 622.144 335.843  21
  -7   8  -3 444.421 220.230  16
  -7   8  -4 1277.38 466.127  21
  -7   8  -4 1180.06 382.941  16
  -7   8  -5 473.217 220.145  21
  -7   8  -5 334.156 241.201  16
  -7   8  -6 1994.98 448.852  21
  -7   8  -6 2111.02 402.470  16
  -7   8  -7 11616.0 966.939  21
  -7   8  -7 9624.54 753.043  16
  -7   7  12 26367.0 1291.63  29
  -7   7  11 21760.7 1323.30  29
  -7   7  11 11846.1 1045.05  17
  -7   7  10 6047.84 762.259  29
  -7   7   9 7472.62 890.989  29
  -7   7   8 6745.55 879.209  29
  -7   7   7 1275.78 361.484  10
  -7   7   7 1897.89 476.686  29
  -7   7   6-11.2456 165.601  10
  -7   7   6 127.016 106.604  29
  -7   7   5 904.077 321.914  29
  -7   7   4 5938.92 942.906   9
  -7   7   4 5252.90 769.937  29
  -7   7   3 6525.46 827.047  20
  -7   7   3 5569.50 929.829  16
  -7   7   3 5978.88 937.274   9
  -7   7   2 3732.71 624.565  20
  -7   7   2 3492.37 840.040  16
  -7   7   1 8708.13 916.284  20
  -7   7   1 9164.25 1648.93  16
  -7   7   0 41118.8 2364.27  21
  -7   7   0 34618.3 3012.89  16
  -7   7  -1 19601.4 1759.52  21
  -7   7  -1 17279.7 1881.73  16
  -7   7  -2 139.037 170.633  21
  -7   7  -2 82.7333 159.969  16
  -7   7  -3 30970.4 2572.71  21
  -7   7  -3 25379.0 1901.45  16
  -7   7  -4 33250.0 2049.36  16
  -7   7  -4 28736.7 1729.88  10
  -7   7  -5 3705.79 840.810  21
  -7   7  -5 3723.36 660.128  16
  -7   7  -6 3906.42 757.089  21
  -7   7  -6 3807.98 619.202  16
  -7   7  -7 9401.80 1027.68  21
  -7   7  -7 8700.56 864.373  16
  -7   7  -8-2.11563 106.647  21
  -7   7  -8-95.3232 75.4556  16
  -7   6  12 3876.85 648.709  17
  -7   6  12 6060.28 679.471  29
  -7   6  11 1501.90 482.405  17
  -7   6  11 2769.06 508.381  29
  -7   6  10 6901.91 961.942  17
  -7   6  10 8128.22 947.615  29
  -7   6   9 17628.6 1624.57  17
  -7   6   9 20394.8 1567.91  29
  -7   6   8 378.990 273.332  17
  -7   6   8 453.713 285.834  29
  -7   6   7 37206.4 2221.75  29
  -7   6   7 32356.1 1909.90  10
  -7   6   6 59872.0 2807.60  29
  -7   6   6 51954.9 2599.98  10
  -7   6   5 27320.5 1876.52  29
  -7   6   4 16845.6 1444.86  29
  -7   6   3 46255.4 2326.33  29
  -7   6   3 48517.8 3334.68   8
  -7   6   2 15088.4 1565.81   9
  -7   6   2 17038.3 2008.88   8
  -7   6   2 14791.5 1569.16  16
  -7   6   1 9811.64 1021.26  20
  -7   6   1 10199.2 1281.37   9
  -7   6   1 10788.3 1582.15   8
  -7   6   1 10201.0 1469.76  16
  -7   6   0 2307.71 588.071  21
  -7   6   0 2475.70 633.706   9
  -7   6   0 3244.77 877.012   8
  -7   6   0 2628.27 742.956  16
  -7   6  -1 1085.87 448.877  21
  -7   6  -1 926.929 443.432  16
  -7   6  -2 7499.73 1215.19  21
  -7   6  -2 6263.79 1090.80  16
  -7   6  -3 675.623 366.636  21
  -7   6  -3 57.7224 164.886  16
  -7   6  -4 19771.5 2739.63  21
  -7   6  -4 16973.6 1555.26  16
  -7   6  -4 15011.1 1347.66  10
  -7   6  -5 33269.1 3014.17  21
  -7   6  -5 34646.5 2134.16  11
  -7   6  -5 32252.8 2072.75  16
  -7   6  -6 15470.0 1703.91  21
  -7   6  -6 17069.4 1441.28  11
  -7   6  -6 16622.1 1399.14  16
  -7   6  -7 2754.70 646.417  21
  -7   6  -7 3212.58 599.990  11
  -7   6  -7 3042.43 582.465  16
  -7   6  -8 23056.4 1654.44  21
  -7   6  -8 20625.0 1415.76  11
  -7   6  -8 22261.1 1375.33  16
  -7   6  -9 15439.6 1137.39  11
  -7   6  -9 18084.4 1297.40  21
  -7   6 -10 234.340 160.689  11
  -7   5  13 19529.6 1403.17  17
  -7   5  13 25281.0 1264.50  29
  -7   5  12 22666.9 1677.52  17
  -7   5  12 24042.0 1438.55  29
   7  -5 -12 18970.1 1287.62  23
  -7   5  11-17.4337 135.950  17
  -7   5  11 379.226 228.155  29
   7  -5 -11 220.969 166.448  23
  -7   5  10 23488.4 1946.86  17
  -7   5  10 23254.3 1682.21  29
  -7   5   9 18866.4 1866.89  17
  -7   5   9 19125.1 1601.88  29
  -7   5   8 1153.78 513.718  17
  -7   5   8 1297.68 445.806  29
  -7   5   7 25527.5 2506.98  17
  -7   5   7 20211.5 1689.12  29
  -7   5   6 164.298 93.5915  10
  -7   5   6 421.481 355.457  17
  -7   5   5 9339.33 1150.10  10
  -7   5   5 10001.1 1419.07   8
  -7   5   4 19289.1 1905.56   8
  -7   5   3 1831.50 605.526   8
  -7   5   2 45222.3 2559.16  16
  -7   5   2 49639.0 2982.24   8
  -7   5   1 70627.2 3452.26  16
  -7   5   1 69579.4 3441.52   9
  -7   5   1 70950.5 3610.87   8
  -7   5   0 54.0993 141.983  16
  -7   5   0 192.013 135.276   9
  -7   5   0 357.195 300.609   8
  -7   5   0 248.504 216.428  21
  -7   5  -1 43295.6 2799.55  16
  -7   5  -1 40150.6 2579.32   9
  -7   5  -1 42644.7 2779.45   8
  -7   5  -1 36327.6 2410.90  21
  -7   5  -2 49023.5 2906.07  16
  -7   5  -2 46811.4 2731.33   9
  -7   5  -2 47567.6 3009.44   8
  -7   5  -2 42538.4 2766.63  21
  -7   5  -3 32870.2 2174.26  11
  -7   5  -3 27288.0 2095.29  16
  -7   5  -3 28032.4 2324.10   8
  -7   5  -3 26239.5 2386.58  21
  -7   5  -4 7086.18 1040.74  11
  -7   5  -4 5867.01 940.233  16
  -7   5  -4 5114.59 808.884  10
  -7   5  -4 6084.67 1328.71  21
  -7   5  -5 1743.07 718.909  21
  -7   5  -5 2410.58 626.406  16
  -7   5  -5 2654.66 599.184  11
  -7   5  -6-17.4657 301.057  21
  -7   5  -6 486.833 253.771  16
  -7   5  -6 210.718 146.927  11
  -7   5  -7 5449.47 1006.69  21
  -7   5  -7 5924.57 842.444  16
  -7   5  -7 7069.76 956.334  11
  -7   5  -8 3645.90 742.682  21
  -7   5  -8 4252.20 662.536  16
  -7   5  -8 4027.25 703.173  11
  -7   5  -9 4948.00 771.835  21
  -7   5  -9 4683.32 700.086  11
  -7   5  -9 4548.53 593.705  16
  -7   5 -10 13150.7 1085.81  11
  -7   5 -11 7186.64 724.814  11
  -7   4  13 1023.49 348.433  17
  -7   4  13 1058.26 263.285  29
   7  -4 -13 1107.24 302.530  23
  -7   4  12 15020.9 1451.17  17
  -7   4  12 14204.3 1156.70  29
   7  -4 -12 11700.4 1083.84  23
  -7   4  11 27872.6 2128.91  17
  -7   4  11 26480.3 1733.44  29
  -7   4  10 1474.29 518.959  17
  -7   4  10 1348.07 412.126  29
  -7   4   9 21084.3 2177.42  17
  -7   4   8 69947.2 4308.87  17
  -7   4   7 51878.6 3782.41  17
  -7   4   6 433.312 228.693  10
  -7   4   6 598.122 289.312   8
  -7   4   6 607.479 478.208  17
  -7   4   5 36747.0 2245.26  10
  -7   4   5 37495.2 2496.91   8
  -7   4   4 55048.9 2823.77  10
  -7   4   4 54107.4 2943.37   8
  -7   4   4 63459.3 4081.63  17
  -7   4   3 250.627 197.105   8
  -7   4   2 10104.0 1283.33   8
  -7   4   2 9792.72 1130.99  16
  -7   4   1 38.8610 216.982   9
  -7   4   1 319.844 263.471   8
  -7   4   1-38.9728 234.900  16
  -7   4   0 12512.8 1342.66  21
  -7   4   0 13572.7 1529.31   9
  -7   4   0 14068.6 1504.52   8
  -7   4   0 13352.6 1462.68  16
  -7   4  -1 8423.46 1141.38  21
  -7   4  -1 9852.49 1281.24  16
  -7   4  -1 10301.2 1321.46   9
  -7   4  -1 10497.7 1286.19   8
  -7   4  -2 2176.62 609.780  21
  -7   4  -2 3128.48 671.122  11
  -7   4  -2 2607.31 635.262  16
  -7   4  -2 3141.41 734.492   9
  -7   4  -2 2317.55 649.898   8
  -7   4  -3 21226.8 2009.64  21
  -7   4  -3 25335.9 1944.11  11
  -7   4  -3 23408.7 1944.13  16
  -7   4  -3 22923.5 1824.80  10
  -7   4  -3 23682.4 1979.05   9
  -7   4  -3 21668.1 1877.52   8
  -7   4  -4 50486.3 3299.47  21
  -7   4  -4 54340.5 2858.33  16
  -7   4  -4 48441.7 2543.45  10
  -7   4  -4 51309.8 2930.61   8
  -7   4  -5 1311.16 604.498  21
  -7   4  -5 1939.74 595.824  11
  -7   4  -5 1453.73 421.539  14
  -7   4  -5 2247.15 556.506  16
  -7   4  -5 1061.99 353.756  10
  -7   4  -5 1799.57 569.418   8
  -7   4  -6 12892.3 1399.67  11
  -7   4  -6 11267.6 1136.32  14
  -7   4  -6 11740.8 1286.69  16
  -7   4  -6 10650.2 1535.23  21
  -7   4  -7 35830.0 2320.22  11
  -7   4  -7 31744.3 1874.75  14
  -7   4  -7 31947.3 2040.68  16
  -7   4  -7 28255.8 2302.31  21
  -7   4  -8 7888.71 1042.73  11
  -7   4  -8 7013.78 849.948  14
  -7   4  -8 8019.30 974.438  16
  -7   4  -8 6506.66 1036.69  21
  -7   4  -9 5529.37 841.883  11
  -7   4  -9 3840.96 608.646  16
  -7   4  -9 4040.37 753.375  21
  -7   4 -10 2898.61 590.581  11
  -7   4 -10 2355.35 523.639  21
  -7   4 -11 2786.83 511.184  11
  -7   4 -12 853.734 262.800  11
  -7   3  14 4137.54 652.977  17
  -7   3  13 1982.68 540.659  17
  -7   3  13 1962.91 372.539  29
   7  -3 -13 1876.89 417.075  23
  -7   3  12 2564.89 663.484  17
  -7   3  12 2724.79 509.944  29
  -7   3  11 3288.78 826.904  17
  -7   3  11 3725.31 663.461  29
  -7   3  10-30.5731 278.296  17
  -7   3   9 1225.43 649.803  17
  -7   3   8 821.967 525.631  17
  -7   3   7 13649.1 2126.76  17
  -7   3   6 10082.5 1100.84  10
  -7   3   6 10171.6 1211.22   8
  -7   3   6 11538.8 1805.67  17
  -7   3   5 119.081 101.234  10
  -7   3   5 67.8414 118.927   8
  -7   3   5 114.041 220.780  17
  -7   3   4 16709.1 1502.98  10
  -7   3   4 20303.6 1706.24   8
  -7   3   4 20896.2 2364.71  17
  -7   3   3 27958.8 2003.57  10
  -7   3   3 27430.9 1979.95   8
  -7   3   2 21390.2 1744.96   8
  -7   3   2 26885.0 2472.07  17
  -7   3   1 2412.43 594.225  16
  -7   3   1 3233.04 696.128   8
  -7   3   0 31430.8 2105.75  16
  -7   3   0 32683.2 2385.46   9
  -7   3   0 30529.6 2122.96   8
  -7   3  -1 19210.3 1663.53  16
  -7   3  -1 18887.6 1814.01   9
  -7   3  -1 18696.4 1627.00   8
  -7   3  -1 17107.7 1590.78  21
  -7   3  -2 120.359 207.606  11
  -7   3  -2 317.679 238.282  16
  -7   3  -2 141.587 161.130  10
  -7   3  -2 299.061 266.120   9
  -7   3  -2 114.041 161.593   8
  -7   3  -2 290.168 251.365  21
  -7   3  -3 2890.03 703.578  11
  -7   3  -3 2951.42 576.887  14
  -7   3  -3 2561.06 659.653  16
  -7   3  -3 2528.83 599.598  10
  -7   3  -3 2784.13 701.295   9
  -7   3  -3 2252.16 566.866   8
  -7   3  -3 2418.34 632.810  21
  -7   3  -4 6916.80 1067.12  11
  -7   3  -4 6920.35 933.910  14
  -7   3  -4 6411.31 991.029  16
  -7   3  -4 6077.90 900.883  10
  -7   3  -4 7229.13 1153.56   9
  -7   3  -4 7088.23 997.399   8
  -7   3  -4 5987.55 1055.54  21
  -7   3  -5 1393.16 535.728  11
  -7   3  -5 1353.09 466.354  16
  -7   3  -5 1179.45 372.044  14
  -7   3  -5 921.937 331.911  10
  -7   3  -5 968.776 347.832   8
  -7   3  -5 1529.71 661.370  21
  -7   3  -6 2713.94 717.270  21
  -7   3  -6 3249.45 701.790  16
  -7   3  -6 3464.74 658.116  14
  -7   3  -6 3492.16 753.928  11
  -7   3  -7 2997.95 740.738  21
  -7   3  -7 2882.24 629.622  16
  -7   3  -7 2779.95 595.286  14
  -7   3  -7 3405.87 762.728  11
  -7   3  -8 11954.9 1418.80  21
  -7   3  -8 13897.7 1316.55  16
  -7   3  -8 12739.2 1203.56  14
  -7   3  -8 12977.6 1440.76  11
  -7   3  -9 35480.5 2253.16  21
  -7   3  -9 37152.7 2413.16  11
  -7   3  -9 31984.8 1862.33  16
  -7   3  -9 36295.1 1973.54  14
  -7   3 -10 17.4605 235.647  11
  -7   3 -10 163.927 203.653  16
  -7   3 -10 150.324 104.509  14
  -7   3 -11 15200.9 1330.89  11
  -7   3 -11 15453.3 1093.92  14
  -7   3 -12 20323.7 1392.13  11
  -7   3 -13 1283.79 339.132  11
  -7   2  14 3597.65 660.597  17
   7  -2 -14 5392.84 648.304  23
  -7   2  13 19358.8 1608.92  17
  -7   2  12 2409.55 487.009  29
  -7   2  12 3091.73 682.308  17
  -7   2  11 15872.5 1855.50  17
  -7   2  10 39485.8 3183.58  17
  -7   2  10-11.7955 90.8022  15
  -7   2   9 4645.66 1158.71  17
  -7   2   9 65.7342 167.282  15
  -7   2   8-245.231 303.672  17
  -7   2   8-62.6532 176.616  15
  -7   2   7 21894.7 2617.85  17
  -7   2   7 67.0552 94.7695  15
  -7   2   6 6409.94 1681.08  17
  -7   2   6 25.7492 137.181  15
  -7   2   5 2759.93 970.809  17
  -7   2   5 2869.53 623.193   8
  -7   2   5 3232.93 638.575  10
  -7   2   5 3179.12 683.983  22
  -7   2   4 160.466 296.548  17
  -7   2   4 44.1431 92.1802  10
  -7   2   4 81.6368 136.496   8
  -7   2   4-43.4255 78.1358  22
  -7   2   3 609.524 273.667  17
  -7   2   3 701.861 300.502  10
  -7   2   3 464.096 235.594  22
  -7   2   2 39381.5 2935.45  17
  -7   2   2 29977.1 2027.62  10
  -7   2   1 12981.6 2869.75   1
  -7   2   1 15273.8 1806.82  17
  -7   2   1 13554.3 1393.18  10
  -7   2   1 11732.6 1200.58  16
  -7   2   0 30.5367 110.837  16
  -7   2   0-277.132 246.481  17
  -7   2   0-580.072 293.325  10
  -7   2   0 28.9412 204.808   9
  -7   2   0-141.961 308.976   1
  -7   2  -1 27552.1 1934.66  16
  -7   2  -1 31145.3 4413.98   1
  -7   2  -1 29179.6 2033.25  10
  -7   2  -1 27999.2 2202.38   9
  -7   2  -2 31860.4 2107.17  11
  -7   2  -2 29648.3 1894.63  14
  -7   2  -2 29436.9 2036.65  16
  -7   2  -2 31256.9 2077.43  10
  -7   2  -2 29652.7 2302.23   9
  -7   2  -2 24989.2 1936.29  21
  -7   2  -3 30663.6 2095.11  11
  -7   2  -3 28685.6 1859.21  14
  -7   2  -3 28131.9 2003.59  16
  -7   2  -3 29198.5 1985.57  10
  -7   2  -3 29389.2 2278.15   9
  -7   2  -3 23057.1 1895.76  21
  -7   2  -4 2230.23 606.857  11
  -7   2  -4 1979.01 537.703  16
  -7   2  -4 1992.87 508.042  14
  -7   2  -4 1707.90 468.742  10
  -7   2  -4 1920.47 582.191   9
  -7   2  -4 1566.18 473.962   8
  -7   2  -4 2027.69 601.518  21
  -7   2  -5 77574.3 3575.65  11
  -7   2  -5 80595.4 3396.01  16
  -7   2  -5 79579.1 3115.50  14
  -7   2  -5 74791.9 3020.51  10
  -7   2  -5 72974.7 3568.54  21
  -7   2  -6 20003.5 1884.81  21
  -7   2  -6 21307.2 1749.81  16
  -7   2  -6 21147.2 1621.05  14
  -7   2  -6 22445.1 1921.22  11
  -7   2  -7 107.268 219.662  21
  -7   2  -7 137.882 123.078  16
  -7   2  -7 31.5019 117.565  14
  -7   2  -7 376.019 151.518  11
  -7   2  -8 1250.98 471.109  21
  -7   2  -8 1812.44 506.546  16
  -7   2  -8 1253.53 401.937  14
  -7   2  -8 1453.01 523.669  11
  -7   2  -9 2151.79 561.557  21
  -7   2  -9 2055.74 596.928  11
  -7   2  -9 2650.72 530.065  16
  -7   2  -9 2721.83 582.688  14
  -7   2 -10 4680.02 900.236  11
  -7   2 -10 5656.26 748.460  16
  -7   2 -10 4868.65 733.219  14
  -7   2 -11 195.709 185.293  11
  -7   2 -11 307.158 194.876  14
  -7   2 -12 8208.62 980.061  11
  -7   2 -12 9873.02 878.836  14
  -7   2 -13 7217.10 837.276  11
  -7   2 -14 5037.00 583.494  11
  -7   1  14 619.714 271.435  17
   7  -1 -14 1484.30 340.461  23
  -7   1  13 2211.79 530.168  17
  -7   1  12 114.154 112.200  29
  -7   1  12 166.678 164.125  17
  -7   1  12-247.917 254.228  15
  -7   1  11 1166.19 553.268  17
  -7   1  10 2186.85 779.096  17
  -7   1   9 15697.6 2180.80  17
  -7   1   8 17548.9 1479.36  22
  -7   1   8 14885.7 2235.93  17
  -7   1   7 6341.72 892.496  22
  -7   1   7 4708.00 1323.15  17
  -7   1   6 41121.0 2282.08  22
  -7   1   6 29442.7 2990.06  17
  -7   1   5 45496.9 2386.27  22
  -7   1   5 43805.1 2277.30  10
  -7   1   5 48491.1 3601.45  17
  -7   1   4 30826.2 1924.22  22
  -7   1   4 31581.8 2980.94  17
  -7   1   4 30529.9 1931.99  10
  -7   1   3 48.3449 152.670  15
  -7   1   3 145.504 137.125  24
  -7   1   3 218.329 319.800   1
  -7   1   3 66.2882 84.5705  22
  -7   1   3 217.905 276.198  17
  -7   1   3-15.5473 120.782  10
  -7   1   2 38466.9 2087.85  22
  -7   1   2 37657.8 2129.11  24
  -7   1   2 41096.1 5065.51   1
  -7   1   2 38257.1 2218.79  10
  -7   1   1 8597.79 1071.79  10
  -7   1   1 8690.90 965.959  22
  -7   1   1 8268.21 990.478  24
  -7   1   1 7959.03 2197.41   1
  -7   1   1 9313.75 1440.34  17
  -7   1   1 7028.64 892.902  16
  -7   1   0 2705.83 546.807  22
  -7   1   0 2799.57 1275.34   1
  -7   1   0 3023.79 579.037  24
  -7   1   0 1737.77 456.389  16
  -7   1   0 2610.80 792.793  17
  -7   1   0 2612.56 592.371  10
  -7   1  -1 10836.2 1193.46  10
  -7   1  -1 10950.0 1365.60   9
  -7   1  -1 10058.2 1050.40  24
  -7   1  -1 10072.0 1068.66  14
  -7   1  -1 10250.2 1133.05  16
  -7   1  -1 12619.3 1488.66  17
  -7   1  -1 8527.58 2289.65   1
  -7   1  -2 138.950 149.854  14
  -7   1  -2 285.563 175.067  16
  -7   1  -2 60.5416 225.704  17
  -7   1  -2 450.688 228.600  24
  -7   1  -2 42.8112 187.813   1
  -7   1  -2 173.307 110.557  10
  -7   1  -2 871.184 400.452   9
  -7   1  -2 243.505 204.574  11
  -7   1  -3 27685.9 1940.49  11
  -7   1  -3 24546.2 3847.23   1
  -7   1  -3 22664.3 1809.96  21
  -7   1  -3 27308.7 1909.73  16
  -7   1  -3 25557.9 1739.41  14
  -7   1  -3 26695.4 1840.66  10
  -7   1  -3 27651.4 2205.19   9
  -7   1  -4 13161.7 1435.09  21
  -7   1  -4 14949.8 1430.24  16
  -7   1  -4 13410.9 1286.29  14
  -7   1  -4 15159.7 1469.20  11
  -7   1  -4 13508.4 1551.65   9
  -7   1  -4 13417.8 1300.14  10
  -7   1  -5 6777.66 1032.97  21
  -7   1  -5 7714.06 974.801  14
  -7   1  -5 7986.12 1060.34  16
  -7   1  -5 7878.87 1114.19  11
  -7   1  -5 6601.81 897.964  10
  -7   1  -6 54109.4 2959.32  21
  -7   1  -6 61293.8 3191.30  11
  -7   1  -6 59725.6 2716.55  14
  -7   1  -6 60602.4 2922.60  16
  -7   1  -7 42350.1 2631.99  21
  -7   1  -7 47346.6 2931.57  11
  -7   1  -7 43984.1 2344.90  14
  -7   1  -7 44869.6 2490.98  16
  -7   1  -8 12637.3 1421.05  21
  -7   1  -8 10001.4 1139.54  14
  -7   1  -8 10514.1 1212.51  16
  -7   1  -8 13081.0 1629.40  11
  -7   1  -9 2813.91 581.553  16
  -7   1  -9 2366.99 740.149  11
  -7   1  -9 2194.33 538.861  14
  -7   1 -10 13188.1 1250.43  14
  -7   1 -10 13591.3 1198.75  16
  -7   1 -10 11687.0 1529.28  11
  -7   1 -11 5726.12 790.179  14
  -7   1 -11 5404.31 943.993  11
  -7   1 -12-259.159 238.735  11
  -7   1 -12 222.493 149.847  14
  -7   1 -13 3041.61 483.813  14
  -7   1 -13 2221.52 499.838  11
  -7   1 -14 382.320 277.713  11
  -7   0  13 120.188 202.698  17
  -7   0  13-64.3886 148.860  15
  -7   0  12 27122.2 2160.81  17
  -7   0  11 37879.6 2167.33  26
  -7   0  11 43049.0 2946.50  17
  -7   0  10 2490.59 566.220  26
  -7   0  10 3601.40 964.136  17
  -7   0   9 4617.40 1321.38  17
  -7   0   9 4833.52 755.624  22
  -7   0   8 1186.20 1142.23  17
  -7   0   8 3366.64 651.880  22
  -7   0   7 388.807 653.284  17
  -7   0   7 1010.78 317.205  22
  -7   0   6 1409.22 749.479  17
  -7   0   6 1283.02 411.486  22
  -7   0   5 740.819 250.874  22
  -7   0   5 1009.26 565.195  17
  -7   0   5 1131.04 399.757  24
  -7   0   5 773.466 304.268  10
  -7   0   4 44428.6 2301.77  22
  -7   0   4 47106.3 2444.05  24
  -7   0   4 44374.8 2296.92  10
  -7   0   3 30152.6 1860.73  22
  -7   0   3 30669.1 1934.22  24
  -7   0   3 30826.7 4481.13   1
  -7   0   3 33462.9 2867.75  17
  -7   0   3 29556.8 1891.58  10
  -7   0   2 4305.66 705.984  22
  -7   0   2 4906.69 779.191  24
  -7   0   2 4629.04 1695.86   1
  -7   0   2 3942.31 1037.96  17
  -7   0   2 5197.12 794.017  10
  -7   0   1 80563.6 7075.37   1
  -7   0   1 77576.1 2941.00  24
  -7   0   1 74843.9 2825.37  22
  -7   0   1 89185.7 4114.68  17
  -7   0   1 73715.2 3057.81  10
  -7   0   0 78525.1 2922.32  16
  -7   0   0 91782.0 7395.88   1
  -7   0   0 87573.3 3099.55  24
  -7   0   0 82735.8 2914.81  22
  -7   0   0 88413.7 3319.31  10
  -7   0  -1 23330.9 1584.91  14
  -7   0  -1 25308.8 1702.94  16
  -7   0  -1 26950.7 1671.13  24
  -7   0  -1 24767.3 1572.81  22
  -7   0  -1 24336.4 3805.84   1
  -7   0  -1 27415.3 1849.44  10
  -7   0  -1 26754.3 2145.86   9
  -7   0  -2 2134.63 479.815  24
  -7   0  -2 2625.27 1208.24   1
  -7   0  -2 2484.44 570.670  11
  -7   0  -2 2417.54 565.670  16
  -7   0  -2 3925.64 894.574  17
  -7   0  -2 2218.43 485.481  14
  -7   0  -2 2214.96 503.636  10
  -7   0  -2 2328.11 635.090   9
  -7   0  -3 18738.7 1436.28  14
  -7   0  -3 20287.5 1603.39  16
  -7   0  -3 19000.3 1377.87  24
  -7   0  -3 20998.5 1628.05  11
  -7   0  -3 20079.8 1575.99  10
  -7   0  -3 20568.0 1906.89   9
  -7   0  -3 26168.4 2235.17  17
  -7   0  -3 17403.6 3147.51   1
  -7   0  -4 10847.0 2490.92   1
  -7   0  -4 9568.96 1187.23  11
  -7   0  -4 10320.2 1088.11  14
  -7   0  -4 11491.4 1205.07  16
  -7   0  -4 10603.9 1503.55  17
  -7   0  -4 9849.11 1105.12  10
  -7   0  -4 10598.7 1353.30   9
  -7   0  -5 4800.75 890.329  11
  -7   0  -5 3957.79 761.093  14
  -7   0  -5 3415.25 941.421  17
  -7   0  -5 4675.08 800.411  16
  -7   0  -5 4897.40 764.158  10
  -7   0  -6 7221.76 1108.82  11
  -7   0  -6 8803.38 1051.51  14
  -7   0  -6 8496.76 1081.13  16
  -7   0  -6 8130.11 957.491  10
  -7   0  -7 7369.97 976.084  14
  -7   0  -7 5613.18 927.607  16
  -7   0  -7 7490.65 1209.45  11
  -7   0  -8 8787.35 1065.86  14
  -7   0  -8 9139.05 1060.38  16
  -7   0  -8 7911.13 1324.00  11
  -7   0  -9 7737.61 1016.80  14
  -7   0  -9 8858.20 1051.98  16
  -7   0  -9 8004.86 1435.15  11
  -7   0 -10 582.403 245.097  16
  -7   0 -10 654.913 331.067  14
  -7   0 -10 464.103 196.103  11
  -7   0 -11 16427.4 1357.72  14
  -7   0 -11 13036.0 1650.21  11
  -7   0 -12 14525.4 1249.50  14
  -7   0 -12 12338.4 1439.64  11
  -7   0 -13 3974.48 591.873  14
  -7   0 -13 2856.54 600.041  11
  -7   0 -14 11402.8 889.796  14
  -7   0 -14 4739.94 766.435  11
  -7  -1  13 2788.25 589.485  17
  -7  -1  12 1086.79 346.450  26
  -7  -1  12 1341.09 514.218  17
  -7  -1  11 9218.80 1070.50  26
  -7  -1  11 11030.6 1465.85  17
  -7  -1  10 50132.2 2330.77  22
  -7  -1  10 50858.5 2617.13  26
  -7  -1   9 43969.4 3651.84  17
  -7  -1   9 40338.2 2215.99  22
  -7  -1   8 303.779 462.894  17
  -7  -1   8 395.180 207.424  22
  -7  -1   7 65876.7 2931.22  22
  -7  -1   7 56480.5 4275.38  17
  -7  -1   6 93680.7 3479.40  22
  -7  -1   6 94630.3 3480.54  24
  -7  -1   5 1939.21 475.503  22
  -7  -1   5 1663.79 791.950  17
  -7  -1   5 1836.84 466.219  24
  -7  -1   4 26905.9 2624.34  17
  -7  -1   4 26201.1 1756.77  10
  -7  -1   4 23974.0 1752.62  24
  -7  -1   4 23930.9 1707.84  22
  -7  -1   3 22542.9 1638.22  10
  -7  -1   3 27418.0 2473.22  17
  -7  -1   3 21166.6 3833.53   1
  -7  -1   3 20559.1 1563.45  22
  -7  -1   3 21712.2 1655.30  24
  -7  -1   2 5242.47 779.212  24
  -7  -1   2 4750.12 732.373  22
  -7  -1   2 5580.98 1039.21  17
  -7  -1   2 4772.86 1748.93   1
  -7  -1   2 4795.51 770.088  10
  -7  -1   1 3150.42 588.601  24
  -7  -1   1 3812.30 878.108  17
  -7  -1   1 2857.91 536.454  22
  -7  -1   1 3440.37 1465.05   1
  -7  -1   1 3152.06 642.771  10
  -7  -1   0 1071.95 357.574  24
  -7  -1   0 1899.98 602.293  17
  -7  -1   0 1131.03 319.493  16
  -7  -1   0 1293.72 346.169  22
  -7  -1   0 2332.36 1171.56   1
  -7  -1   0 1668.19 448.141  10
  -7  -1   0 1829.72 546.348   9
  -7  -1  -1 27606.7 1751.48  16
  -7  -1  -1 26367.7 1635.47  14
  -7  -1  -1 32983.9 4436.69   1
  -7  -1  -1 31575.1 1826.97  24
  -7  -1  -1 27975.4 1669.16  22
  -7  -1  -1 32294.4 1977.80  10
  -7  -1  -1 31781.5 2330.73   9
  -7  -1  -2 48752.3 2408.54  16
  -7  -1  -2 49815.1 2271.53  14
  -7  -1  -2 54584.0 2361.14  24
  -7  -1  -2 56601.9 5721.65   1
  -7  -1  -2 55657.2 2619.64  10
  -7  -1  -2 55257.3 3086.79   9
  -7  -1  -3 1347.99 359.624  24
  -7  -1  -3 1556.09 437.000  14
  -7  -1  -3 2036.99 483.249  11
  -7  -1  -3 1366.03 557.853  17
  -7  -1  -3 1111.90 403.174  16
  -7  -1  -3 1717.79 499.559  10
  -7  -1  -3 1925.08 588.212   9
  -7  -1  -3 1303.54 850.642   1
  -7  -1  -4 50978.3 5314.49   1
  -7  -1  -4 51744.3 2577.35  16
  -7  -1  -4 55165.6 2644.12  11
  -7  -1  -4 61456.7 3916.72  17
  -7  -1  -4 53914.4 2540.30  10
  -7  -1  -4 56075.4 3154.77   9
  -7  -1  -5 68574.1 6130.90   1
  -7  -1  -5 70140.8 3136.04  11
  -7  -1  -5 72281.6 2910.77  14
  -7  -1  -5 67676.7 2957.36  16
  -7  -1  -5 73405.2 4312.93  17
  -7  -1  -5 73519.0 2919.54  10
  -7  -1  -6 16946.0 2178.61  17
  -7  -1  -6 20978.1 1608.82  14
  -7  -1  -6 22534.2 1680.22  16
  -7  -1  -6 20640.9 1796.10  11
  -7  -1  -7 4001.22 1087.40  17
  -7  -1  -7 6803.75 933.291  16
  -7  -1  -7 6261.61 902.302  14
  -7  -1  -7 5467.21 1040.88  11
  -7  -1  -8 53317.2 2626.65  16
  -7  -1  -8 51852.6 2617.14  14
  -7  -1  -9 34043.3 2033.71  16
  -7  -1  -9 32496.9 2087.25  14
  -7  -1  -9 32273.3 2996.42  11
  -7  -1 -10 1151.85 361.357  16
  -7  -1 -10 998.074 321.101  14
  -7  -1 -10 691.249 478.616  11
  -7  -1 -11 13876.8 1179.99  16
  -7  -1 -11 12680.6 1246.81  14
  -7  -1 -12 408.707 199.045  14
  -7  -1 -12-170.955 361.129  11
  -7  -1 -13 774.730 282.676  14
  -7  -1 -13 484.701 317.755  11
  -7  -1 -14 4737.19 647.153  14
  -7  -1 -14 3209.43 621.539  11
  -7  -1 -15 3190.01 448.811  14
  -7  -1 -15 777.441 308.282  11
  -7  -2  12 5680.25 758.702  26
  -7  -2  12 3576.61 728.504  17
  -7  -2  11-36.0653 137.903  26
  -7  -2  11-9.86764 153.189  17
  -7  -2  10 24152.2 2490.11  17
  -7  -2  10 19467.6 1444.44  22
  -7  -2   9 699.646 426.173  17
  -7  -2   9 587.777 279.532  22
  -7  -2   8 4910.33 1353.90  17
  -7  -2   8 5381.13 831.656  22
  -7  -2   7 2501.11 1043.36  17
  -7  -2   7 3402.23 723.082  28
  -7  -2   7 3431.80 658.103  24
  -7  -2   7 3064.99 626.565  22
  -7  -2   6 10508.6 1186.80  22
  -7  -2   6 9397.05 1098.69  24
  -7  -2   6 11411.5 1315.11  28
  -7  -2   6 10088.3 1806.93  17
  -7  -2   5 63762.4 2823.19  24
  -7  -2   5 60585.3 2856.20  22
  -7  -2   5 61950.9 2999.07  28
  -7  -2   4 41963.4 2274.58  24
  -7  -2   4 39302.5 2254.09  22
  -7  -2   4 34011.7 2964.29  17
  -7  -2   4 42866.4 2401.07  28
  -7  -2   3 1563.37 454.060  24
  -7  -2   3 2298.57 1268.42   1
  -7  -2   3 1274.56 383.410  22
  -7  -2   3 1342.47 402.182  28
  -7  -2   3 1898.85 636.459  17
  -7  -2   2 80295.8 7453.22   1
  -7  -2   2 77416.0 3022.10  28
  -7  -2   2 88638.4 4345.35  17
  -7  -2   2 87636.8 3219.22  24
  -7  -2   2 78566.7 3027.28  22
  -7  -2   1 84805.2 3107.58  24
  -7  -2   1 89293.2 3155.95  22
  -7  -2   1 94596.6 3172.49  28
  -7  -2   1 99968.4 8069.70   1
  -7  -2   1 108152. 4607.36  17
  -7  -2   1 94731.6 3405.60  10
  -7  -2   0 6646.48 2032.96   1
  -7  -2   0 6958.58 884.021  24
  -7  -2   0 5326.81 745.588  22
  -7  -2   0 7626.93 1225.76  17
  -7  -2   0 6521.37 892.837  10
  -7  -2   0 6314.46 1003.09   9
  -7  -2  -1 27475.9 1696.77  16
  -7  -2  -1 32200.8 4390.68   1
  -7  -2  -1 26060.7 1617.75  22
  -7  -2  -1 33099.2 1977.47  10
  -7  -2  -1 30801.6 2258.59   9
  -7  -2  -2 37920.3 2033.92  16
  -7  -2  -2 45676.1 3345.81  17
  -7  -2  -2 40628.4 2204.85  10
  -7  -2  -2 40126.3 2596.60   9
  -7  -2  -2 39120.1 4804.71   1
  -7  -2  -3 4655.67 745.199  14
  -7  -2  -3 5546.60 783.150  16
  -7  -2  -3 6371.53 1944.14   1
  -7  -2  -3 6837.08 1332.75  17
  -7  -2  -3 6141.92 864.121  10
  -7  -2  -3 5921.28 1002.21   9
  -7  -2  -4 15182.5 1305.83  14
  -7  -2  -4 17547.5 1427.62  16
  -7  -2  -4 15906.2 1250.47  24
  -7  -2  -4 18418.9 1786.76   9
  -7  -2  -4 17280.7 2402.41  17
  -7  -2  -4 17663.2 3130.96   1
  -7  -2  -5 1861.86 935.227  17
  -7  -2  -5 3738.80 669.669  16
  -7  -2  -5 3598.06 641.596  14
  -7  -2  -6 1192.74 651.945  17
  -7  -2  -6 1876.97 478.674  16
  -7  -2  -6 1527.06 422.123  14
  -7  -2  -7 22861.9 1978.83  11
  -7  -2  -7 27675.7 1921.45  14
  -7  -2  -7 27076.9 1850.90  16
  -7  -2  -8-16.1293 160.480  14
  -7  -2  -8-442.799 432.489  11
  -7  -2  -8 277.038 152.618  16
  -7  -2  -8 460.228 527.237  17
  -7  -2  -9 43077.8 2938.27  13
  -7  -2  -9 37290.4 3156.56  11
  -7  -2  -9 43318.1 2306.32  16
  -7  -2  -9 41974.5 2433.90  14
  -7  -2 -10 61905.5 3508.09  13
  -7  -2 -10 58007.9 5056.29  11
  -7  -2 -10 57614.7 2600.31  16
  -7  -2 -10 61040.6 2909.42  14
  -7  -2 -11 12446.2 1524.04  13
  -7  -2 -11 9691.59 1953.90  11
  -7  -2 -11 11461.3 1242.40  14
  -7  -2 -11 11965.3 1122.47  16
  -7  -2 -12 8248.07 1144.61  13
  -7  -2 -12 9078.25 1039.47  14
  -7  -2 -13 12459.3 1526.44  11
  -7  -2 -13 24373.9 1598.18  14
  -7  -2 -14 12840.8 1286.69  11
  -7  -2 -14 25805.0 1535.34  14
  -7  -2 -15 371.448 184.710  14
  -7  -2 -15-75.7885 171.209  11
  -7  -3  12 30499.4 1694.48  26
  -7  -3  11 33293.1 1942.11  26
  -7  -3  10 6783.27 1158.74  17
  -7  -3  10 5593.62 762.755  22
  -7  -3   9 33062.9 3109.39  17
  -7  -3   9 26276.9 1776.31  22
  -7  -3   8 56549.8 2988.88  28
  -7  -3   8 51853.5 2616.74  22
  -7  -3   8 53858.6 4124.59  17
  -7  -3   7 1195.43 419.549  28
  -7  -3   7 1128.32 402.972  22
  -7  -3   7 837.991 805.657  17
  -7  -3   7 1329.61 523.601  15
  -7  -3   6-1.26463 115.055  28
  -7  -3   6 15.8655 122.033  22
  -7  -3   6-172.850 328.252  17
  -7  -3   6-100.732 305.271  15
  -7  -3   6 28.1494 148.995  24
  -7  -3   5 34392.0 2292.19  28
  -7  -3   5 32811.8 2042.72  24
  -7  -3   5 31500.9 2127.38  22
  -7  -3   5 31837.4 2975.96  17
  -7  -3   4 374.924 179.318  28
  -7  -3   4 460.204 247.703  24
  -7  -3   4 401.720 215.260  22
  -7  -3   4 32.5090 240.990  17
  -7  -3   4 26.4907 154.834  15
  -7  -3   3 4929.44 844.591  24
  -7  -3   3 6862.03 966.214  22
  -7  -3   3 7327.61 2380.42   1
  -7  -3   3 8252.94 1444.38  17
  -7  -3   3 5853.90 896.857  28
  -7  -3   2 4869.81 773.833  22
  -7  -3   2 4885.89 1889.54   1
  -7  -3   2 4013.88 1042.35  19
  -7  -3   2 5755.19 1156.12  17
  -7  -3   2 4847.95 792.053  28
  -7  -3   1 2113.30 489.391  28
  -7  -3   1 2368.80 604.842  23
  -7  -3   1 2363.52 706.991  17
  -7  -3   1 2637.24 553.479  22
  -7  -3   1 2774.59 625.165   9
  -7  -3   1 3180.30 1471.89   1
  -7  -3   0 81751.1 3638.17   9
  -7  -3   0 85128.0 7556.33   1
  -7  -3   0 72563.1 3240.46  23
  -7  -3   0 73424.8 2859.89  22
  -7  -3  -1 60095.0 6184.40   1
  -7  -3  -1 51652.7 2309.87  16
  -7  -3  -1 59401.7 3106.43   9
  -7  -3  -1 48560.9 2684.10  23
  -7  -3  -1 52403.4 2328.01  22
  -7  -3  -2 3008.51 547.895  16
  -7  -3  -2 3875.36 973.439  17
  -7  -3  -2 4052.44 823.143   9
  -7  -3  -2 3386.36 1356.05   1
  -7  -3  -3 98760.8 3330.71  16
  -7  -3  -3 103311. 5259.09  17
  -7  -3  -3 109168. 4287.28   9
  -7  -3  -3 105695. 7891.18   1
  -7  -3  -4 41608.2 2102.39  14
  -7  -3  -4 50479.4 2407.41  16
  -7  -3  -4 55609.7 4015.16  17
  -7  -3  -4 57174.2 3175.81   9
  -7  -3  -4 50077.7 5305.69   1
  -7  -3  -5 14604.7 1331.08  16
  -7  -3  -5 13371.8 1235.81  14
  -7  -3  -5 15472.6 2184.54  17
  -7  -3  -6 19683.4 1574.36  14
  -7  -3  -6 21273.9 1619.30  16
  -7  -3  -7 33091.0 2155.39  14
  -7  -3  -7 35620.6 2121.42  16
  -7  -3  -8 1135.19 392.056  16
  -7  -3  -8 628.505 705.525  17
  -7  -3  -8 1431.28 437.615  14
  -7  -3  -8 1082.30 446.924  13
  -7  -3  -9 12115.9 1354.96  14
  -7  -3  -9 10501.8 1144.85  16
  -7  -3  -9 9838.08 1505.90  13
  -7  -3 -10 7747.47 1084.55  14
  -7  -3 -10 7580.59 946.012  16
  -7  -3 -10 8302.76 1527.70  13
  -7  -3 -10 6354.79 1365.55  11
  -7  -3 -11 2169.55 449.565  16
  -7  -3 -11 93.6412 369.738  17
  -7  -3 -11 2508.52 617.453  14
  -7  -3 -11 1272.90 714.357  11
  -7  -3 -11 2478.71 836.401  13
  -7  -3 -12 14001.9 1357.61  14
  -7  -3 -12 14334.7 1643.57  13
  -7  -3 -13 2256.08 472.390  14
  -7  -3 -13 1114.27 402.481  11
  -7  -3 -13 1662.01 488.310  13
  -7  -3 -14 11143.0 1039.47  14
  -7  -3 -14 3953.77 760.113  11
  -7  -3 -15 18209.3 1198.83  14
  -7  -3 -15 3374.16 652.362  11
  -7  -4  10 76.1247 226.739  15
  -7  -4   9 2158.57 569.512  28
  -7  -4   9 2570.86 687.145  15
  -7  -4   9 2521.39 559.726  22
  -7  -4   8 618.348 311.564  28
  -7  -4   8 547.917 275.957  22
  -7  -4   8 429.412 346.265  17
  -7  -4   8 541.780 266.488  15
  -7  -4   7 23744.0 2020.55  28
  -7  -4   7 25289.5 2246.98  15
  -7  -4   7 21662.6 1793.60  22
  -7  -4   6 5009.80 913.631  28
  -7  -4   6 4780.55 765.359  24
  -7  -4   6 4714.85 846.812  22
  -7  -4   6 2512.99 932.509  17
  -7  -4   6 6118.47 1072.34  15
  -7  -4   5 1901.84 547.747  28
  -7  -4   5 1779.07 544.734  22
  -7  -4   5 1222.30 854.894  17
  -7  -4   5 2250.59 628.830  15
  -7  -4   5 1713.59 459.682  24
  -7  -4   4 30469.1 2167.94  28
  -7  -4   4 30633.0 2141.81  22
  -7  -4   4 36009.3 3154.60  17
  -7  -4   4 30956.8 2180.33  15
  -7  -4   3 89405.6 3593.36  28
  -7  -4   3 90896.0 3610.34  22
  -7  -4   3 78923.6 4909.25  19
  -7  -4   3 91100.5 3558.39  15
  -7  -4   2 28842.8 2007.92  22
  -7  -4   2 32745.5 5264.24   1
  -7  -4   2 26509.3 2723.52  19
  -7  -4   2 38223.0 2867.63  17
  -7  -4   2 28151.8 1976.17  28
  -7  -4   1 9156.05 1239.39  23
  -7  -4   1 9530.71 1121.30  22
  -7  -4   1 10861.0 2912.45   1
  -7  -4   1 8760.31 1513.53  19
  -7  -4   1 11943.5 1653.94  17
  -7  -4   1 10888.5 1161.57  28
  -7  -4   0 51629.7 3300.52  17
  -7  -4   0 52176.0 6119.79   1
  -7  -4   0 39767.9 2223.01  22
  -7  -4   0 39671.4 2569.95  23
  -7  -4  -1 7918.65 905.474  16
  -7  -4  -1 8688.03 2450.73   1
  -7  -4  -1 8667.46 1006.88  22
  -7  -4  -1 7903.48 1102.82  23
  -7  -4  -1 8688.43 1459.61  17
  -7  -4  -1 10025.8 1240.47   9
  -7  -4  -2 3935.17 1575.57   1
  -7  -4  -2 2291.18 584.573  23
  -7  -4  -2 2898.37 541.086  16
  -7  -4  -2 3330.39 964.199  17
  -7  -4  -2 3490.73 739.366   9
  -7  -4  -3 17149.8 1399.11  16
  -7  -4  -3 20949.9 3592.48   1
  -7  -4  -3 14609.9 1424.21  23
  -7  -4  -3 20117.5 1804.21   9
  -7  -4  -4 1249.66 424.876  23
  -7  -4  -4 1060.24 774.670   1
  -7  -4  -4 12.3822 340.606  17
  -7  -4  -4 688.734 182.367  16
  -7  -4  -5 18417.0 1440.20  14
  -7  -4  -5 21042.2 1597.84  16
  -7  -4  -6 14017.3 1328.46  14
  -7  -4  -6 16510.9 1438.63  16
  -7  -4  -7 6813.82 983.630  14
  -7  -4  -7 7928.93 995.039  16
  -7  -4  -8 146149. 4310.50  16
  -7  -4  -8 151153. 4968.72  14
  -7  -4  -9 32825.1 2736.66  13
  -7  -4  -9 43574.5 2360.80  16
  -7  -4  -9 45518.1 2861.10  14
  -7  -4  -9 31818.2 4328.79  17
  -7  -4 -10 293.297 195.547  16
  -7  -4 -10 748.629 864.288  17
  -7  -4 -10 61.9979 281.601  14
  -7  -4 -10 513.444 476.691  13
  -7  -4 -11 43537.2 4277.02  13
  -7  -4 -11 40397.6 2173.79  16
  -7  -4 -11 44658.6 2640.16  14
  -7  -4 -12 35666.3 2216.13  14
  -7  -4 -12 32991.0 2865.36  13
  -7  -4 -13 4703.32 756.317  14
  -7  -4 -13 4554.82 879.742  13
  -7  -4 -14 2126.32 466.875  14
  -7  -4 -14 1914.74 518.721  13
  -7  -4 -15 4133.38 575.520  14
  -7  -4 -16 372.687 166.021  14
  -7  -5  10 11541.8 1330.46  15
  -7  -5   9 8361.40 1094.20  28
  -7  -5   9 7958.84 960.044  22
  -7  -5   9 8412.19 1194.82  15
  -7  -5   8 259.304 250.194  22
  -7  -5   8 95.0562 167.853  15
  -7  -5   8 284.440 270.548  28
  -7  -5   7 8937.87 1152.31  22
  -7  -5   7 9883.00 1477.59  15
  -7  -5   7 8137.01 1188.20  28
  -7  -5   6 5292.53 934.864  22
  -7  -5   6 5818.04 988.274  28
  -7  -5   6 2909.59 1132.25  17
  -7  -5   6 6138.52 1181.85  15
  -7  -5   5 251.197 236.598  24
  -7  -5   5 366.507 225.781  28
  -7  -5   5 116.482 177.181  22
  -7  -5   5-310.433 298.918  17
  -7  -5   5 554.289 248.143  15
  -7  -5   4 23474.4 1760.51  24
  -7  -5   4 24671.5 2024.05  22
  -7  -5   4 22581.4 1937.40  28
  -7  -5   4 20760.1 2795.44  19
  -7  -5   4 25436.3 2105.67  15
  -7  -5   3 49.8245 181.299  22
  -7  -5   3 127.018 115.219  28
  -7  -5   3 288.693 189.721  17
  -7  -5   3 211.447 123.360  15
  -7  -5   2 67469.5 4395.34  19
  -7  -5   2 64808.1 3121.49  28
  -7  -5   2 62406.0 3420.47  23
  -7  -5   2 63096.7 3190.55  22
  -7  -5   1 24295.6 2095.79  23
  -7  -5   1 20156.3 1805.67  22
  -7  -5   1 22626.6 1777.32  28
  -7  -5   1 22313.1 2448.22  19
  -7  -5   1 28118.4 2456.18  17
  -7  -5   1 25818.6 4696.04   1
  -7  -5   0 257.448 182.189  22
  -7  -5   0 223.190 225.725  19
  -7  -5   0 95.3133 267.997  23
  -7  -5   0-181.205 399.181   1
  -7  -5   0 519.188 479.106  17
  -7  -5  -1 66273.3 2932.85  22
  -7  -5  -1 63523.9 3233.21  23
  -7  -5  -1 65441.4 2695.71  16
  -7  -5  -2 29697.2 2156.84  23
  -7  -5  -2 31557.6 1891.72  22
  -7  -5  -2 28730.7 2707.67  17
  -7  -5  -2 37579.5 5142.47   1
  -7  -5  -2 30757.2 1877.88  16
  -7  -5  -3 11574.6 1334.25  23
  -7  -5  -3 17206.7 2196.65  17
  -7  -5  -3 16841.8 3330.07   1
  -7  -5  -3 14407.1 1315.11  16
  -7  -5  -4 13170.9 1425.04  23
  -7  -5  -4 16578.8 3208.64   1
  -7  -5  -4 15816.0 1375.65  16
  -7  -5  -5 33028.3 2286.20  23
  -7  -5  -5 43289.8 2316.64  16
  -7  -5  -6 9808.32 1279.73  23
  -7  -5  -6 11170.5 1178.16  14
  -7  -5  -6 12595.6 1277.55  16
  -7  -5  -7-76.6743 158.655  16
  -7  -5  -7-107.603 442.652  17
  -7  -5  -7-4.04701 242.716  14
  -7  -5  -8 1123.54 388.609  16
  -7  -5  -8 574.535 519.481  17
  -7  -5  -8 772.187 349.653  14
  -7  -5  -8 557.056 317.601  13
  -7  -5  -9 14628.8 1779.04  14
  -7  -5  -9 13772.6 1363.67  16
  -7  -5  -9 12240.7 1564.81  13
  -7  -5 -10 6037.75 885.865  16
  -7  -5 -10 6047.54 1199.61  13
  -7  -5 -11 9253.46 1291.06  14
  -7  -5 -11 9711.63 2429.03  17
  -7  -5 -11 7101.88 1466.99  13
  -7  -5 -12 5979.32 1692.52  17
  -7  -5 -12 4507.58 829.669  14
  -7  -5 -12 4424.64 1059.96  13
  -7  -5 -13 33457.9 2079.90  14
  -7  -5 -13 27829.1 2280.62  13
  -7  -5 -14 17913.2 1412.49  14
  -7  -5 -14 15512.3 1497.23  13
  -7  -5 -15-59.4433 227.885  17
  -7  -5 -15 252.626 168.852  14
  -7  -5 -16 25886.9 1335.73  14
  -7  -6  10 21.2890 200.871  15
  -7  -6  10 138.739 168.350  28
  -7  -6   9 21673.9 1739.60  28
  -7  -6   9 21462.4 1841.19  15
  -7  -6   9 22168.5 1557.65  22
  -7  -6   8 57402.4 2988.00  28
  -7  -6   8 58118.4 3289.64  15
  -7  -6   8 57818.7 2765.27  22
  -7  -6   7 6398.36 1030.06  28
  -7  -6   7 7113.46 1237.43  15
  -7  -6   7 6695.09 1023.85  22
  -7  -6   6 6213.57 1045.73  28
  -7  -6   6 6032.03 967.691  22
  -7  -6   6 6949.80 1389.70  15
  -7  -6   5 37627.3 3859.21  19
  -7  -6   5 41029.6 2694.24  28
  -7  -6   5 41986.5 2669.90  22
  -7  -6   5 49447.0 3734.73  15
  -7  -6   4 21052.4 2731.72  19
  -7  -6   4 19562.0 1875.37  28
  -7  -6   4 19636.8 2013.86  15
  -7  -6   4 18604.3 1817.14  22
  -7  -6   3 5477.61 1027.34  22
  -7  -6   3 5732.10 1027.56  28
  -7  -6   3 5461.90 1416.90  19
  -7  -6   3 3640.13 1087.93  17
  -7  -6   3 5402.30 952.392  15
  -7  -6   2 14957.4 2095.77  19
  -7  -6   2 12687.9 1488.41  28
  -7  -6   2 16698.7 1983.71  17
  -7  -6   2 12512.6 1557.28  23
  -7  -6   2 12382.0 1486.64  22
  -7  -6   1 1290.15 423.514  22
  -7  -6   1 2065.74 742.325  19
  -7  -6   1 1701.42 558.683  28
  -7  -6   1 1476.97 563.368  23
  -7  -6   1 1418.64 674.551  17
  -7  -6   0 170.563 151.431  22
  -7  -6   0 135.710 299.335  19
  -7  -6   0 182.001 301.561  28
  -7  -6   0-29.3494 139.342  17
  -7  -6   0-100.437 261.637  23
  -7  -6  -1 132.081 136.274  22
  -7  -6  -1 262.442 145.661  23
  -7  -6  -1 183.032 264.472  17
  -7  -6  -1 103.108 303.989   1
  -7  -6  -2 3184.99 657.340  22
  -7  -6  -2 4052.85 820.458  23
  -7  -6  -2 5003.66 1946.30   1
  -7  -6  -2 4390.39 751.456  16
  -7  -6  -2 2167.03 717.856  17
  -7  -6  -3 26404.0 2104.01  23
  -7  -6  -3 21000.7 2495.12  17
  -7  -6  -3 30467.2 4693.51   1
  -7  -6  -3 28057.0 1915.15  16
  -7  -6  -4 12249.6 1289.88  16
  -7  -6  -4 10541.4 1344.27  23
  -7  -6  -5 1685.30 443.861  16
  -7  -6  -5 531.711 798.227  17
  -7  -6  -5 1822.00 596.160  23
  -7  -6  -6 44174.3 2878.94  23
  -7  -6  -6 58942.7 2807.66  16
  -7  -6  -7 34354.9 2672.46  23
  -7  -6  -7 39463.8 2312.31  14
  -7  -6  -8 16119.8 1958.44  23
  -7  -6  -8 17570.9 1568.68  16
  -7  -6  -8 15757.4 1633.50  14
  -7  -6  -9 7613.29 2452.58  17
  -7  -6  -9 6036.93 918.444  16
  -7  -6  -9 6495.61 1066.11  13
  -7  -6 -10 25901.5 4844.46  17
  -7  -6 -10 17181.0 1826.73  13
  -7  -6 -11 12429.6 1591.53  13
  -7  -6 -11 11276.0 3208.92  17
  -7  -6 -12 1762.64 638.899  13
  -7  -6 -12 1124.49 858.930  17
  -7  -6 -13 3715.30 705.844  14
  -7  -6 -13 3501.48 805.224  13
  -7  -6 -13 1754.98 930.244  17
  -7  -6 -14 2749.70 539.062  14
  -7  -6 -14 2639.83 613.087  13
  -7  -6 -15 3351.76 557.287  14
  -7  -6 -15 18.1704 184.887  17
  -7  -6 -16 1644.19 333.984  14
  -7  -7  10 697.703 336.820  15
  -7  -7  10 985.635 317.092  28
  -7  -7   9 859.418 295.102  22
  -7  -7   9 920.940 375.989  15
  -7  -7   9 776.334 311.532  28
  -7  -7   8 150.681 108.566  22
  -7  -7   8 108.310 147.583  15
  -7  -7   8 522.346 310.433  28
  -7  -7   7 5833.37 924.069  22
  -7  -7   7 5583.64 1037.98  15
  -7  -7   7 6175.57 1022.96  28
  -7  -7   6 2302.50 604.659  22
  -7  -7   6 1788.23 646.590  15
  -7  -7   6 2243.07 623.888  28
  -7  -7   5 933.388 419.476  22
  -7  -7   5 1432.27 820.330  19
  -7  -7   5 763.013 396.315  28
  -7  -7   5 306.886 459.205  15
  -7  -7   4 50459.4 4260.06  19
  -7  -7   4 40522.6 2764.59  22
  -7  -7   4 39769.2 2714.54  28
  -7  -7   4 41300.7 3397.59  15
  -7  -7   3 43099.7 2942.23  22
  -7  -7   3 41794.1 2876.96  28
  -7  -7   2 139.274 166.922  22
  -7  -7   2 222.087 294.292  19
  -7  -7   2 411.547 313.632  23
  -7  -7   2 422.434 375.963  28
  -7  -7   1 51040.6 3257.25  22
  -7  -7   1 56361.7 3485.54  23
  -7  -7   1 60146.9 4272.82  19
  -7  -7   0 94226.4 4540.54  17
  -7  -7   0 84832.4 4943.42  19
  -7  -7  -1 44387.9 3222.79  17
  -7  -7  -1 45560.1 3514.48  19
  -7  -7  -1 35547.8 2569.02  22
  -7  -7  -1 35480.2 2579.80  23
  -7  -7  -2 207.263 348.032  19
  -7  -7  -2 10.3245 106.585  22
  -7  -7  -2 215.773 243.910  23
  -7  -7  -2-252.815 280.689  17
  -7  -7  -3 8006.34 1208.15  23
  -7  -7  -3 765.207 1266.84  17
  -7  -7  -4 1772.76 580.997  23
  -7  -7  -4 1073.65 698.817  17
  -7  -7  -5 1092.75 474.818  23
  -7  -7  -5-715.665 622.573  17
  -7  -7  -6 377.966 263.057  23
  -7  -7  -6-571.463 545.126  17
  -7  -7  -7 3220.70 855.004  23
  -7  -7  -7 533.261 926.548  17
  -7  -7  -8 13616.7 1842.28  23
  -7  -7  -8 7287.42 2207.21  17
  -7  -7  -9 6546.67 1481.99  23
  -7  -7  -9 12448.0 2675.58  17
  -7  -7 -10 6994.65 1066.13  13
  -7  -7 -10 7515.55 1808.44  23
  -7  -7 -10 10414.0 2693.66  17
  -7  -7 -11 35575.1 2461.18  13
  -7  -7 -11 44434.4 5500.44  17
  -7  -7 -12 26733.9 2123.31  13
  -7  -7 -12 30916.8 4121.99  17
  -7  -7 -13 2066.34 1105.66  17
  -7  -7 -13 2709.96 607.203  14
  -7  -7 -13 2492.84 600.313  13
  -7  -7 -14 11875.1 1147.16  14
  -7  -7 -14 12796.0 1299.19  13
  -7  -7 -15-86.4529 221.357  17
  -7  -7 -15 7329.03 796.621  14
  -7  -7 -16 3903.52 513.120  14
  -7  -8  10 238.456 263.126  15
  -7  -8   9 13369.2 1058.85  22
  -7  -8   9 14721.4 1285.86  15
  -7  -8   9 13335.9 1223.19  28
  -7  -8   8 723.747 340.134  22
  -7  -8   8 953.759 373.642  15
  -7  -8   8 816.480 322.304  28
  -7  -8   7 29846.0 2005.91  22
  -7  -8   7 32689.7 2285.94  15
  -7  -8   7 32641.9 2210.33  28
  -7  -8   6 27063.7 2056.70  22
  -7  -8   6 29597.1 2393.79  15
  -7  -8   6 26639.9 2105.65  28
  -7  -8   5-221.520 278.233  22
  -7  -8   5-107.466 337.011  19
  -7  -8   5 52.5301 130.809  28
  -7  -8   5-99.4036 163.816  15
  -7  -8   4 14761.7 2391.86  19
  -7  -8   4 10657.5 1461.11  22
  -7  -8   4 10413.0 1415.60  28
  -7  -8   3 5402.82 1142.14  22
  -7  -8   3 8539.78 1732.30  19
  -7  -8   2 13200.9 1666.21  23
  -7  -8   2 14731.3 2210.74  19
  -7  -8   1 178.557 274.478  23
  -7  -8   1 217.935 330.422  19
  -7  -8   1-101.062 171.131  22
  -7  -8   0 72.9777 360.611  23
  -7  -8   0 178.068 166.279  22
  -7  -8  -1 59692.8 3493.10  23
  -7  -8  -1 63003.2 4351.44  19
  -7  -8  -2 63128.1 3505.44  23
  -7  -8  -2 71535.4 4560.32  19
  -7  -8  -3 429.815 309.862  23
  -7  -8  -3-369.166 361.497  17
  -7  -8  -3 62.1308 310.743  19
  -7  -8  -4 30635.6 2430.18  23
  -7  -8  -4 35561.7 3385.30  19
  -7  -8  -5 78113.4 3888.72  23
  -7  -8  -5 11934.7 2804.60  17
  -7  -8  -6 679.658 675.906  17
  -7  -8  -6 14332.3 1694.26  23
  -7  -8  -7 784.638 630.578  17
  -7  -8  -7 11541.2 1561.44  23
  -7  -8  -8 1889.63 1223.58  17
  -7  -8  -8 34188.2 2804.17  23
  -7  -8  -9 1496.67 812.893  17
  -7  -8  -9 7270.59 1340.74  23
  -7  -8 -10 1044.07 665.371  17
  -7  -8 -10 834.551 459.271  23
  -7  -8 -11 6741.10 2161.54  17
  -7  -8 -11 5012.90 1147.73  23
  -7  -8 -12 2995.66 1316.87  17
  -7  -8 -12 1631.48 585.914  23
  -7  -8 -13 2306.95 1130.80  17
  -7  -8 -13 15220.7 1406.30  14
  -7  -8 -14 545.017 382.528  17
  -7  -8 -14 6280.19 803.377  14
  -7  -8 -15-377.160 433.854  17
  -7  -8 -15 1068.79 284.050  14
  -7  -9   9 82.0999 155.646  15
  -7  -9   9-44.9203 82.0563  28
  -7  -9   8 8699.73 912.662  22
  -7  -9   8 11030.7 1092.23  15
  -7  -9   8 9809.83 1066.25  28
  -7  -9   7 2068.89 503.423  22
  -7  -9   7 2551.66 578.276  15
  -7  -9   7 2587.97 585.628  28
  -7  -9   6 16256.3 1511.51  22
  -7  -9   6 14450.9 1477.90  28
  -7  -9   6 16251.0 1549.11  15
  -7  -9   5 52937.9 2973.72  28
  -7  -9   5 61855.2 4683.93  19
  -7  -9   5 52889.5 3026.79  22
  -7  -9   4 12598.8 1561.49  28
  -7  -9   4 12876.9 1572.66  22
  -7  -9   3 261.432 221.457  22
  -7  -9   3 1678.29 779.499  19
  -7  -9   2 2824.91 1005.20  22
  -7  -9   2 99936.6 5851.80  19
  -7  -9   1 82286.1 4178.57  23
  -7  -9   1 83892.2 5273.58  19
  -7  -9   0 8513.01 1533.72  23
  -7  -9   0 12815.2 2016.57  19
  -7  -9  -1 5620.55 1100.65  23
  -7  -9  -1 6026.88 1344.49  19
  -7  -9  -2 30224.9 2483.40  23
  -7  -9  -2 31052.9 3074.38  19
  -7  -9  -3 2134.77 634.800  23
  -7  -9  -3 2418.78 898.016  19
  -7  -9  -4 7869.00 1247.37  23
  -7  -9  -4 8921.84 1749.81  19
  -7  -9  -5 81.7888 138.649  23
  -7  -9  -5-192.963 194.824  17
  -7  -9  -5-96.9198 453.557  19
  -7  -9  -6-477.246 460.312  17
  -7  -9  -6 38915.9 2804.29  23
  -7  -9  -7 380.964 462.946  17
  -7  -9  -7 38283.2 2825.29  23
  -7  -9  -8 894.988 663.148  17
  -7  -9  -8 487.756 317.755  23
  -7  -9  -9 673.829 794.164  17
  -7  -9  -9 38109.8 2937.24  23
  -7  -9 -10 1994.19 1756.28  17
  -7  -9 -10 66463.6 3916.80  23
  -7  -9 -11 1306.75 866.505  17
  -7  -9 -11 4623.09 972.855  23
  -7  -9 -12 2909.81 698.887  23
  -7  -9 -12 3789.82 685.186  14
  -7  -9 -13 16529.0 1345.15  14
  -7  -9 -13 12676.6 1333.43  23
  -7  -9 -14 173.769 255.569  17
  -7  -9 -14 1697.79 383.801  14
  -7  -9 -15-342.007 357.026  17
  -7 -10   8 23855.0 1482.69  28
  -7 -10   7 3501.46 641.042  28
  -7 -10   7 2732.40 539.536  22
  -7 -10   7 3127.44 541.550  15
  -7 -10   6-89.9553 193.975  22
  -7 -10   6 75.7899 208.351  28
  -7 -10   5 3689.60 786.846  22
  -7 -10   5 5336.77 1273.76  19
  -7 -10   5 4457.36 840.423  28
  -7 -10   4 1395.55 441.232  22
  -7 -10   4 3089.70 946.388  19
  -7 -10   4 2048.84 579.085  28
  -7 -10   3 9336.98 1398.83  22
  -7 -10   3 17451.1 2421.71  19
  -7 -10   2 999.642 592.735  22
  -7 -10   2 7814.26 1688.08  19
  -7 -10   1 10211.9 1455.52  23
  -7 -10   1 9887.45 1829.32  19
  -7 -10   0 59465.2 3770.21  23
  -7 -10   0 62123.2 4475.12  19
  -7 -10  -1 132.443 172.680  23
  -7 -10  -1 12058.5 1904.31  19
  -7 -10  -2 3659.95 875.063  23
  -7 -10  -2 3898.50 1101.06  19
  -7 -10  -3 69697.8 3777.18  23
  -7 -10  -3 72888.1 4818.57  19
  -7 -10  -4 20584.2 2050.76  23
  -7 -10  -4 19481.9 2492.39  19
  -7 -10  -5 217.605 434.068  19
  -7 -10  -5 164.000 148.528  23
  -7 -10  -6 18374.2 1925.11  23
  -7 -10  -6 16833.7 2672.67  19
  -7 -10  -7-20.3656 413.895  17
  -7 -10  -7 12762.1 1612.16  23
  -7 -10  -8 163.110 286.166  17
  -7 -10  -8 268.947 235.359  23
  -7 -10  -9-62.4914 374.312  17
  -7 -10  -9 271.779 260.435  23
  -7 -10 -10 256.221 349.040  17
  -7 -10 -10-37.4667 149.969  23
  -7 -10 -11-20.1806 388.174  17
  -7 -10 -11 7963.93 1228.96  23
  -7 -10 -12 336.427 398.799  17
  -7 -10 -12 8827.68 1206.49  23
  -7 -10 -13 444.853 474.883  17
  -7 -10 -13 5495.91 857.746  23
  -7 -10 -14 608.206 428.067  17
  -7 -10 -14 11351.1 1061.50  23
  -7 -11   7 27808.1 1578.61  28
  -7 -11   6 23225.2 1598.31  28
  -7 -11   6 20028.1 1392.65  22
  -7 -11   5-51.1144 165.673  22
  -7 -11   5-73.2132 105.721  28
  -7 -11   4 19895.8 2396.37  19
  -7 -11   4 17030.9 1557.53  28
  -7 -11   4 16391.1 1603.07  22
  -7 -11   3 18483.7 1766.27  28
  -7 -11   3 35218.4 2455.51  22
  -7 -11   2 377.414 319.469  22
  -7 -11   2 2961.19 1021.61  19
  -7 -11   1-169.725 216.827  22
  -7 -11   1 4634.68 1195.27  19
  -7 -11   0 13438.4 1656.90  23
  -7 -11   0 14267.6 2101.37  19
  -7 -11  -1-26.3422 125.404  23
  -7 -11  -1-207.904 494.569  19
  -7 -11  -2 2630.75 731.120  23
  -7 -11  -2 2653.81 859.269  19
  -7 -11  -3 629.676 405.226  23
  -7 -11  -3 185.228 255.754  22
  -7 -11  -3 243.428 295.263  19
  -7 -11  -4 9771.58 1392.10  23
  -7 -11  -4 12048.5 1945.32  19
  -7 -11  -5 31686.2 2504.25  23
  -7 -11  -5 32784.4 3191.04  19
  -7 -11  -6 16245.8 1793.66  23
  -7 -11  -6 18098.1 2417.89  19
  -7 -11  -7 1772.49 748.602  19
  -7 -11  -7 1296.43 544.506  23
  -7 -11  -8 716.970 777.611  17
  -7 -11  -8 47998.4 3033.70  23
  -7 -11  -9 457.879 247.531  17
  -7 -11  -9 20584.6 1972.57  23
  -7 -11 -10 325.005 635.946  17
  -7 -11 -10 1749.99 538.947  23
  -7 -11 -11-275.235 290.400  17
  -7 -11 -11 25438.3 2060.84  23
  -7 -11 -12-239.384 430.774  17
  -7 -11 -12 19168.0 1666.37  23
  -7 -11 -13-116.473 225.807  17
  -7 -11 -13 110.412 168.929  23
  -7 -12   5 9486.07 963.489  28
  -7 -12   5 7292.65 816.992  22
  -7 -12   4 105.849 199.725  22
  -7 -12   4 508.945 273.635  28
  -7 -12   3 1786.83 512.811  22
  -7 -12   3 3003.66 881.735  19
  -7 -12   3 2829.60 614.365  28
  -7 -12   2 23500.7 1947.68  22
  -7 -12   2 37555.8 3222.74  19
  -7 -12   1 2005.06 680.288  22
  -7 -12   1 39295.4 3391.94  19
  -7 -12   0 285.719 396.164  22
  -7 -12   0 1856.86 801.945  19
  -7 -12  -1 24081.0 2089.00  23
  -7 -12  -1 26631.3 2738.10  19
  -7 -12  -2 6888.20 1425.87  23
  -7 -12  -2 265.726 270.621  22
  -7 -12  -3 10718.8 1429.43  23
  -7 -12  -3 10567.2 1741.75  19
  -7 -12  -4 1733.70 595.304  23
  -7 -12  -4 1161.08 547.223  19
  -7 -12  -5 15338.4 1676.65  23
  -7 -12  -5 14481.9 2029.40  19
  -7 -12  -6 125.363 221.897  23
  -7 -12  -6 12.5673 264.570  19
  -7 -12  -7 6024.79 1038.37  23
  -7 -12  -7 5701.79 1234.22  19
  -7 -12  -8 3202.70 728.748  23
  -7 -12  -9 5772.28 984.629  23
  -7 -12 -10 16270.3 1601.20  23
  -7 -12 -11 3473.94 707.430  23
  -7 -12 -11 96.4151 257.873  17
  -7 -12 -12 3904.68 692.846  23
  -7 -12 -12-21.1015 140.606  17
  -7 -12 -13 38067.1 1963.12  23
  -7 -13   3 836.965 336.977  22
  -7 -13   3 491.255 383.896  19
  -7 -13   3 935.884 316.060  28
  -7 -13   2-180.658 261.406  22
  -7 -13   2 129.729 335.214  19
  -7 -13   2 165.718 140.928  28
  -7 -13   1-119.686 205.267  22
  -7 -13   1-170.772 319.076  19
  -7 -13   1 337.253 202.454  28
  -7 -13   0 3539.32 834.842  22
  -7 -13   0 7473.35 1379.61  19
  -7 -13  -1-89.6840 224.517  19
  -7 -13  -1 151.955 115.065  22
  -7 -13  -2 7051.69 1061.04  23
  -7 -13  -2 3526.41 778.109  22
  -7 -13  -2 7735.42 1411.49  19
  -7 -13  -3 17473.1 1815.63  23
  -7 -13  -3 40071.0 3224.32  19
  -7 -13  -4 1110.46 427.172  23
  -7 -13  -4 16655.9 2034.75  19
  -7 -13  -5 977.902 438.975  23
  -7 -13  -5 1130.94 542.749  19
  -7 -13  -6 22189.8 1911.17  23
  -7 -13  -6 19800.8 2244.18  19
  -7 -13  -7 25255.0 2007.11  23
  -7 -13  -7 24382.5 2350.81  19
  -7 -13  -8 848.396 368.115  23
  -7 -13  -8 543.358 343.508  19
  -7 -13  -9 346.004 224.400  23
  -7 -13 -10 8000.46 1028.40  23
  -7 -13 -11 316.772 183.390  23
  -7 -13 -12 173.001 138.904  23
  -7 -14   1 9814.01 1438.01  19
  -7 -14   0 22875.6 1572.48  22
  -7 -14   0 39292.5 2868.55  19
  -7 -14  -1 3090.18 618.093  22
  -7 -14  -1 5927.42 1116.94  19
  -7 -14  -2 93.4225 121.115  22
  -7 -14  -2 538.123 390.780  19
  -7 -14  -3 1386.75 423.276  23
  -7 -14  -3 1369.80 586.782  19
  -7 -14  -4 225.062 215.778  23
  -7 -14  -4 103.404 248.430  19
  -7 -14  -5 74.6232 224.265  23
  -7 -14  -5 3517.87 871.183  19
  -7 -14  -6 372.367 182.427  23
  -7 -14  -6 492.737 410.401  19
  -7 -14  -7 10184.6 1159.40  23
  -7 -14  -7 8962.60 1280.80  19
  -7 -14  -8 36652.7 2127.10  23
  -7 -14  -8 31038.2 2235.32  19
  -7 -14  -9 4709.47 724.521  23
  -7 -14 -10 4710.06 706.200  23
  -8   9   6 2081.48 337.418  20
  -8   9   5 1318.27 265.933  20
  -8   9   4 9198.66 923.763  10
  -8   9   4 8461.86 691.714  20
  -8   9   3 3952.81 626.124  10
  -8   9   3 3248.21 414.585  20
  -8   9   2-92.2113 139.164  10
  -8   9   1 36554.5 1854.20  10
  -8   9   1 27237.7 1516.33  16
  -8   9   0 16566.8 1165.18  10
  -8   9   0 14857.8 1136.18  16
  -8   9  -1 841.950 260.849  16
  -8   9  -2 5373.90 629.308  16
  -8   8   8 11947.7 859.341  20
  -8   8   8 10532.3 806.569  29
  -8   8   7 23659.2 1271.71  20
  -8   8   7 21310.6 1187.74  29
  -8   8   6 5803.20 694.595  10
  -8   8   6 6491.84 681.576  20
  -8   8   6 5520.66 609.641  29
  -8   8   5 1091.39 336.305  10
  -8   8   5 1306.46 317.452  20
  -8   8   4 9885.76 1117.16  10
  -8   8   4 9570.15 841.354  20
  -8   8   3 1946.36 529.758  10
  -8   8   3 1773.72 352.132  20
  -8   8   2-177.608 221.663  10
  -8   8   2-209.981 156.255  20
  -8   8   2 83.5437 126.173  16
  -8   8   1 2141.53 560.658  10
  -8   8   1 1390.83 432.938  16
  -8   8   0 1046.56 352.350  10
  -8   8   0 1418.22 466.124  16
  -8   8  -1 4836.46 707.785  10
  -8   8  -1 4443.72 735.258  16
  -8   8  -2 467.785 203.903  10
  -8   8  -2 503.362 229.055  16
  -8   8  -3 2659.44 501.808  16
  -8   8  -4 25569.1 1385.34  16
  -8   8  -5 11939.3 858.161  16
  -8   7  10 8031.32 685.703  20
  -8   7  10 6854.11 656.925  29
  -8   7   9 1047.64 268.861  20
  -8   7   9 1297.21 316.738  29
  -8   7   8 6339.95 867.218   9
  -8   7   8 5235.05 668.644  29
  -8   7   7 68.5622 78.7539   9
  -8   7   7 234.979 156.185  29
  -8   7   6 11000.7 1053.49  10
  -8   7   6 13067.7 1283.04   9
  -8   7   6 13424.7 1073.27  20
  -8   7   6 11544.9 1024.31  29
  -8   7   5 17338.7 1460.76  10
  -8   7   5 20601.6 1630.15   9
  -8   7   5 19964.3 1328.64  20
  -8   7   5 18084.0 1276.59  29
  -8   7   4 338.004 136.592   9
  -8   7   4-60.7635 192.808  10
  -8   7   4 313.047 129.146  20
  -8   7   3 22579.9 2108.52  10
  -8   7   3 19873.5 1587.29   9
  -8   7   3 20296.4 1328.33  20
  -8   7   2 40770.3 1823.43  20
  -8   7   2 34772.7 2240.70  16
  -8   7   1 9404.82 1421.96  16
  -8   7   1 11060.4 1683.45  10
  -8   7   0 2841.72 935.656  16
  -8   7   0 3334.95 771.205  10
  -8   7  -1 18812.9 1855.13  16
  -8   7  -1 19350.9 1639.89  10
  -8   7  -2 3296.36 669.418  16
  -8   7  -2 4116.46 702.683  10
  -8   7  -3 463.979 257.403  16
  -8   7  -3 526.703 222.935  10
  -8   7  -4 3223.47 630.045  16
  -8   7  -5 348.081 181.381  16
  -8   7  -6 3998.96 536.297  16
  -8   6  11 5751.57 604.176  29
  -8   6  10 1262.72 319.600  29
  -8   6   9 32251.0 1717.26  29
  -8   6   8 22308.4 1496.52  29
  -8   6   7 113.170 157.365  29
  -8   6   6 8829.40 992.050  10
  -8   6   6 8851.75 994.510  29
  -8   6   5 27557.4 1908.17  10
  -8   6   5 28315.9 2129.35   9
  -8   6   5 27708.7 1744.16  29
  -8   6   4 148.330 125.810  10
  -8   6   4-15.8751 94.5599   9
  -8   6   4 207.003 126.311  29
  -8   6   3 118.592 244.038  10
  -8   6   3 513.330 283.505   9
  -8   6   2 127.858 114.107  20
  -8   6   2-206.162 446.301  10
  -8   6   2-35.5940 197.660   9
  -8   6   2 62.0146 156.161  16
  -8   6   1 12140.1 1811.78  10
  -8   6   1 10090.3 1222.10   9
  -8   6   1 10041.4 1365.95  16
  -8   6   0 20839.9 2117.60  10
  -8   6   0 19010.0 1646.81   9
  -8   6   0 17936.3 2228.83  16
  -8   6  -1 1331.24 479.731  10
  -8   6  -1 1316.22 606.817  16
  -8   6  -2 13080.8 1390.26  10
  -8   6  -2 11239.5 1429.15  16
  -8   6  -3 46111.3 2355.93  10
  -8   6  -3 41495.3 2563.95  16
  -8   6  -4 12264.7 1111.18  10
  -8   6  -4 12548.1 1280.49  16
  -8   6  -5 3143.43 614.010  16
  -8   6  -6 31846.0 1732.21  16
  -8   6  -7 8278.64 791.129  16
  -8   6  -8 52.1918 73.4866  16
  -8   5  11 291.074 177.166  17
  -8   5  11 216.591 149.492  29
  -8   5  10 183.997 188.110  17
  -8   5  10 226.266 176.141  29
  -8   5   9-183.128 199.174  17
  -8   5   9 256.317 176.296  29
  -8   5   8 5474.74 919.953  17
  -8   5   8 6269.00 855.934  29
  -8   5   7 36212.9 2609.21  17
  -8   5   7 33212.2 2014.84  29
  -8   5   6 3963.82 929.310  17
  -8   5   6 3492.65 632.268  10
  -8   5   6 3308.25 648.554  29
  -8   5   5 4801.84 798.177  10
  -8   5   5 4902.36 787.247  29
  -8   5   4 72408.6 3310.00  10
  -8   5   4 82786.6 4101.85   8
  -8   5   4 78468.0 3077.86  29
  -8   5   3 30162.9 2266.39  10
  -8   5   3 29074.2 2289.82   9
  -8   5   3 30642.0 2478.16   8
  -8   5   3 27441.9 1804.63  29
  -8   5   2-150.846 313.469  10
  -8   5   2-28.0538 199.158   9
  -8   5   2 121.948 156.136   8
  -8   5   2-258.337 231.542  16
  -8   5   1 8781.58 1378.41  10
  -8   5   1 8083.04 1173.31   9
  -8   5   1 9120.47 1341.48   8
  -8   5   1 6349.14 1039.55  16
  -8   5   0 19072.5 2004.70  10
  -8   5   0 17927.3 1720.12   9
  -8   5   0 18035.4 1922.34   8
  -8   5   0 17024.3 1799.64  16
  -8   5  -1 281.161 170.031  10
  -8   5  -1 397.585 286.891   9
  -8   5  -1 731.335 446.204   8
  -8   5  -1 443.537 354.412  16
  -8   5  -2 3540.56 745.217  10
  -8   5  -2 4020.40 922.055   8
  -8   5  -2 3890.31 894.284  16
  -8   5  -3 510.666 234.296  10
  -8   5  -3 476.742 351.340  16
  -8   5  -4 9981.07 1099.06  10
  -8   5  -4 10362.0 1234.80  16
  -8   5  -5 5171.80 836.673  16
  -8   5  -6 354.343 188.542  16
  -8   5  -7 17742.5 1333.48  16
  -8   5  -8 21906.3 1302.45  16
  -8   5  -9 2115.38 342.541  16
  -8   4  12 453.322 209.338  17
  -8   4  11 11291.1 1138.01  17
  -8   4  11 12611.8 1033.67  29
  -8   4  10 33860.2 2165.89  17
  -8   4  10 35549.0 1909.95  29
  -8   4   9 4440.80 895.090  17
  -8   4   9 5556.59 808.619  29
  -8   4   8 924.609 448.184  17
  -8   4   8 707.248 287.121  29
  -8   4   7 12145.9 1735.85  17
  -8   4   6 4755.24 749.438  10
  -8   4   6 5082.87 966.612   8
  -8   4   6 6897.95 1345.05  17
  -8   4   5 17710.3 1530.54  10
  -8   4   5 17120.8 1751.30   8
  -8   4   5 21180.0 2349.24  17
  -8   4   4 4616.72 822.948  10
  -8   4   4 4182.97 855.096   8
  -8   4   4 5895.08 1244.93  17
  -8   4   3 6336.95 1010.20  10
  -8   4   3 6452.09 1066.81   8
  -8   4   2 21473.3 1934.20  10
  -8   4   2 19132.6 1915.04   9
  -8   4   2 20096.6 1853.09   8
  -8   4   1 2978.99 710.841  10
  -8   4   1 2720.09 729.358   9
  -8   4   1 2627.01 695.731   8
  -8   4   1 2096.49 554.067  16
  -8   4   0 903.483 360.157  10
  -8   4   0 1576.87 548.856   9
  -8   4   0 1374.84 497.587   8
  -8   4   0 1183.49 483.517  16
  -8   4  -1 44999.6 2826.34  10
  -8   4  -1 41351.1 2721.25   9
  -8   4  -1 39823.4 2642.51   8
  -8   4  -1 41118.4 2698.72  16
  -8   4  -2 10571.1 1318.23  10
  -8   4  -2 10847.0 1366.01   9
  -8   4  -2 11913.5 1429.95   8
  -8   4  -2 10295.5 1399.65  16
  -8   4  -3 11.6877 213.310  10
  -8   4  -3 85.4369 122.738   8
  -8   4  -3 144.971 244.982  16
  -8   4  -4 27112.7 1879.09  10
  -8   4  -4 28842.5 2241.42   8
  -8   4  -4 26861.2 2084.39  16
  -8   4  -5 7455.53 1089.04  11
  -8   4  -5 5907.62 817.429  10
  -8   4  -5 6921.50 1032.11  16
  -8   4  -6 81.1601 195.391  11
  -8   4  -6 85.1477 141.800  16
  -8   4  -7 2608.31 579.403  11
  -8   4  -7 2173.28 536.265  16
  -8   4  -8 5052.07 780.312  11
  -8   4  -8 5072.97 703.776  16
  -8   4  -9 2794.48 537.859  11
  -8   4  -9 2647.48 439.067  16
  -8   4 -10 5284.77 673.240  11
  -8   3  12 3304.50 610.346  17
  -8   3  12 3352.43 479.373  29
   8  -3 -12 2356.68 410.187  23
  -8   3  11 189.535 193.513  17
  -8   3  11 213.814 154.837  29
  -8   3  10 6129.67 1029.43  17
  -8   3  10 5825.47 799.706  29
  -8   3   9 39079.0 2876.94  17
  -8   3   8 28887.3 2762.37  17
  -8   3   7 511.816 487.671  17
  -8   3   6 14004.8 1291.76  10
  -8   3   6 15169.6 1532.87   8
  -8   3   6 18828.7 2289.54  17
  -8   3   5 27963.6 2105.46   8
  -8   3   5 28193.4 1928.88  10
  -8   3   4 4600.77 818.136  10
  -8   3   4 3863.01 787.899   8
  -8   3   4 4974.84 1154.25  17
  -8   3   3 1655.47 506.692  10
  -8   3   3 1407.78 474.537   8
  -8   3   3 1909.03 792.162  17
  -8   3   2 9377.26 1251.02  10
  -8   3   2 8677.33 1323.46   9
  -8   3   2 10651.5 1307.66   8
  -8   3   2 12446.5 1743.78  17
  -8   3   1 2270.04 563.343  16
  -8   3   1 2290.92 650.017  10
  -8   3   1 2499.26 679.741   9
  -8   3   1 2237.92 594.735   8
  -8   3   0-57.7260 188.638  16
  -8   3   0 164.547 174.952  10
  -8   3   0 127.392 214.387   9
  -8   3   0 35.3188 120.625   8
  -8   3  -1 5858.14 976.161  16
  -8   3  -1 6360.89 1038.84  10
  -8   3  -1 5519.58 1025.64   9
  -8   3  -1 5786.73 953.961   8
  -8   3  -2 13726.3 1504.05  16
  -8   3  -2 15584.0 1585.86  10
  -8   3  -2 14964.2 1663.29   9
  -8   3  -2 13489.6 1470.10   8
  -8   3  -3 28478.0 2169.14  16
  -8   3  -3 26851.7 2029.70  10
  -8   3  -3 28531.7 2304.09   9
  -8   3  -3 28303.0 2095.79   8
  -8   3  -4 828.824 393.110  11
  -8   3  -4 861.802 410.810  16
  -8   3  -4 438.774 276.098  10
  -8   3  -4 370.714 271.853   8
  -8   3  -5 7569.91 1127.05  11
  -8   3  -5 6582.84 1010.22  16
  -8   3  -5 6850.34 920.963  10
  -8   3  -5 7581.90 1075.44   8
  -8   3  -6 42097.1 2589.06  11
  -8   3  -6 36119.0 2151.10  14
  -8   3  -6 38984.8 2343.71  16
  -8   3  -7 7378.24 1075.77  11
  -8   3  -7 6646.59 880.958  14
  -8   3  -7 6920.73 946.490  16
  -8   3  -8 505.891 335.639  11
  -8   3  -8 439.804 253.074  14
  -8   3  -8 66.9681 109.488  16
  -8   3  -9 32207.9 2040.84  11
  -8   3  -9 34064.5 1766.02  16
  -8   3 -10 9602.00 1025.73  11
  -8   3 -10 9020.32 804.686  16
  -8   3 -11 2426.30 467.502  11
  -8   2  12 9088.51 1022.55  17
  -8   2  12 8340.76 772.677  29
  -8   2  11 8131.21 1157.58  17
  -8   2  11 8365.34 895.745  29
  -8   2  10 2593.49 675.854  17
  -8   2   9 4428.70 1100.21  17
  -8   2   8 446.186 401.958  17
  -8   2   7 13397.9 2002.85  17
  -8   2   6 2288.78 519.081  10
  -8   2   6 2092.98 885.762  17
  -8   2   5 5586.45 850.310  10
  -8   2   5 5967.56 931.616   8
  -8   2   5 6182.79 1467.53  17
  -8   2   4 36411.5 2261.32  10
  -8   2   4 33697.7 2261.01   8
  -8   2   3 31366.0 2143.62  10
  -8   2   3 29958.2 2156.69   8
  -8   2   2 4370.32 816.890  10
  -8   2   2 4620.04 837.565   8
  -8   2   2 5912.36 1251.87  17
  -8   2   1 38221.7 2210.66  16
  -8   2   1 46051.3 2746.71  10
  -8   2   1 45781.3 3061.50   9
  -8   2   1 42408.1 2545.17   8
  -8   2   0 62236.9 2926.42  16
  -8   2   0 68731.6 3321.45  10
  -8   2   0 65632.2 3635.92   9
  -8   2   0 67047.5 3166.39   8
  -8   2   0 62892.1 3784.85  17
  -8   2  -1 1707.44 516.057  16
  -8   2  -1 1560.19 529.032  10
  -8   2  -1 1726.52 532.524   9
  -8   2  -1 1260.80 431.693   8
  -8   2  -2 26050.0 2007.98  16
  -8   2  -2 26822.0 2052.63  10
  -8   2  -2 26534.2 2276.86   9
  -8   2  -2 23829.0 1905.69   8
  -8   2  -3 12751.1 1446.95  11
  -8   2  -3 12440.2 1405.49  16
  -8   2  -3 12102.7 1355.26  10
  -8   2  -3 12321.9 1545.26   9
  -8   2  -3 11237.7 1304.09   8
  -8   2  -4 307.619 291.615  11
  -8   2  -4-10.7724 218.398  14
  -8   2  -4 88.7774 191.071  16
  -8   2  -4 406.707 263.527  10
  -8   2  -4 252.764 239.828   8
  -8   2  -5 1395.20 546.701  11
  -8   2  -5 1410.29 492.141  16
  -8   2  -5 1566.66 486.565  14
  -8   2  -5 1524.51 451.366  10
  -8   2  -5 1329.51 448.584   8
  -8   2  -6 232.114 161.667  16
  -8   2  -6-39.3450 166.283  14
  -8   2  -6 268.704 318.747  11
  -8   2  -7 1186.70 442.095  16
  -8   2  -7 1521.65 446.028  14
  -8   2  -7 1781.81 569.194  11
  -8   2  -8 2751.45 585.483  14
  -8   2  -8 3545.89 664.743  16
  -8   2  -8 3237.61 701.632  11
  -8   2  -9 348.977 218.472  16
  -8   2  -9 156.780 151.395  14
  -8   2  -9 289.397 173.000  11
  -8   2 -10 13664.6 1084.42  16
  -8   2 -10 13347.5 1127.36  14
  -8   2 -10 13119.7 1324.81  11
  -8   2 -11 16488.7 1145.53  14
  -8   2 -11 15211.6 1295.11  11
  -8   2 -12 1933.52 444.066  11
  -8   1  12 2100.80 504.966  17
  -8   1  11 15988.4 1617.67  17
  -8   1  11 14267.1 1167.04  29
  -8   1  10 42415.6 2990.62  17
  -8   1   9-4.30424 316.619  17
  -8   1   8 9393.15 1916.19  17
  -8   1   7 24894.6 2836.00  17
  -8   1   6 6489.23 1478.29  17
  -8   1   6 4896.32 800.163  22
  -8   1   5 386.817 545.689  17
  -8   1   5 726.311 357.540  10
  -8   1   5 577.060 298.056   8
  -8   1   5 407.601 244.034  22
  -8   1   4 320.361 471.860  17
  -8   1   4 406.805 218.596  10
  -8   1   4 442.101 185.285  22
  -8   1   3 930.035 366.192  10
  -8   1   3 380.818 239.062  22
  -8   1   2 14431.3 1912.53  17
  -8   1   2 11121.2 1281.22  10
  -8   1   2 10326.1 1139.08  22
  -8   1   1 70.3585 309.490   9
  -8   1   1 637.768 310.543  10
  -8   1   1 748.878 450.396  17
  -8   1   0 10150.6 1167.18  16
  -8   1   0 10968.6 1315.15  10
  -8   1   0 9606.98 1401.65   9
  -8   1   0 10507.1 1680.09  17
  -8   1  -1 48384.2 2623.45  16
  -8   1  -1 53539.9 2886.98  10
  -8   1  -1 51659.3 3232.81   9
  -8   1  -1 60042.5 3534.66  17
  -8   1  -2 3488.65 860.188  17
  -8   1  -2 4700.53 848.181  16
  -8   1  -2 5181.38 885.202  10
  -8   1  -2 5185.91 1008.95   9
  -8   1  -3 4663.13 800.858  14
  -8   1  -3 4961.22 893.223  16
  -8   1  -3 4826.37 856.939  10
  -8   1  -3 5057.76 1014.79   9
  -8   1  -3 5083.15 900.484  11
  -8   1  -4 39820.4 2307.20  14
  -8   1  -4 39506.4 2443.79  16
  -8   1  -4 41334.8 2907.98   9
  -8   1  -4 38134.3 2326.28  10
  -8   1  -4 36982.6 2452.02  11
  -8   1  -5 50891.6 2874.28  16
  -8   1  -5 54017.7 2724.68  14
  -8   1  -5 51815.7 2616.19  10
  -8   1  -5 47364.1 2559.39   8
  -8   1  -5 47223.7 2836.20  11
  -8   1  -6 2166.89 584.981  16
  -8   1  -6 2253.44 578.668  14
  -8   1  -6 1835.97 462.632  10
  -8   1  -6 1888.88 526.823   8
  -8   1  -6 2414.69 677.715  11
  -8   1  -7 14372.0 1410.40  16
  -8   1  -7 15040.1 1433.35  14
  -8   1  -7 14423.9 1670.50  11
  -8   1  -8 25672.2 1800.56  16
  -8   1  -8 24634.3 1782.80  14
  -8   1  -8 25150.2 2263.42  11
  -8   1  -9 2712.58 563.564  16
  -8   1  -9 2253.60 511.639  14
  -8   1  -9 2651.82 728.274  11
  -8   1 -10 854.701 297.794  16
  -8   1 -10 1383.44 425.122  14
  -8   1 -10 956.316 402.160  11
  -8   1 -11 285.673 173.596  14
  -8   1 -11 302.671 186.061  11
  -8   1 -12 768.689 244.596  14
  -8   1 -12 578.189 258.311  11
  -8   1 -13-12.2236 90.6951  11
  -8   0  12 147.618 163.064  17
  -8   0  11 1093.06 413.976  17
  -8   0  10 152.950 180.154  15
  -8   0  10 553.153 415.942  17
  -8   0   9 14367.6 2116.36  17
  -8   0   8 17060.3 1456.78  22
  -8   0   8 20013.2 2504.14  17
  -8   0   7 7758.68 1024.65  22
  -8   0   7 7686.19 1586.88  17
  -8   0   6 37954.4 2274.08  22
  -8   0   6 39263.1 3522.17  17
  -8   0   5 59407.4 4288.26  17
  -8   0   5 50107.7 2630.76  22
  -8   0   4-124.907 154.795  15
  -8   0   4-62.0150 175.646  22
  -8   0   4-14.0071 260.271  17
  -8   0   4 362.395 271.058  10
  -8   0   3 26529.9 1871.37  22
  -8   0   3 29987.2 2820.40  17
  -8   0   3 27418.6 1969.57  10
  -8   0   3 29292.2 2033.07  24
  -8   0   2 89466.7 3406.01  22
  -8   0   2 97368.2 3608.55  24
  -8   0   2 91816.0 4821.68  17
  -8   0   2 88146.3 3592.61  10
  -8   0   1 2332.48 530.470  22
  -8   0   1 2785.61 676.670  10
  -8   0   1 1647.34 531.642   9
  -8   0   1 2874.55 836.655  17
  -8   0   1 2608.75 620.632  24
  -8   0   0 5102.25 802.074  24
  -8   0   0 4633.05 1047.62  17
  -8   0   0 4038.30 722.454  16
  -8   0   0 4920.19 873.552  10
  -8   0   0 4285.19 896.111   9
  -8   0   0 4568.10 724.463  22
  -8   0  -1 19101.9 1692.19  10
  -8   0  -1 18242.7 1923.26   9
  -8   0  -1 19829.0 1559.36  24
  -8   0  -1 22379.1 2158.60  17
  -8   0  -1 16013.8 1479.85  16
  -8   0  -1 21229.4 1548.98  22
  -8   0  -2 9867.10 1212.29  10
  -8   0  -2 9272.73 1388.94   9
  -8   0  -2 8240.91 1017.19  24
  -8   0  -2 10306.6 1485.60  17
  -8   0  -2 8597.90 1039.01  14
  -8   0  -2 7763.45 1088.58  16
  -8   0  -3 26078.3 1936.20  10
  -8   0  -3 24478.8 2232.19   9
  -8   0  -3 24894.6 1912.08  11
  -8   0  -3 25726.2 1696.76  24
  -8   0  -3 31421.7 2532.67  17
  -8   0  -3 24842.7 1824.01  14
  -8   0  -3 24749.7 1909.41  16
  -8   0  -4 1763.27 633.671  17
  -8   0  -4 1296.06 484.745  16
  -8   0  -4 1377.79 424.109  14
  -8   0  -4 1847.22 542.545  10
  -8   0  -4 2113.22 704.237   9
  -8   0  -4 1932.15 559.402  11
  -8   0  -5 4561.27 965.932  17
  -8   0  -5 3910.44 783.367  16
  -8   0  -5 3965.45 757.390  14
  -8   0  -5 4085.08 760.823  10
  -8   0  -5 3084.64 765.562  11
  -8   0  -6 33358.2 2176.66  14
  -8   0  -6 35109.6 2247.97  16
  -8   0  -6 31023.5 2341.39  11
  -8   0  -7 2116.81 548.665  16
  -8   0  -7 1641.42 492.789  14
  -8   0  -7 2207.70 664.713  11
  -8   0  -8 14051.2 1408.78  14
  -8   0  -8 13527.3 1334.43  16
  -8   0  -8 12507.5 1700.57  11
  -8   0  -9 57162.6 2749.98  14
  -8   0  -9 53783.2 2523.45  16
  -8   0  -9 54871.9 3717.79  11
  -8   0 -10 20200.3 1544.91  14
  -8   0 -10 18860.4 1398.32  16
  -8   0 -10 19901.6 2108.29  11
  -8   0 -11 225.718 241.019  16
  -8   0 -11 50.2798 120.459  14
  -8   0 -11-42.6713 212.971  11
  -8   0 -12 12812.1 1074.60  14
  -8   0 -12 9873.92 1118.79  11
  -8   0 -13 18720.6 1149.35  14
  -8   0 -13 11339.9 1058.54  11
  -8  -1  12 23063.6 1565.62  17
  -8  -1  11 24015.3 1916.89  17
  -8  -1  10 8371.86 1319.98  17
  -8  -1   9 59885.9 2615.68  22
  -8  -1   9 75946.0 4564.86  17
  -8  -1   8 31371.4 1990.22  22
  -8  -1   8 31330.1 3191.85  17
  -8  -1   7 657.629 258.983  22
  -8  -1   7 876.213 648.083  17
  -8  -1   6 14938.1 1436.50  22
  -8  -1   6 8788.36 2009.28  17
  -8  -1   5 15175.8 1452.33  24
  -8  -1   5 15056.8 1452.75  22
  -8  -1   5 11894.7 2198.12  17
  -8  -1   4 2823.40 626.381  22
  -8  -1   4 1339.71 1073.59  17
  -8  -1   4 3359.17 686.629  24
  -8  -1   3 9273.63 1124.48  22
  -8  -1   3 10466.0 1200.40  24
  -8  -1   3 11275.8 1778.12  17
  -8  -1   2 76.0317 152.970  22
  -8  -1   2-86.7836 288.457  17
  -8  -1   2 203.896 295.078  10
  -8  -1   2 99.1602 116.570  24
  -8  -1   1 45984.0 3350.30  17
  -8  -1   1 43608.3 2486.47  10
  -8  -1   1 39233.1 2833.67   9
  -8  -1   1 37895.6 2278.44  24
  -8  -1   1 40263.8 2239.10  22
  -8  -1   0 36547.1 2064.62  16
  -8  -1   0 37799.2 2225.15  24
  -8  -1   0 39208.9 2160.04  22
  -8  -1   0 43185.9 3088.95  17
  -8  -1   0 40636.5 2407.58  10
  -8  -1   0 40015.1 2851.76   9
  -8  -1  -1 3043.82 568.224  22
  -8  -1  -1 3039.67 617.831  16
  -8  -1  -1 3873.99 948.895  17
  -8  -1  -1 3751.68 763.054  10
  -8  -1  -1 3043.87 797.212   9
  -8  -1  -1 3439.18 666.779  24
  -8  -1  -2 29997.5 1942.42  14
  -8  -1  -2 35317.4 2146.54  16
  -8  -1  -2 37788.5 2324.18  10
  -8  -1  -2 36605.3 2696.85   9
  -8  -1  -2 35650.4 2073.14  24
  -8  -1  -3 96936.4 3624.31  16
  -8  -1  -3 88808.3 3392.18  14
  -8  -1  -3 97222.8 3346.90  24
  -8  -1  -3 105946. 3867.80  10
  -8  -1  -3 94974.7 4405.35   9
  -8  -1  -4 4622.86 810.294  16
  -8  -1  -4 5707.00 1167.79  17
  -8  -1  -4 4560.94 791.860  14
  -8  -1  -4 4953.31 852.055  10
  -8  -1  -4 4287.77 946.699   9
  -8  -1  -4 4433.03 782.767  11
  -8  -1  -5 12766.4 1791.04  17
  -8  -1  -5 13867.0 1408.22  14
  -8  -1  -5 13952.1 1416.58  16
  -8  -1  -5 12586.0 1377.03  11
  -8  -1  -6 53018.0 3653.46  17
  -8  -1  -6 63424.8 3019.54  14
  -8  -1  -6 62724.6 2991.90  16
  -8  -1  -6 52859.3 2962.60  11
  -8  -1  -7 15280.3 1915.29  17
  -8  -1  -7 20818.4 1745.38  14
  -8  -1  -7 20225.5 1691.71  16
  -8  -1  -7 16200.0 1753.81  11
  -8  -1  -8 4313.23 831.926  14
  -8  -1  -8 5028.59 822.271  16
  -8  -1  -8 3136.05 896.240  11
  -8  -1  -9 3752.99 680.504  16
  -8  -1  -9 3024.44 698.608  14
  -8  -1  -9 3281.73 1225.05  11
  -8  -1 -10 1416.52 397.563  16
  -8  -1 -10 1540.58 473.418  14
  -8  -1 -10 1244.60 784.539  11
  -8  -1 -11 28134.8 1821.25  14
  -8  -1 -11 25379.7 1565.54  16
  -8  -1 -12 4804.08 710.322  14
  -8  -1 -12 2340.39 707.279  11
  -8  -1 -13 3941.94 580.036  14
  -8  -1 -13 2094.80 465.248  11
  -8  -1 -14 31011.3 1408.68  14
  -8  -2  12 49.6729 134.301  15
  -8  -2  11 1719.47 453.757  17
  -8  -2  10 12339.6 1075.91  22
  -8  -2  10 15375.1 1680.74  17
  -8  -2   9 110.141 101.958  22
  -8  -2   9 431.672 231.252  17
  -8  -2   8 23681.8 1734.88  22
  -8  -2   8 26985.9 2991.03  17
  -8  -2   7 59079.0 2853.23  22
  -8  -2   7 34713.3 3777.88  17
  -8  -2   6 31754.5 2062.08  24
  -8  -2   6 33073.1 2166.23  22
  -8  -2   6 33245.5 3474.58  17
  -8  -2   5 10534.5 1244.35  24
  -8  -2   5 12585.2 1342.46  22
  -8  -2   4 68836.8 3100.41  24
  -8  -2   4 70563.8 4855.37  17
  -8  -2   4 69232.0 3126.39  22
  -8  -2   3 35875.1 2240.76  22
  -8  -2   3 37413.7 2298.13  24
  -8  -2   2 50.4438 119.374  22
  -8  -2   2 305.810 421.564  17
  -8  -2   2-70.7807 332.246   9
  -8  -2   2 124.754 126.684  24
  -8  -2   1 8057.10 1499.18  17
  -8  -2   1 7222.89 1213.21   9
  -8  -2   1 7809.46 1008.63  22
  -8  -2   1 7330.86 1032.13  24
  -8  -2   0 18087.8 1425.20  16
  -8  -2   0 22275.3 1711.04  24
  -8  -2   0 20894.8 1589.48  22
  -8  -2   0 23409.1 2322.48  17
  -8  -2   0 22085.0 2088.11   9
  -8  -2  -1 2101.62 483.804  22
  -8  -2  -1 2189.04 729.836  17
  -8  -2  -1 1947.09 512.304  16
  -8  -2  -1 2548.17 695.213   9
  -8  -2  -1 2206.36 539.817  24
  -8  -2  -2 3623.21 897.958  17
  -8  -2  -2 2390.53 536.601  16
  -8  -2  -2 2447.75 552.729  14
  -8  -2  -2 2844.14 755.872   9
  -8  -2  -2 3176.77 613.927  24
  -8  -2  -3 67.1860 151.668  16
  -8  -2  -3 112.552 281.440  17
  -8  -2  -3 144.024 189.415  14
  -8  -2  -3 314.835 226.272   9
  -8  -2  -3 303.208 221.427  24
  -8  -2  -4 24893.6 1796.68  14
  -8  -2  -4 27656.3 1938.93  16
  -8  -2  -4 29917.3 2853.77  17
  -8  -2  -4 25488.1 1716.24  24
  -8  -2  -5 28348.2 2866.16  17
  -8  -2  -5 28454.4 1977.02  14
  -8  -2  -5 29882.4 2031.41  16
  -8  -2  -6-216.270 421.387  17
  -8  -2  -6 3.90855 240.064  16
  -8  -2  -6 228.623 244.021  14
  -8  -2  -7 17496.1 2282.71  17
  -8  -2  -7 19689.9 1738.52  14
  -8  -2  -7 22106.2 1759.12  16
  -8  -2  -8 40033.2 2478.79  14
  -8  -2  -8 38149.7 2276.75  16
  -8  -2  -8 33781.9 2530.27  11
  -8  -2  -9 1981.47 475.385  16
  -8  -2  -9 884.624 483.027  17
  -8  -2  -9 1905.00 574.647  14
  -8  -2  -9 1694.04 669.613  11
  -8  -2 -10 3044.08 586.934  16
  -8  -2 -10 2687.03 629.967  14
  -8  -2 -10 2257.98 816.547  11
  -8  -2 -11 32195.4 2039.50  14
  -8  -2 -11 30337.6 1756.63  16
  -8  -2 -12 702.070 290.506  14
  -8  -2 -12 673.162 399.455  11
  -8  -2 -13 1556.93 390.803  14
  -8  -2 -13 517.861 303.146  11
  -8  -2 -14 3482.69 523.175  14
  -8  -3  10 14041.1 1131.46  22
  -8  -3  10 14333.1 1532.42  17
  -8  -3   9 10495.2 1070.45  22
  -8  -3   9 14654.2 1854.55  17
  -8  -3   8 9109.30 1071.85  22
  -8  -3   8 8279.28 1635.19  17
  -8  -3   7 538.868 270.631  22
  -8  -3   7-19.6475 417.272  17
  -8  -3   6 2966.66 679.196  22
  -8  -3   6 2701.15 589.378  24
  -8  -3   6 1575.79 966.430  17
  -8  -3   5 17604.4 1563.41  24
  -8  -3   5 19583.1 1720.21  22
  -8  -3   4 50.0750 97.6739  22
  -8  -3   4 346.132 452.050  17
  -8  -3   4 193.723 95.7951  28
  -8  -3   4 178.232 161.735  24
  -8  -3   3 31714.3 2182.67  28
  -8  -3   3 31204.5 2488.31   9
  -8  -3   3 29738.5 2043.61  24
  -8  -3   3 28939.3 2056.47  22
  -8  -3   2 59027.1 2879.16  28
  -8  -3   2 63539.0 4044.26  17
  -8  -3   2 60886.9 3446.20   9
  -8  -3   2 60704.9 2937.29  24
  -8  -3   2 57160.3 2854.75  22
  -8  -3   1 17306.2 2039.02  17
  -8  -3   1 16992.4 1813.88   9
  -8  -3   1 18539.0 1636.18  24
  -8  -3   1 16810.4 1502.44  22
  -8  -3   0 32283.0 2511.46   9
  -8  -3   0 27283.4 2019.07  24
  -8  -3   0 29689.1 1944.08  22
  -8  -3  -1 31623.9 1923.13  16
  -8  -3  -1 36209.6 2645.19   9
  -8  -3  -1 31661.2 2079.27  24
  -8  -3  -1 33531.1 1986.74  22
  -8  -3  -1 32817.9 2301.15  23
  -8  -3  -2 36011.3 2110.14  16
  -8  -3  -2 39734.3 2790.34   9
  -8  -3  -2 33768.9 2126.64  24
  -8  -3  -3 5044.26 812.042  16
  -8  -3  -3 4473.05 745.339  14
  -8  -3  -3 5127.54 1387.68  17
  -8  -3  -3 7104.31 1195.81   9
  -8  -3  -3 5242.48 840.731  24
  -8  -3  -4 12914.2 1335.13  24
  -8  -3  -4 14967.6 1370.43  14
  -8  -3  -4 17055.7 1508.74  16
  -8  -3  -4 17550.7 2407.84  17
  -8  -3  -5 7428.68 971.520  24
  -8  -3  -5 8423.52 1800.29  17
  -8  -3  -5 9506.08 1171.25  14
  -8  -3  -5 9238.41 1104.46  16
  -8  -3  -6 2803.13 600.031  16
  -8  -3  -6 943.641 949.075  17
  -8  -3  -6 2507.87 628.697  14
  -8  -3  -7 5337.22 1447.40  17
  -8  -3  -7 5866.61 993.153  14
  -8  -3  -7 6201.32 910.125  16
  -8  -3  -8 810.859 391.906  16
  -8  -3  -8-50.6728 333.348  17
  -8  -3  -8 303.652 197.658  14
  -8  -3  -9 14112.8 1342.36  16
  -8  -3  -9 14577.1 1544.55  14
  -8  -3 -10 8130.59 986.790  16
  -8  -3 -10 9205.98 1208.85  14
  -8  -3 -11 1877.82 442.782  16
  -8  -3 -11 2591.96 618.063  14
  -8  -3 -12 21873.4 1409.80  16
  -8  -3 -12 26069.8 1771.81  14
  -8  -3 -13 28493.5 1708.94  14
  -8  -3 -14 1399.66 367.042  14
  -8  -4  10 9052.63 871.598  22
  -8  -4   9 24632.6 1618.48  22
  -8  -4   8 18449.5 1504.43  22
  -8  -4   8 24778.9 2520.45  17
  -8  -4   7 780.552 551.331  17
  -8  -4   7 894.306 392.596  22
  -8  -4   6 11583.1 1419.49  28
  -8  -4   6 9945.54 1122.78  24
  -8  -4   6 10643.5 1279.19  22
  -8  -4   5 16697.4 1701.88  28
  -8  -4   5 11559.1 2524.94  17
  -8  -4   5 15135.5 1420.12  24
  -8  -4   5 16817.7 1633.14  22
  -8  -4   4 458.038 232.801  22
  -8  -4   4 469.848 283.396  28
  -8  -4   4 591.593 306.461  24
  -8  -4   4 246.319 420.130  17
  -8  -4   3 4811.08 877.938  28
  -8  -4   3 4069.69 764.985  24
  -8  -4   3 4584.51 854.190  22
  -8  -4   2 1988.41 579.979  22
  -8  -4   2 2503.29 627.400  28
  -8  -4   2 1310.18 461.921  24
  -8  -4   2 2406.28 818.732  17
  -8  -4   1 2445.48 619.801  22
  -8  -4   1 2712.14 609.050  28
  -8  -4   1 2852.34 790.948  17
  -8  -4   1 2686.11 658.116  24
  -8  -4   0 14717.2 1647.13  23
  -8  -4   0 15183.8 1435.03  22
  -8  -4   0 16610.3 2007.44  17
  -8  -4   0 16964.2 1772.11   9
  -8  -4  -1 419.076 216.320  22
  -8  -4  -1 288.865 247.218  16
  -8  -4  -1 209.895 392.133  17
  -8  -4  -1-42.3295 230.010   9
  -8  -4  -1 255.933 228.533  23
  -8  -4  -2 16725.4 1452.92  16
  -8  -4  -2 19616.8 1923.18   9
  -8  -4  -2 17551.5 1459.88  22
  -8  -4  -2 18005.7 1807.20  23
  -8  -4  -3 42470.9 2335.46  16
  -8  -4  -3 52647.9 3971.76  17
  -8  -4  -4 12291.5 1276.07  16
  -8  -4  -4 9816.88 1793.13  17
  -8  -4  -5 27806.9 1945.05  16
  -8  -4  -5 27611.2 3194.12  17
  -8  -4  -6 41816.6 2427.23  14
  -8  -4  -6 51348.2 2652.23  16
  -8  -4  -7 26324.4 1903.48  16
  -8  -4  -7 23453.3 1923.40  14
  -8  -4  -7 19889.5 2913.33  17
  -8  -4  -8 56.5571 158.855  14
  -8  -4  -8 137.949 660.520  17
  -8  -4  -8 142.844 165.775  16
  -8  -4  -9 6344.87 915.936  16
  -8  -4  -9 8012.85 1240.18  14
  -8  -4 -10 11194.2 1179.76  16
  -8  -4 -10 12269.2 1546.10  14
  -8  -4 -11 190.484 188.908  14
  -8  -4 -11-44.4144 224.375  16
  -8  -4 -12 1419.24 415.952  14
  -8  -4 -12 176.431 396.506  17
  -8  -4 -13 867.091 318.166  14
  -8  -4 -13-199.048 249.854  17
  -8  -4 -14 7184.49 787.300  14
  -8  -4 -15 5299.86 610.563  14
  -8  -5   9-6.83340 67.2090  22
  -8  -5   8 1799.47 450.829  22
  -8  -5   7 12767.6 1318.64  22
  -8  -5   7 12940.4 1436.15  28
  -8  -5   6 714.176 372.759  22
  -8  -5   6 471.036 293.353  28
  -8  -5   6 526.669 409.396  17
  -8  -5   5 21879.7 1706.08  24
  -8  -5   5 25288.0 2070.45  22
  -8  -5   5 26520.2 2196.44  28
  -8  -5   4 20840.6 1697.64  24
  -8  -5   4 21866.6 1941.91  22
  -8  -5   4 24040.1 2085.11  28
  -8  -5   3 18159.7 1759.58  24
  -8  -5   3 26384.5 2133.20  22
  -8  -5   3 17611.9 2195.19  17
  -8  -5   3 26577.0 2153.33  28
  -8  -5   2 11135.7 2077.91  19
  -8  -5   2 12186.1 1356.63  24
  -8  -5   2 11989.5 1431.21  22
  -8  -5   2 14194.3 1901.43  17
  -8  -5   2 12359.7 1439.70  28
  -8  -5   1 29334.4 3098.71  19
  -8  -5   1 30342.6 2227.72  22
  -8  -5   1 30792.1 2184.77  28
  -8  -5   1 35656.0 2979.09  17
  -8  -5   0 44160.1 2953.03  23
  -8  -5   0 50049.7 2732.63  22
  -8  -5  -1 991.845 448.333  23
  -8  -5  -1 358.450 516.551  17
  -8  -5  -1 570.121 307.111  16
  -8  -5  -1 945.995 374.431  22
  -8  -5  -2 12861.7 1274.22  22
  -8  -5  -2 12712.4 1284.31  16
  -8  -5  -2 14786.6 2105.72  17
  -8  -5  -3 2991.35 630.214  16
  -8  -5  -3 2371.50 997.006  17
  -8  -5  -3 1764.02 631.033  23
  -8  -5  -4 1589.26 498.411  16
  -8  -5  -4 1109.33 690.077  17
  -8  -5  -4 807.923 398.635  23
  -8  -5  -5 3668.29 734.753  16
  -8  -5  -5 1139.84 1029.09  17
  -8  -5  -5 3313.11 781.941  23
  -8  -5  -6 6571.32 911.645  14
  -8  -5  -6 9036.67 1164.96  16
  -8  -5  -7 14213.0 1440.23  16
  -8  -5  -7 11009.7 1294.94  14
  -8  -5  -8 34876.8 2220.47  16
  -8  -5  -8 29948.1 2333.99  14
  -8  -5  -9 1055.41 466.052  14
  -8  -5  -9 1017.08 355.640  16
  -8  -5  -9-103.968 757.160  17
  -8  -5 -10 24601.5 2481.67  14
  -8  -5 -10 21006.3 1634.37  16
  -8  -5 -11 45753.5 2983.26  14
  -8  -5 -11 1414.08 1149.90  17
  -8  -5 -12-614.817 541.337  17
  -8  -5 -12 8176.53 1073.51  14
  -8  -5 -13 2349.56 527.344  14
  -8  -5 -13 223.369 238.850  17
  -8  -5 -14-41.6292 231.948  17
  -8  -5 -14 6476.49 765.851  14
  -8  -5 -15 5715.98 641.968  14
  -8  -6   9 40.1598 98.3815  22
  -8  -6   8 9778.51 1049.76  22
  -8  -6   8 9716.14 1155.74  28
  -8  -6   7 20136.2 1625.88  22
  -8  -6   7 19303.4 1729.94  28
  -8  -6   6 5421.14 914.170  22
  -8  -6   6 6061.62 1006.22  28
  -8  -6   5 860.849 350.732  22
  -8  -6   5 793.687 306.219  24
  -8  -6   5 979.161 434.559  28
  -8  -6   4 658.063 400.642  22
  -8  -6   4 439.402 311.139  24
  -8  -6   4 204.607 361.425  17
  -8  -6   4 771.238 395.875  28
  -8  -6   3 7455.48 1708.58  19
  -8  -6   3 7291.74 1197.76  22
  -8  -6   3 4452.02 823.654  24
  -8  -6   3 5379.17 1422.76  17
  -8  -6   3 7248.80 1176.29  28
  -8  -6   2 7511.41 1843.32  19
  -8  -6   2 9457.62 1332.29  22
  -8  -6   2 9952.29 1688.10  17
  -8  -6   2 8922.71 1312.54  28
  -8  -6   1 3879.18 1112.66  19
  -8  -6   1 2972.86 735.605  22
  -8  -6   1 2904.19 724.986  28
  -8  -6   1 3823.35 895.350  17
  -8  -6   0 62813.4 3867.46  17
  -8  -6   0 53156.4 3038.65  22
  -8  -6   0 59584.8 4436.96  19
  -8  -6  -1 56679.7 2947.88  22
  -8  -6  -1 51566.6 3352.03  23
  -8  -6  -2 11593.3 1277.03  22
  -8  -6  -2 7005.15 1794.34  17
  -8  -6  -3 12166.3 1556.64  23
  -8  -6  -3 11173.1 1296.96  16
  -8  -6  -3 9634.68 2059.90  17
  -8  -6  -4 24091.8 2196.61  23
  -8  -6  -4 26858.9 1974.91  16
  -8  -6  -5 30254.3 2461.11  23
  -8  -6  -5 34196.8 2272.29  16
  -8  -6  -6-92.3040 448.658  17
  -8  -6  -6 1417.22 460.080  16
  -8  -6  -6 1666.40 627.880  23
  -8  -6  -7 4320.22 821.662  16
  -8  -6  -7 5292.12 1086.33  23
  -8  -6  -8 5110.52 923.630  16
  -8  -6  -8 5714.99 957.159  14
  -8  -6  -9 1157.54 884.609  17
  -8  -6  -9 167.224 160.292  14
  -8  -6 -10-1393.73 1721.72  17
  -8  -6 -10 6797.29 1467.96  14
  -8  -6 -11 590.741 695.264  17
  -8  -6 -11 2131.65 820.477  14
  -8  -6 -12 5815.01 966.928  14
  -8  -6 -12 155.666 328.862  17
  -8  -6 -13 178.443 362.671  17
  -8  -6 -13 13937.1 1317.69  14
  -8  -6 -14-5.15571 190.145  17
  -8  -6 -14 4343.88 640.265  14
  -8  -6 -15 11161.0 892.624  14
  -8  -7   9 17694.4 1165.08  22
  -8  -7   8 6305.91 808.475  22
  -8  -7   8 6022.32 864.738  28
  -8  -7   7 10819.1 1158.38  22
  -8  -7   7 11060.8 1271.54  28
  -8  -7   6 66645.6 3119.58  22
  -8  -7   6 65862.4 3363.90  28
  -8  -7   5 35309.6 2417.54  22
  -8  -7   5 39528.7 2629.41  28
  -8  -7   4 269.111 138.979  22
  -8  -7   4 237.127 188.083  24
  -8  -7   4 314.178 133.594  28
  -8  -7   3 18323.8 2708.84  19
  -8  -7   3 17568.3 1600.42  24
  -8  -7   3 17224.2 1875.55  22
  -8  -7   3 16548.2 1878.09  28
  -8  -7   2 10441.0 1950.60  19
  -8  -7   2 10543.6 1496.03  22
  -8  -7   2 10543.7 1508.40  28
  -8  -7   1 5296.68 1436.81  19
  -8  -7   1 3992.67 861.385  22
  -8  -7   1 4818.98 1021.37  28
  -8  -7   1 5014.85 1174.53  17
  -8  -7   0 3613.96 872.318  23
  -8  -7   0 4267.78 1104.08  17
  -8  -7   0 3321.78 830.422  22
  -8  -7   0 4596.81 1231.58  19
  -8  -7  -1 1175.27 791.711  23
  -8  -7  -1 2925.85 893.974  17
  -8  -7  -1 2182.35 588.764  22
  -8  -7  -1 3187.77 978.828  19
  -8  -7  -2 8260.13 1120.41  22
  -8  -7  -2 9766.09 1571.47  17
  -8  -7  -3 544.274 818.664  17
  -8  -7  -3 4162.13 973.311  23
  -8  -7  -4 294.070 270.774  17
  -8  -7  -4 53.9577 208.911  23
  -8  -7  -5 17964.1 1973.67  23
  -8  -7  -5 10902.6 2409.55  17
  -8  -7  -6 33417.0 2765.03  23
  -8  -7  -6 10054.3 2842.31  17
  -8  -7  -7 747.696 424.638  23
  -8  -7  -7-153.414 486.514  17
  -8  -7  -8 13160.1 2009.59  23
  -8  -7  -8 1098.55 1318.08  17
  -8  -7  -9 41548.2 3760.47  23
  -8  -7  -9 1539.72 1159.24  17
  -8  -7 -10 783.908 1406.02  17
  -8  -7 -10 37693.8 2652.36  14
  -8  -7 -11 255.958 397.489  17
  -8  -7 -11 2939.53 764.393  14
  -8  -7 -12 15360.9 1515.97  14
  -8  -7 -12-412.369 490.421  17
  -8  -7 -13 257.803 248.823  17
  -8  -7 -13 11000.4 1130.14  14
  -8  -7 -14-201.199 332.725  17
  -8  -7 -14 232.574 220.360  14
  -8  -8   8 2460.35 454.732  22
  -8  -8   8 2218.74 484.167  28
  -8  -8   7 232.111 156.710  22
  -8  -8   7 187.946 161.226  28
  -8  -8   6 5894.58 892.164  22
  -8  -8   6 7063.02 1021.05  28
  -8  -8   5 1621.77 532.204  22
  -8  -8   5 2242.01 624.173  28
  -8  -8   4 2295.12 609.050  22
  -8  -8   4 2964.85 608.037  24
  -8  -8   4 2548.38 698.461  28
  -8  -8   3 10311.5 2066.61  19
  -8  -8   3 9051.30 1348.13  22
  -8  -8   3 10199.3 1454.05  28
  -8  -8   2 8897.37 1883.82  19
  -8  -8   2 8053.62 1356.22  22
  -8  -8   2 7932.95 1369.65  28
  -8  -8   1 89257.5 5716.89  19
  -8  -8   1 81511.4 4714.28  22
  -8  -8   1 82992.1 4614.68  28
  -8  -8   0 52400.2 3452.06  17
  -8  -8   0 49851.7 3316.12  23
  -8  -8   0 54637.7 3837.89  22
  -8  -8   0 56200.5 4454.98  19
  -8  -8  -1 237.966 335.467  23
  -8  -8  -1 135.600 219.129  17
  -8  -8  -1 351.669 286.116  22
  -8  -8  -1 177.699 308.986  19
  -8  -8  -2 24296.5 2803.14  17
  -8  -8  -2 56223.3 3119.11  22
  -8  -8  -2 65167.8 4798.62  19
  -8  -8  -3 30213.3 2600.49  23
  -8  -8  -3 17295.2 2261.96  17
  -8  -8  -4 139.044 476.958  17
  -8  -8  -4 3147.66 813.189  23
  -8  -8  -5 2757.42 1081.86  17
  -8  -8  -5 10217.0 1475.66  23
  -8  -8  -6 821.741 596.767  17
  -8  -8  -6 6254.89 1187.61  23
  -8  -8  -7-799.904 767.022  17
  -8  -8  -7-50.4015 255.513  23
  -8  -8  -8 416.141 736.281  17
  -8  -8  -8 11684.8 1766.05  23
  -8  -8  -9-2481.26 1073.75  17
  -8  -8  -9 377.479 382.146  23
  -8  -8 -10 281.080 795.416  17
  -8  -8 -10 22494.4 2639.86  23
  -8  -8 -11-116.264 377.583  17
  -8  -8 -12 167.991 492.543  17
  -8  -8 -12 756.176 261.263  14
  -8  -8 -13-146.536 328.726  17
  -8  -8 -13 17649.0 1331.76  14
  -8  -8 -14 502.046 428.854  17
  -8  -8 -14 38053.8 1729.42  14
  -8  -9   8 17660.8 1241.90  28
  -8  -9   7 28908.6 1628.19  22
  -8  -9   7 29687.7 1813.27  28
  -8  -9   6 10731.4 1132.32  22
  -8  -9   6 11778.5 1246.90  28
  -8  -9   5 9649.25 1151.06  22
  -8  -9   5 10199.6 1224.59  28
  -8  -9   4 26318.3 2076.90  22
  -8  -9   4 28571.8 2181.46  28
  -8  -9   3 1800.48 483.043  24
  -8  -9   3 1897.81 627.355  28
  -8  -9   3 1645.00 530.264  22
  -8  -9   3 1902.59 895.551  19
  -8  -9   2 1010.43 480.637  28
  -8  -9   2 353.816 296.762  22
  -8  -9   1 18814.3 2410.74  22
  -8  -9   1 20984.5 2498.00  28
  -8  -9   1 23803.0 2872.07  19
  -8  -9   0 358.231 263.114  23
  -8  -9   0 986.340 567.844  28
  -8  -9   0 6.11354 450.918  22
  -8  -9   0 256.224 363.708  19
  -8  -9  -1 25014.5 2394.82  23
  -8  -9  -1 21671.0 2495.76  22
  -8  -9  -1 28729.8 3165.63  19
  -8  -9  -2 19702.8 2020.42  22
  -8  -9  -2 28991.3 3236.67  19
  -8  -9  -3 7945.90 1372.21  23
  -8  -9  -3 3775.54 1134.82  17
  -8  -9  -3 8371.78 1846.21  19
  -8  -9  -4 1099.07 584.826  17
  -8  -9  -4 17353.6 1920.55  23
  -8  -9  -5 685.679 594.230  17
  -8  -9  -5 26235.9 2365.64  23
  -8  -9  -6-14.2162 303.997  17
  -8  -9  -6 60.8526 268.598  23
  -8  -9  -7 1346.16 761.356  17
  -8  -9  -7 34791.5 2758.49  23
  -8  -9  -8 795.127 848.120  17
  -8  -9  -8 20264.0 2173.38  23
  -8  -9  -9-263.119 410.780  17
  -8  -9  -9 7541.23 1350.75  23
  -8  -9 -10-31.0447 458.743  17
  -8  -9 -10 7036.69 1301.50  23
  -8  -9 -11 414.946 505.390  17
  -8  -9 -11 5534.92 1026.20  23
  -8  -9 -12-337.247 555.893  17
  -8  -9 -13 185.675 189.337  17
  -8  -9 -14 110.991 148.941  17
  -8 -10   6 6574.37 781.280  22
  -8 -10   6 8328.58 957.491  28
  -8 -10   5 9508.51 1049.00  22
  -8 -10   5 12274.8 1242.22  28
  -8 -10   4 283.587 208.801  28
  -8 -10   4 53.1191 155.224  22
  -8 -10   3 22770.8 1904.62  22
  -8 -10   3 20595.8 1808.47  28
  -8 -10   2 46916.4 3051.28  22
  -8 -10   2 44333.5 2869.33  28
  -8 -10   1 5280.30 1087.40  28
  -8 -10   1 7508.04 1533.47  19
  -8 -10   1 4407.78 1041.09  22
  -8 -10   0 25631.6 2957.21  22
  -8 -10   0 33486.2 2626.75  23
  -8 -10   0 29123.6 2906.08  28
  -8 -10   0 35205.9 3389.41  19
  -8 -10  -1 32359.4 3270.44  22
  -8 -10  -1 35647.8 2750.94  23
  -8 -10  -1 39533.5 3635.57  19
  -8 -10  -2 3573.39 1079.35  23
  -8 -10  -2 6941.63 1257.60  22
  -8 -10  -3 2387.08 715.680  23
  -8 -10  -3 2337.41 948.085  19
  -8 -10  -4 10755.2 1501.12  23
  -8 -10  -4 11137.5 2045.28  19
  -8 -10  -5-837.751 464.462  17
  -8 -10  -5 3472.10 842.816  23
  -8 -10  -6 315.164 370.668  17
  -8 -10  -6 8803.99 1349.75  23
  -8 -10  -7 966.625 627.523  17
  -8 -10  -7 24813.2 2243.74  23
  -8 -10  -8-84.2422 354.626  17
  -8 -10  -8 5356.96 1023.03  23
  -8 -10  -9 1276.11 760.568  17
  -8 -10  -9 30748.7 2498.59  23
  -8 -10 -10 315.824 417.026  17
  -8 -10 -10 24577.1 2189.41  23
  -8 -10 -11 105.611 226.462  17
  -8 -10 -11 2933.97 687.301  23
  -8 -10 -12 272.216 309.829  17
  -8 -10 -12 26792.7 1864.24  23
  -8 -10 -13 453.416 404.257  17
  -8 -11   5 4186.37 610.560  22
  -8 -11   5 5521.32 746.165  28
  -8 -11   4 251.283 240.537  28
  -8 -11   4-114.581 217.944  22
  -8 -11   3 2015.99 500.219  28
  -8 -11   3 1582.31 473.842  22
  -8 -11   3 2041.83 802.467  19
  -8 -11   2 1031.76 435.035  28
  -8 -11   2 1382.24 442.545  22
  -8 -11   2 1635.27 653.373  19
  -8 -11   1 3441.15 754.816  28
  -8 -11   1 4516.17 1177.98  19
  -8 -11   1 2912.51 737.635  22
  -8 -11   0 10438.2 1565.62  22
  -8 -11   0 11454.3 1460.03  28
  -8 -11  -1 411.946 265.645  23
  -8 -11  -1 621.134 357.842  22
  -8 -11  -1 830.176 506.243  19
  -8 -11  -2 17845.6 1932.00  23
  -8 -11  -2 13900.3 1765.53  22
  -8 -11  -2 19499.8 2437.19  19
  -8 -11  -3 1861.92 729.622  23
  -8 -11  -3 54058.7 4103.96  19
  -8 -11  -4 6979.68 1229.69  23
  -8 -11  -4 8140.51 1601.15  19
  -8 -11  -5 29527.3 2424.36  23
  -8 -11  -5 35905.3 3506.19  19
  -8 -11  -6 35415.9 2611.84  23
  -8 -11  -7 61.2535 186.029  17
  -8 -11  -7 13768.6 1598.43  23
  -8 -11  -8 174.644 310.763  17
  -8 -11  -8 5007.20 939.424  23
  -8 -11  -9 710.429 451.374  17
  -8 -11  -9 14470.5 1584.85  23
  -8 -11 -10 910.166 544.134  17
  -8 -11 -10 10643.4 1309.37  23
  -8 -11 -11 83.1277 203.673  17
  -8 -11 -11 184.351 169.565  23
  -8 -11 -12 10.4803 151.360  17
  -8 -11 -12 539.749 232.757  23
  -8 -12   3 5919.34 768.884  28
  -8 -12   3 4126.81 637.476  22
  -8 -12   2 742.885 297.097  22
  -8 -12   2 1413.57 592.152  19
  -8 -12   2 819.813 303.793  28
  -8 -12   1 5134.72 789.407  28
  -8 -12   1 5941.24 890.618  22
  -8 -12   0 2634.21 684.171  22
  -8 -12   0 5092.53 1171.44  19
  -8 -12  -1 940.476 370.276  22
  -8 -12  -1 296.958 245.347  19
  -8 -12  -2 64.0484 201.203  23
  -8 -12  -2-27.8604 168.407  22
  -8 -12  -2-394.559 410.877  19
  -8 -12  -3 1976.13 749.343  23
  -8 -12  -3 3426.27 991.495  19
  -8 -12  -4 307.254 269.775  23
  -8 -12  -4 4031.57 1089.35  19
  -8 -12  -5 545.423 368.259  23
  -8 -12  -5 1317.90 643.960  19
  -8 -12  -6 3081.69 704.896  23
  -8 -12  -7 28803.5 2200.10  23
  -8 -12  -8 24413.3 1969.08  23
  -8 -12  -9 440.869 260.713  23
  -8 -12 -10 20179.4 1667.35  23
  -8 -12 -11 31585.6 1927.90  23
  -8 -13   1-19.9128 173.172  22
  -8 -13   1 352.181 257.068  19
  -8 -13   0 13706.4 1189.67  22
  -8 -13   0 26985.3 2480.19  19
  -8 -13  -1 25372.5 1653.93  22
  -8 -13  -1 51126.8 3425.94  19
  -8 -13  -2 15381.7 1890.78  19
  -8 -13  -3 3990.02 771.697  23
  -8 -13  -3 3796.55 928.757  19
  -8 -13  -4 31569.7 2223.61  23
  -8 -13  -4 35381.6 2854.09  19
  -8 -13  -5 1463.17 624.727  23
  -8 -13  -5 10678.5 1532.61  19
  -8 -13  -6 146.908 148.771  23
  -8 -13  -6 492.612 324.205  19
  -8 -13  -7 211.797 155.125  23
  -8 -13  -8 862.206 365.399  23
  -8 -13  -9 4471.71 752.144  23
  -8 -13 -10 1243.12 372.789  23
  -9   7   6 750.991 204.458  20
  -9   7   5 16938.4 994.016  20
  -9   7   4 32191.5 1778.71  10
  -9   7   4 28853.5 1291.40  20
  -9   7   3 4841.52 775.242  10
  -9   7   2 2960.17 680.166  10
  -9   7   1 12738.4 1366.28  10
  -9   7   1 8986.08 930.878  16
  -9   7   0 306.192 159.204  10
  -9   7   0 15.2577 114.219  16
  -9   7  -1 4045.21 611.733  10
  -9   7  -1 4043.14 687.434  16
  -9   7  -2 455.658 219.028  16
  -9   7  -3 2804.39 478.701  16
  -9   6   8 7903.83 686.298  20
  -9   6   8 7564.71 695.276  29
  -9   6   7 1917.38 452.796   9
  -9   6   7 1941.09 359.991  20
  -9   6   7 1679.06 343.966  29
  -9   6   6 279.579 217.946   9
  -9   6   6 144.826 109.257  20
  -9   6   6 267.555 178.453  29
  -9   6   5 2611.17 508.538  10
  -9   6   5 2796.44 568.880   9
  -9   6   5 2246.49 407.862  20
  -9   6   5 2278.10 414.881  29
  -9   6   4 2498.37 551.316  10
  -9   6   4 2812.16 590.583   9
  -9   6   4 2406.87 424.219  20
  -9   6   3 28593.4 2086.77  10
  -9   6   3 30754.5 1946.87   9
  -9   6   2 22391.0 2208.88  10
  -9   6   2 18970.9 1520.34   9
  -9   6   1-46.9121 308.722  10
  -9   6   1-19.3970 77.6249   9
  -9   6   1 295.246 240.200  16
  -9   6   0 22907.6 2032.57  10
  -9   6   0 21749.4 2057.96  16
  -9   6  -1 27224.1 1893.85  10
  -9   6  -1 24731.3 2409.99  16
  -9   6  -2 1807.30 449.534  10
  -9   6  -2 2119.28 543.386  16
  -9   6  -3 7585.24 808.207  10
  -9   6  -3 6889.83 903.736  16
  -9   6  -4 10554.9 989.116  16
  -9   6  -5 1907.44 384.234  16
  -9   5   9 14501.3 1009.81  29
  -9   5   8 4045.52 755.435   9
  -9   5   8 3472.46 529.759  29
  -9   5   7 9370.85 1190.93   9
  -9   5   7 7609.77 823.136  29
  -9   5   6 13815.8 1094.56  10
  -9   5   6 16072.5 1553.95   9
  -9   5   6 13521.0 1128.95  29
  -9   5   5 8660.65 970.429  10
  -9   5   5 9890.25 1236.99   9
  -9   5   5 8055.20 870.604  29
  -9   5   4 1337.47 419.098  10
  -9   5   4 1161.33 423.625   9
  -9   5   4 847.451 289.542  29
  -9   5   3 13124.2 1397.92  10
  -9   5   3 12531.7 1384.76   9
  -9   5   2 2285.74 670.739  10
  -9   5   2 1862.60 553.295   9
  -9   5   1 2110.72 712.131  10
  -9   5   1 2009.65 545.097   9
  -9   5   1 1877.32 489.746  16
  -9   5   0 1910.43 662.526  10
  -9   5   0 1872.43 541.438   9
  -9   5   0 1640.24 564.515  16
  -9   5  -1 4563.38 879.654  10
  -9   5  -1 3377.69 861.076  16
  -9   5  -2 6664.34 960.764  10
  -9   5  -2 6070.76 1050.05  16
  -9   5  -3 4529.75 717.188  10
  -9   5  -3 4257.08 816.752  16
  -9   5  -4 3364.16 552.327  10
  -9   5  -4 3443.14 650.405  16
  -9   5  -5 26107.2 1624.43  16
  -9   5  -6 12948.3 1037.32  16
  -9   5  -7 3428.14 476.725  16
  -9   4  10 375.775 176.237  29
  -9   4   9 873.597 290.920  17
  -9   4   9 990.557 309.255  29
  -9   4   8 1114.09 387.306  17
  -9   4   8 945.394 295.432  29
  -9   4   7 5213.91 912.035  17
  -9   4   7 4287.58 668.010  29
  -9   4   6 2274.36 695.408  17
  -9   4   6 1980.80 452.706  10
  -9   4   6 1556.91 518.900   9
  -9   4   6 1800.11 459.089  29
  -9   4   5 23852.6 2270.58  17
  -9   4   5 19241.3 1476.14  10
  -9   4   5 19755.1 1915.39   9
  -9   4   5 18948.6 1454.57  29
  -9   4   4 17529.6 1500.98  10
  -9   4   4 17692.1 1795.48   9
  -9   4   4 18689.3 1830.96   8
  -9   4   4 16782.8 1358.24  29
  -9   4   3 817.833 389.818  10
  -9   4   3 716.635 384.494   9
  -9   4   3 512.254 281.889   8
  -9   4   3 545.523 252.965  29
  -9   4   2 25555.7 2088.08  10
  -9   4   2 23764.5 2046.74   9
  -9   4   2 24150.4 2052.91   8
  -9   4   1 18230.2 1798.10   9
  -9   4   1 17329.3 1771.69   8
  -9   4   1 14564.0 1349.39  16
  -9   4   0 13894.4 1640.01  10
  -9   4   0 11649.9 1397.64   9
  -9   4   0 12112.4 1466.40   8
  -9   4   0 11486.6 1307.95  16
  -9   4  -1 1150.82 490.341  10
  -9   4  -1 1616.66 565.308   9
  -9   4  -1 1307.27 487.296   8
  -9   4  -1 1384.00 554.669  16
  -9   4  -2 4090.05 802.818  10
  -9   4  -2 4332.47 895.493   8
  -9   4  -2 4310.27 861.905  16
  -9   4  -3 3691.01 711.063  10
  -9   4  -3 3798.74 835.659   8
  -9   4  -3 4034.69 806.550  16
  -9   4  -4 338.056 193.929  10
  -9   4  -4-68.1043 210.290  16
  -9   4  -5 1513.66 427.481  16
  -9   4  -6 893.952 298.160  16
  -9   4  -7 6528.10 762.132  16
  -9   4  -8 2660.23 423.354  16
  -9   3  10 4339.42 673.852  17
  -9   3  10 4774.21 606.727  29
  -9   3   9 3703.06 694.648  17
  -9   3   9 3886.83 607.209  29
  -9   3   8 9852.66 1296.26  17
  -9   3   8 8820.24 968.756  29
  -9   3   7 5808.59 1115.50  17
  -9   3   6 1242.61 593.689  17
  -9   3   5 3868.09 990.076  17
  -9   3   5 2964.93 578.570  10
  -9   3   5 3350.26 861.649   9
  -9   3   5 2806.64 676.203   8
  -9   3   4-77.7183 156.987  17
  -9   3   4-17.3684 102.727  10
  -9   3   4-65.4498 242.612   9
  -9   3   4 268.646 257.711   8
  -9   3   3 814.195 497.625  17
  -9   3   3 720.655 312.615  10
  -9   3   3 479.914 264.551   9
  -9   3   3 504.613 300.478   8
  -9   3   2 2190.86 607.586  10
  -9   3   2 2432.01 709.034   9
  -9   3   2 2400.97 650.818   8
  -9   3   1 5724.54 1023.00  10
  -9   3   1 4821.65 955.860   9
  -9   3   1 4582.42 908.245   8
  -9   3   1 3969.84 703.567  16
  -9   3   0 22612.0 2048.91  10
  -9   3   0 20604.8 1993.26   9
  -9   3   0 21195.6 1882.31   8
  -9   3   0 19455.1 1657.92  16
  -9   3  -1 11985.3 1463.26  10
  -9   3  -1 11508.0 1484.08   9
  -9   3  -1 10999.4 1338.25   8
  -9   3  -1 11677.1 1353.28  16
  -9   3  -2 306.565 258.509  10
  -9   3  -2-80.4151 151.587   9
  -9   3  -2 220.282 225.228   8
  -9   3  -2 93.6200 157.097  16
  -9   3  -3 10094.9 1217.33  10
  -9   3  -3 9955.53 1249.02   8
  -9   3  -3 10833.7 1346.13  16
  -9   3  -4 21716.8 1642.11  10
  -9   3  -4 22208.4 1898.35   8
  -9   3  -4 23457.5 1892.66  16
  -9   3  -5 6063.92 819.850  10
  -9   3  -5 6500.10 1006.67   8
  -9   3  -5 5373.65 869.037  16
  -9   3  -6 6433.08 884.514  16
  -9   3  -7 7974.85 913.258  16
  -9   3  -8 4568.03 618.339  16
  -9   3  -9 116.961 64.9238  16
  -9   2  10 2730.41 568.665  17
  -9   2  10 2575.88 464.556  29
  -9   2   9 3737.38 780.926  17
  -9   2   9 3007.51 545.997  29
  -9   2   8 226.066 287.170  17
  -9   2   7 22725.2 2406.43  17
  -9   2   6 43365.2 3529.65  17
  -9   2   5 1120.36 397.865   8
  -9   2   5 473.012 511.368  17
  -9   2   4 24666.3 1809.68  10
  -9   2   4 22588.9 2293.32   9
  -9   2   4 23346.4 1882.08   8
  -9   2   3 32982.2 2206.89  10
  -9   2   3 32671.3 2694.07   9
  -9   2   3 32581.8 2252.34   8
  -9   2   2 16499.1 1596.31  10
  -9   2   2 14871.6 1786.49   9
  -9   2   2 13389.1 1490.17   8
  -9   2   1 13.7673 239.579  10
  -9   2   1-59.5892 260.563   9
  -9   2   1 23.4007 216.432   8
  -9   2   1 206.167 276.690  17
  -9   2   0 2392.20 572.498  16
  -9   2   0 2748.40 729.478  10
  -9   2   0 2787.05 771.825   9
  -9   2   0 2402.50 631.501   8
  -9   2   0 3567.30 889.426  17
  -9   2  -1 498.046 307.959  16
  -9   2  -1 521.888 300.698  10
  -9   2  -1-3.99530 129.539   9
  -9   2  -1 354.565 232.029   8
  -9   2  -2 2821.66 715.844  16
  -9   2  -2 2996.95 742.191  10
  -9   2  -2 3071.91 796.470   9
  -9   2  -2 3016.84 691.736   8
  -9   2  -3 2289.94 602.439  16
  -9   2  -3 2480.12 619.550  10
  -9   2  -3 2391.66 630.885   8
  -9   2  -4 782.626 441.166  16
  -9   2  -4 1055.89 424.056  10
  -9   2  -4 513.416 278.765   8
  -9   2  -5 43176.7 2486.06  16
  -9   2  -5 40497.6 2387.96   8
  -9   2  -6 17412.7 1513.63  16
  -9   2  -7 10037.0 1288.63  11
  -9   2  -7 9058.80 1027.30  16
  -9   2  -8 27151.3 1995.60  11
  -9   2  -8 25704.6 1597.56  16
  -9   2  -9 29024.0 1922.50  11
  -9   2  -9 28132.0 1517.16  16
  -9   2 -10 3773.22 609.928  11
  -9   2 -10 3443.31 462.047  16
  -9   1  11 29.5135 122.387  17
  -9   1  10 21670.2 1702.43  17
  -9   1  10 18909.2 1273.50  29
  -9   1   9 12186.2 1540.94  17
  -9   1   8-22.7316 196.776  17
  -9   1   7 6538.03 1377.33  17
  -9   1   6 2934.53 1035.45  17
  -9   1   5 978.274 364.662   8
  -9   1   5 1364.93 655.470  17
  -9   1   4 5546.37 1134.27   9
  -9   1   4 4680.32 823.184   8
  -9   1   3 737.521 369.813  10
  -9   1   3 233.301 223.511   9
  -9   1   3 509.176 240.369   8
  -9   1   3 890.891 541.698  17
  -9   1   2 39795.9 2463.86  10
  -9   1   2 34395.3 2802.56   9
  -9   1   2 37031.5 2388.60   8
  -9   1   1 46830.3 2746.27  10
  -9   1   1 39568.6 2970.50   9
  -9   1   1 41116.4 2528.81   8
  -9   1   0 2146.39 539.005  16
  -9   1   0 3343.09 767.275  10
  -9   1   0 1972.70 689.222   9
  -9   1   0 3302.33 923.520  17
  -9   1  -1 25627.8 1893.17  16
  -9   1  -1 28921.1 2223.09  10
  -9   1  -1 26094.0 2369.02   9
  -9   1  -1 28214.8 2098.62   8
  -9   1  -1 28924.6 2757.20  17
  -9   1  -2 56751.9 2937.99  16
  -9   1  -2 63489.0 3180.53  10
  -9   1  -2 55810.3 3423.29   9
  -9   1  -2 54097.8 2886.71   8
  -9   1  -2 64662.7 3686.38  17
  -9   1  -3 4277.85 836.343  16
  -9   1  -3 5518.06 937.461  10
  -9   1  -3 4981.65 1066.57   9
  -9   1  -3 4477.56 842.235   8
  -9   1  -4 2679.53 626.918  16
  -9   1  -4 2824.09 651.887  10
  -9   1  -4 2384.08 603.016   8
  -9   1  -5 5258.62 871.678  16
  -9   1  -5 4728.37 816.797   8
  -9   1  -6 2181.96 557.581  16
  -9   1  -6 2448.40 588.247  14
  -9   1  -6 2038.26 519.827   8
  -9   1  -6 1736.51 599.542  11
  -9   1  -7 4014.81 725.178  16
  -9   1  -7 4002.47 745.183  14
  -9   1  -7 4393.48 933.685  11
  -9   1  -8 11.1865 123.265  16
  -9   1  -8 61.9046 145.345  14
  -9   1  -8 10.8550 237.857  11
  -9   1  -9 4428.49 692.375  14
  -9   1  -9 4536.39 642.950  16
  -9   1  -9 4615.39 952.237  11
  -9   1 -10 9277.15 830.265  16
  -9   1 -10 9052.06 914.922  14
  -9   1 -10 9081.82 1054.65  11
  -9   1 -11 7715.45 850.859  11
  -9   0  10 2878.46 618.961  17
  -9   0   9 9788.87 1396.28  17
  -9   0   8 52857.1 3664.81  17
  -9   0   7 38868.1 3273.26  17
  -9   0   6 163.989 494.579  17
  -9   0   5 77405.2 5026.72  17
  -9   0   5 68796.7 3055.14   8
  -9   0   4 23478.6 2779.41  17
  -9   0   4 19250.2 1628.04  22
  -9   0   4 20441.7 2233.80   9
  -9   0   4 18415.2 1645.42   8
  -9   0   3 1068.25 532.673  17
  -9   0   3 724.565 300.666  22
  -9   0   3 353.598 267.391   9
  -9   0   2 10447.4 1554.44   9
  -9   0   2 11786.8 2011.60  17
  -9   0   1 6044.16 1033.19  10
  -9   0   1 4444.33 1031.40   9
  -9   0   1 6878.76 1348.82  17
  -9   0   0 3809.48 820.211  10
  -9   0   0 3522.52 892.263   9
  -9   0   0 3217.59 629.028  16
  -9   0   0 4319.85 1033.78  17
  -9   0  -1 2137.93 632.212  10
  -9   0  -1 1982.94 708.552   9
  -9   0  -1 1878.53 524.785  16
  -9   0  -1 1962.22 679.905  17
  -9   0  -2 226.454 260.717  10
  -9   0  -2 236.541 226.566   9
  -9   0  -2-329.849 304.297  17
  -9   0  -2-0.57244 117.376  16
  -9   0  -3 23070.3 1854.89  16
  -9   0  -3 24465.4 2312.15   9
  -9   0  -3 25875.4 2342.43  17
  -9   0  -4 40838.8 2448.65  14
  -9   0  -4 45580.0 2600.87  16
  -9   0  -4 43534.8 2986.69  17
  -9   0  -5 5760.60 924.759  14
  -9   0  -5 5699.88 933.355  16
  -9   0  -5 5209.10 858.652   8
  -9   0  -6 30334.0 2062.57  16
  -9   0  -6 31460.6 2133.45  14
  -9   0  -6 23728.0 1763.87   8
  -9   0  -6 24483.9 2038.71  11
  -9   0  -7 41078.3 2323.51  16
  -9   0  -7 42892.4 2457.14  14
  -9   0  -8 9007.36 1041.86  16
  -9   0  -8 10220.4 1167.44  14
  -9   0  -8 7514.31 1383.81  11
  -9   0  -9 346.595 195.726  16
  -9   0  -9 450.881 247.931  14
  -9   0  -9 356.097 374.337  11
  -9   0 -10 10688.1 956.027  16
  -9   0 -10 10811.2 1073.40  14
  -9   0 -10 8338.45 1190.74  11
  -9   0 -11 2987.84 455.412  16
  -9   0 -11 3926.83 586.508  14
  -9   0 -11 2262.87 507.318  11
  -9   0 -12 1054.22 279.292  14
  -9  -1  10 2220.27 555.597  17
  -9  -1   9 213.460 237.998  17
  -9  -1   8 1499.70 692.375  17
  -9  -1   7 5948.43 1344.70  17
  -9  -1   7 5395.87 802.121  22
  -9  -1   6 14733.4 2159.79  17
  -9  -1   6 14240.0 1370.17  22
  -9  -1   5 11469.2 1869.40  17
  -9  -1   5 9197.57 1494.21   9
  -9  -1   5 8736.93 1096.38  22
  -9  -1   4 23794.7 2924.02  17
  -9  -1   4 20823.9 2220.79   9
  -9  -1   4 21274.3 1731.15  22
  -9  -1   3 54792.3 2858.29  24
  -9  -1   3 55679.9 3594.00   9
  -9  -1   3 54596.1 2797.88  22
  -9  -1   2 43007.9 2541.69  24
  -9  -1   2 43634.1 3162.71   9
  -9  -1   2 46774.5 2548.14  22
  -9  -1   1 1265.19 724.113  17
  -9  -1   1 1109.19 487.587   9
  -9  -1   1 1628.83 451.303  22
  -9  -1   1 1644.23 499.310  24
  -9  -1   0 60125.8 3674.28   9
  -9  -1   0 63686.3 2993.20  24
  -9  -1   0 53070.9 2521.77  16
  -9  -1   0 62826.7 2827.53  22
  -9  -1  -1 54369.6 3458.72   9
  -9  -1  -1 47475.5 2501.82  16
  -9  -1  -1 54351.8 2725.17  24
  -9  -1  -2 6884.96 1226.81   9
  -9  -1  -2 8201.18 1419.84  17
  -9  -1  -2 7031.86 972.738  16
  -9  -1  -2 7875.46 1018.41  24
  -9  -1  -3 7625.47 1295.71   9
  -9  -1  -3 6356.43 889.639  24
  -9  -1  -3 6037.62 940.842  16
  -9  -1  -3 8000.29 1341.55  17
  -9  -1  -4 5233.12 1090.50  17
  -9  -1  -4 4505.82 805.770  14
  -9  -1  -4 4967.99 854.279  16
  -9  -1  -5 315.680 322.698  17
  -9  -1  -5 459.078 204.080  16
  -9  -1  -5 821.540 394.047  14
  -9  -1  -6 7725.95 1124.72  11
  -9  -1  -6 8990.27 1140.58  16
  -9  -1  -6 8956.02 1152.75  14
  -9  -1  -6 7597.81 1289.67  17
  -9  -1  -7 124.504 184.620  16
  -9  -1  -7-52.4562 191.111  14
  -9  -1  -8 23014.5 1686.62  16
  -9  -1  -8 25520.0 1917.46  14
  -9  -1  -9 21559.4 1548.87  16
  -9  -1  -9 23169.0 1770.56  14
  -9  -1  -9 18124.5 2195.39  11
  -9  -1 -10 2389.98 487.394  16
  -9  -1 -10 2667.75 586.088  14
  -9  -1 -10 2156.70 711.985  11
  -9  -1 -11 17629.7 1170.96  16
  -9  -1 -11 20720.3 1445.80  14
  -9  -1 -12 34526.9 1658.19  14
  -9  -2  10 26538.6 1824.25  17
  -9  -2   9 40543.4 2728.25  17
  -9  -2   9 47.9486 206.294  15
  -9  -2   8 3156.89 994.144  17
  -9  -2   8 3721.85 636.260  22
  -9  -2   7 18401.7 2519.70  17
  -9  -2   7 19183.6 1540.24  22
  -9  -2   6 27000.3 1910.46  22
  -9  -2   6 32424.9 3162.03  17
  -9  -2   6 26354.8 2301.27   9
  -9  -2   5-71.4179 131.009  15
  -9  -2   5 1525.78 477.061  22
  -9  -2   5 2131.15 805.870  17
  -9  -2   5 1697.87 618.123   9
  -9  -2   4 6401.69 970.348  22
  -9  -2   4 6105.52 940.216  24
  -9  -2   4 7752.15 1566.14  17
  -9  -2   4 7453.56 1299.61   9
  -9  -2   3 2301.17 586.048  22
  -9  -2   3 2542.03 726.893   9
  -9  -2   3 2059.99 543.565  24
  -9  -2   2 5218.30 885.672  24
  -9  -2   2 5047.38 1195.55  17
  -9  -2   2 6447.45 1172.46   9
  -9  -2   2 5798.07 910.944  22
  -9  -2   1 13382.5 1431.39  24
  -9  -2   1 11416.0 2049.71  17
  -9  -2   1 15036.3 1802.64   9
  -9  -2   1 14158.2 1388.96  22
  -9  -2   0 13723.9 1933.00  17
  -9  -2   0 12303.6 1622.37   9
  -9  -2   0 10905.3 1265.95  24
  -9  -2   0 11368.4 1229.47  22
  -9  -2  -1 9550.52 1106.30  16
  -9  -2  -1 12869.3 1786.46  17
  -9  -2  -1 10328.1 1505.06   9
  -9  -2  -1 10320.1 1226.57  24
  -9  -2  -1 11018.3 1156.70  22
  -9  -2  -2 37859.5 2259.60  16
  -9  -2  -2 46659.7 3374.92  17
  -9  -2  -2 40475.2 2947.13   9
  -9  -2  -2 39245.7 2343.76  24
  -9  -2  -3 34978.3 2197.88  14
  -9  -2  -3 45697.9 2521.12  16
  -9  -2  -3 52510.8 3622.40  17
  -9  -2  -3 57210.2 3560.36   9
  -9  -2  -3 44794.2 2414.54  24
  -9  -2  -4 9780.42 1598.11  17
  -9  -2  -4 7626.87 1043.96  16
  -9  -2  -4 5998.62 926.066  14
  -9  -2  -4 6594.94 910.169  24
  -9  -2  -5 44547.7 2524.24  16
  -9  -2  -5 39137.1 2403.35  14
  -9  -2  -5 45070.9 3444.58  17
  -9  -2  -6 25196.1 1900.94  16
  -9  -2  -6 24452.6 1939.31  14
  -9  -2  -6 23491.1 2476.86  17
  -9  -2  -7 1058.22 352.635  16
  -9  -2  -7 320.163 463.902  17
  -9  -2  -7 494.743 338.644  14
  -9  -2  -8 18778.8 1562.33  16
  -9  -2  -8 20393.7 1804.91  14
  -9  -2  -9 9593.22 1218.10  14
  -9  -2  -9 9161.90 1031.93  16
  -9  -2 -10 3420.99 588.769  16
  -9  -2 -10 3764.10 723.648  14
  -9  -2 -11 3545.41 531.315  16
  -9  -2 -11 3992.52 693.853  14
  -9  -2 -12 120.419 130.733  14
  -9  -2 -13 8093.52 758.009  14
  -9  -3  10 44.1471 137.739  15
  -9  -3   9 1865.83 419.167  22
  -9  -3   9 2546.09 617.678  17
  -9  -3   8 16012.1 1302.72  22
  -9  -3   8 21173.3 2221.97  17
  -9  -3   7 5863.17 840.310  22
  -9  -3   7 3629.41 1477.51  17
  -9  -3   6-299.472 237.189  17
  -9  -3   6 1.65669 168.585  22
  -9  -3   5 23616.5 1777.22  24
  -9  -3   5 23146.6 1855.06  22
  -9  -3   5 23236.0 2617.97  17
  -9  -3   4 26261.1 1921.89  24
  -9  -3   4 27820.5 2058.74  22
  -9  -3   3 75.5317 136.117  15
  -9  -3   3 1102.13 423.929  22
  -9  -3   3 388.610 308.231  17
  -9  -3   3 1254.19 498.561   9
  -9  -3   3 916.772 378.933  24
  -9  -3   2 2548.53 866.245  17
  -9  -3   2 5305.85 1062.18   9
  -9  -3   2 4524.11 819.549  24
  -9  -3   2 5152.68 880.060  22
  -9  -3   1 40049.4 3363.67  17
  -9  -3   1 40265.1 2938.83   9
  -9  -3   1 36618.4 2373.43  24
  -9  -3   1 38748.0 2368.59  22
  -9  -3   0 14133.0 1911.41  17
  -9  -3   0 13871.3 1714.07   9
  -9  -3   0 13745.4 1453.16  24
  -9  -3   0 12836.3 1323.53  22
  -9  -3  -1 3558.42 677.051  16
  -9  -3  -1 4274.77 1035.40  17
  -9  -3  -1 4429.03 975.722   9
  -9  -3  -1 4347.94 807.213  24
  -9  -3  -1 4130.98 727.193  22
  -9  -3  -2 1397.28 404.164  16
  -9  -3  -2 1327.92 620.296  17
  -9  -3  -2 2110.93 674.692   9
  -9  -3  -2 2036.64 548.950  24
  -9  -3  -3 337.984 177.407  16
  -9  -3  -3 531.651 445.124  17
  -9  -3  -3 370.819 242.237  24
  -9  -3  -4 9612.92 1115.05  24
  -9  -3  -4 9867.13 1754.95  17
  -9  -3  -4 9985.68 1186.11  16
  -9  -3  -4 7605.32 1032.73  14
  -9  -3  -5 5462.18 1405.87  17
  -9  -3  -5 6897.18 990.377  16
  -9  -3  -5 6076.18 924.462  14
  -9  -3  -6 4670.23 1354.93  17
  -9  -3  -6 7545.74 1040.35  16
  -9  -3  -6 7004.05 1032.71  14
  -9  -3  -7 37747.5 3462.47  17
  -9  -3  -7 40556.0 2591.64  14
  -9  -3  -7 43736.8 2461.94  16
  -9  -3  -8 31369.4 2356.10  14
  -9  -3  -8 30127.7 1997.03  16
  -9  -3  -9 2334.79 546.062  16
  -9  -3  -9 981.852 501.095  17
  -9  -3  -9 2562.93 726.306  14
  -9  -3 -10 52499.3 2899.15  14
  -9  -3 -10 43532.8 2179.89  16
  -9  -3 -11 24911.5 1776.44  14
  -9  -3 -11 19456.2 1338.42  16
  -9  -3 -12-21.7207 131.227  14
  -9  -3 -13 9973.95 895.280  14
  -9  -4  10-247.174 156.863  15
  -9  -4   9-99.3630 122.596  22
  -9  -4   8 20393.2 1453.05  22
  -9  -4   8 27686.4 2329.54  17
  -9  -4   7 3812.29 952.802  17
  -9  -4   7 3276.08 625.077  22
  -9  -4   6-28.4773 249.467  17
  -9  -4   6 140.389 93.2851  22
  -9  -4   5 3788.08 699.010  24
  -9  -4   5 4453.62 809.814  22
  -9  -4   4 146.931 382.334  17
  -9  -4   4 561.463 341.575  22
  -9  -4   4 606.935 348.679  24
  -9  -4   3 3694.44 1203.41  17
  -9  -4   3 5650.15 912.754  24
  -9  -4   3 6257.46 1003.37  22
  -9  -4   2 562.136 608.586  17
  -9  -4   2 2366.23 633.223  22
  -9  -4   2 2377.06 586.213  24
  -9  -4   1 10551.2 1679.25  17
  -9  -4   1 9739.93 1209.13  22
  -9  -4   1 9468.95 1237.48  24
  -9  -4   0 44547.4 3491.89  17
  -9  -4   0 42873.6 2915.11   9
  -9  -4   0 42018.3 2431.62  22
  -9  -4   0 44071.7 2636.73  24
  -9  -4  -1 30241.4 1955.57  16
  -9  -4  -1 35908.2 3039.12  17
  -9  -4  -1 37960.7 2741.93   9
  -9  -4  -1 37077.9 2419.56  24
  -9  -4  -1 34475.7 2134.46  22
  -9  -4  -2 338.184 305.841  16
  -9  -4  -2 515.276 448.114  17
  -9  -4  -2 162.557 169.678  24
  -9  -4  -3 29119.2 2096.47  24
  -9  -4  -3 27528.0 1953.05  16
  -9  -4  -4 17213.4 1540.19  24
  -9  -4  -4 16237.1 1539.01  16
  -9  -4  -4 21358.5 2482.84  17
  -9  -4  -5 4166.19 800.689  16
  -9  -4  -5 2327.67 985.560  17
  -9  -4  -5 3404.07 674.626  14
  -9  -4  -5 3924.88 706.581  24
  -9  -4  -6 1126.76 400.998  16
  -9  -4  -6 1450.01 490.277  14
  -9  -4  -6 563.996 634.365  17
  -9  -4  -7 4916.72 915.379  14
  -9  -4  -7 5132.99 1480.03  17
  -9  -4  -7 5609.80 876.261  16
  -9  -4  -8 838.699 310.710  16
  -9  -4  -8 963.890 684.502  17
  -9  -4  -8 966.021 422.559  14
  -9  -4  -9-152.040 212.820  16
  -9  -4  -9 344.131 629.395  17
  -9  -4  -9 700.006 497.545  14
  -9  -4 -10 1152.31 557.057  17
  -9  -4 -10 3078.15 573.340  16
  -9  -4 -10 3308.58 803.215  14
  -9  -4 -11 5675.45 952.536  14
  -9  -4 -11 1222.95 457.934  17
  -9  -4 -12 13246.1 1230.28  14
  -9  -4 -12 3057.84 720.920  17
  -9  -4 -13 1400.78 347.001  14
  -9  -5   9 6663.72 715.536  22
  -9  -5   8 92.1126 124.006  22
  -9  -5   7 39247.5 2850.13  17
  -9  -5   7 26465.2 1757.46  22
  -9  -5   6 49228.5 3557.40  17
  -9  -5   6 40345.6 2329.61  22
  -9  -5   5 495.152 597.330  17
  -9  -5   5 700.795 265.887  24
  -9  -5   5 1009.82 430.867  22
  -9  -5   4 3438.80 1611.47  17
  -9  -5   4 5805.18 897.953  24
  -9  -5   4 6908.42 1097.44  22
  -9  -5   3 34224.1 2260.43  24
  -9  -5   3 42134.5 2693.19  22
  -9  -5   2 796.895 542.859  17
  -9  -5   2 313.907 131.571  24
  -9  -5   2 325.681 176.781  22
  -9  -5   1 1795.05 543.597  24
  -9  -5   1 1961.69 823.757  17
  -9  -5   1 1882.92 519.489  22
  -9  -5   0 1303.04 521.593  24
  -9  -5   0 1244.18 683.776  17
  -9  -5   0 1995.60 516.470  22
  -9  -5  -1 8707.73 1283.30  24
  -9  -5  -1 10477.0 1221.78  22
  -9  -5  -1 12467.2 1801.09  17
  -9  -5  -2 4897.96 1238.80  17
  -9  -5  -2 3793.67 740.771  16
  -9  -5  -2 4245.87 856.973  24
  -9  -5  -2 4047.06 943.659  23
  -9  -5  -3-23.4792 179.836  16
  -9  -5  -3-98.8727 251.041  17
  -9  -5  -3 156.817 171.396  24
  -9  -5  -3 40.8756 199.682  23
  -9  -5  -4 7611.33 1107.31  24
  -9  -5  -4 7947.87 1085.18  16
  -9  -5  -4 5016.41 1567.45  17
  -9  -5  -5 36007.1 2259.28  24
  -9  -5  -5 42252.0 2492.38  16
  -9  -5  -5 33616.7 3504.68  17
  -9  -5  -6 5394.56 872.894  24
  -9  -5  -6 4373.14 1639.70  17
  -9  -5  -6 8342.90 1109.43  16
  -9  -5  -7 2717.60 667.355  16
  -9  -5  -7 2474.65 594.648  14
  -9  -5  -8 37946.4 2570.78  14
  -9  -5  -8 43348.6 2451.06  16
  -9  -5  -9 20994.9 2175.23  14
  -9  -5  -9 20543.7 1649.41  16
  -9  -5  -9 18381.7 3150.20  17
  -9  -5 -10 962.713 673.041  17
  -9  -5 -10 2129.51 875.601  14
  -9  -5 -11 53.1660 392.702  17
  -9  -5 -11 451.703 405.789  14
  -9  -5 -12-370.796 325.250  17
  -9  -5 -12 831.399 344.285  14
  -9  -5 -13 673.519 319.271  17
  -9  -5 -13 285.054 150.313  14
  -9  -6   8 1867.75 418.086  22
  -9  -6   7 1360.45 392.209  22
  -9  -6   6 3582.94 687.857  22
  -9  -6   5 30562.9 2113.21  22
  -9  -6   5 27306.1 1775.18  24
  -9  -6   5 26943.4 2992.54  17
  -9  -6   4 19977.2 1602.41  24
  -9  -6   4 23486.1 1968.08  22
  -9  -6   4 23804.1 2107.52  28
  -9  -6   3 847.436 448.623  22
  -9  -6   3 579.097 301.708  24
  -9  -6   3 585.899 355.973  28
  -9  -6   3 126.666 196.100  17
  -9  -6   2 36172.9 2367.98  24
  -9  -6   2 44776.8 2901.62  22
  -9  -6   2 44945.3 2926.79  28
  -9  -6   2 47037.0 3863.13  17
  -9  -6   1 35967.8 3190.65  17
  -9  -6   1 33686.5 2485.15  22
  -9  -6   0 666.090 279.740  24
  -9  -6   0 124.787 278.510  17
  -9  -6  -1 17134.9 1608.69  22
  -9  -6  -1 19369.4 2235.49  17
  -9  -6  -2 46892.9 3153.38  23
  -9  -6  -2 47323.7 3554.05  17
  -9  -6  -3 4313.26 952.155  23
  -9  -6  -3 4630.84 1187.41  17
  -9  -6  -4 771.190 475.217  23
  -9  -6  -4 205.814 645.489  17
  -9  -6  -5 713.487 576.058  23
  -9  -6  -5 1845.86 1049.59  17
  -9  -6  -6 705.955 659.401  17
  -9  -6  -7 311.356 719.073  17
  -9  -6  -8 31.9051 486.069  17
  -9  -6  -9 9289.99 1226.80  14
  -9  -6  -9 2465.30 1352.88  17
  -9  -6 -10 6919.37 2069.08  17
  -9  -6 -10 24826.5 2322.27  14
  -9  -6 -11 3803.70 868.305  14
  -9  -6 -11 457.460 754.063  17
  -9  -6 -12 81.7767 114.468  14
  -9  -6 -12-128.690 172.972  17
  -9  -6 -13 24953.6 1536.12  14
  -9  -6 -13 911.761 477.832  17
  -9  -7   7 8417.36 908.932  22
  -9  -7   6 178.484 126.339  22
  -9  -7   5 18596.3 1600.19  22
  -9  -7   5 17790.0 1668.51  28
  -9  -7   4 9198.61 1048.95  24
  -9  -7   4 8852.75 1210.13  22
  -9  -7   4 10661.2 1401.24  28
  -9  -7   3 20.4256 250.593  22
  -9  -7   3 185.446 158.585  24
  -9  -7   3-72.5566 318.130  28
  -9  -7   3-455.850 367.963  17
  -9  -7   2 7208.19 1079.25  24
  -9  -7   2 9368.38 1391.82  22
  -9  -7   2 9443.44 1437.41  28
  -9  -7   1 2272.57 710.784  17
  -9  -7   1 1116.50 438.132  24
  -9  -7   1 1928.25 672.524  22
  -9  -7   0 9235.05 1521.50  17
  -9  -7   0 8306.09 1252.98  22
  -9  -7   0 7259.71 1645.39  19
  -9  -7  -1 396.586 210.274  23
  -9  -7  -1 172.122 210.252  17
  -9  -7  -1 534.385 332.211  22
  -9  -7  -2 1759.89 711.056  17
  -9  -7  -2 1918.80 676.895  23
  -9  -7  -3 58042.8 3629.23  23
  -9  -7  -3 64745.1 4111.48  17
  -9  -7  -4 23106.9 2559.19  23
  -9  -7  -4 40094.0 3641.43  17
  -9  -7  -5 5084.10 1411.49  17
  -9  -7  -5-76.0967 134.335  23
  -9  -7  -6 4066.68 1360.86  17
  -9  -7  -6 19100.1 2194.39  23
  -9  -7  -7 37909.5 3234.93  23
  -9  -7  -7 8990.35 2092.11  17
  -9  -7  -8 2000.34 1113.71  17
  -9  -7  -9 1759.35 1051.21  17
  -9  -7 -10 335.083 379.014  17
  -9  -7 -11 92.7740 157.913  14
  -9  -7 -11 43.0202 291.176  17
  -9  -7 -12 774.471 315.967  14
  -9  -7 -12-289.972 255.379  17
  -9  -7 -13 335.167 135.381  17
  -9  -8   7 2678.99 491.716  22
  -9  -8   6 23841.9 1581.70  22
  -9  -8   5 967.729 358.886  22
  -9  -8   5 835.881 368.010  28
  -9  -8   4 11997.6 1413.00  28
  -9  -8   4 11206.7 1073.28  24
  -9  -8   4 11307.7 1295.38  22
  -9  -8   3 45976.7 3059.48  28
  -9  -8   3 43721.7 2314.61  24
  -9  -8   3 43397.9 2819.37  22
  -9  -8   2 7638.49 1132.33  24
  -9  -8   2 10744.4 1550.76  22
  -9  -8   1 163.409 191.929  24
  -9  -8   1 766.286 419.628  22
  -9  -8   1 193.689 406.671  19
  -9  -8   0 26904.5 3451.82  19
  -9  -8   0 30361.0 2692.02  22
  -9  -8   0 31398.5 2693.04  17
  -9  -8  -1 37587.6 3931.64  19
  -9  -8  -1 28936.2 2485.11  23
  -9  -8  -1 30419.5 2393.76  22
  -9  -8  -1 33412.6 2807.37  17
  -9  -8  -2 1189.87 572.841  23
  -9  -8  -2 1873.32 666.495  17
  -9  -8  -3 6367.06 1290.95  23
  -9  -8  -3 5756.37 1214.31  17
  -9  -8  -4 110.038 401.969  23
  -9  -8  -4 994.109 592.747  17
  -9  -8  -5 42.7086 164.694  23
  -9  -8  -5 10535.1 1695.29  17
  -9  -8  -6 9017.23 1527.05  23
  -9  -8  -6 3825.99 1235.10  17
  -9  -8  -7 3335.54 977.328  23
  -9  -8  -7 557.085 603.792  17
  -9  -8  -8 39943.6 3919.88  23
  -9  -8  -8 10757.9 1939.28  17
  -9  -8  -9 5215.28 1445.70  17
  -9  -8 -10 508.424 513.585  17
  -9  -8 -11 1494.28 849.518  17
  -9  -8 -12 1812.84 773.301  17
  -9  -8 -13 210.526 268.731  17
  -9  -9   6 8115.25 835.997  22
  -9  -9   5 142.821 108.852  22
  -9  -9   5 64.3286 80.9393  28
  -9  -9   4 863.555 308.481  22
  -9  -9   4 602.223 300.716  28
  -9  -9   3 464.653 270.819  22
  -9  -9   3 127.019 128.627  28
  -9  -9   3 613.815 271.778  24
  -9  -9   2 10303.8 1498.86  28
  -9  -9   2 8717.67 1100.53  24
  -9  -9   2 8706.84 1323.33  22
  -9  -9   1 24032.1 1826.68  24
  -9  -9   1 25232.2 2720.13  22
  -9  -9   1 29447.1 3204.12  19
  -9  -9   0 738.272 537.466  22
  -9  -9   0 120.694 468.052  19
  -9  -9  -1 11994.9 1649.90  22
  -9  -9  -1 14041.3 2481.95  19
  -9  -9  -2 73599.0 3960.13  17
  -9  -9  -2 77317.1 4054.09  23
  -9  -9  -3 19097.9 2166.55  17
  -9  -9  -3 25376.5 2379.68  23
  -9  -9  -4 2912.92 997.984  23
  -9  -9  -4 4858.82 1190.04  17
  -9  -9  -5 4713.86 1512.57  17
  -9  -9  -5 479.684 399.243  23
  -9  -9  -6 1118.65 971.091  17
  -9  -9  -6 10197.3 1578.87  23
  -9  -9  -7-611.097 479.362  17
  -9  -9  -7 311.219 302.964  23
  -9  -9  -8 414.199 498.326  17
  -9  -9  -8 2094.71 720.128  23
  -9  -9  -9-57.2839 300.266  17
  -9  -9  -9 220.984 332.196  23
  -9  -9 -10 430.509 440.131  17
  -9  -9 -11 268.626 281.500  17
  -9  -9 -12 117.492 151.392  17
  -9 -10   4 17123.9 1317.13  22
  -9 -10   4 16739.5 1326.99  28
  -9 -10   3 300.622 158.159  28
  -9 -10   3 573.379 285.846  22
  -9 -10   2 4961.13 721.243  24
  -9 -10   2 4322.48 802.877  22
  -9 -10   2 5442.69 888.129  28
  -9 -10   1 13381.1 2022.43  19
  -9 -10   1 9992.49 1360.45  22
  -9 -10   0 496.692 358.242  22
  -9 -10   0 56.2813 340.927  19
  -9 -10  -1 1678.56 615.603  22
  -9 -10  -1 2253.84 922.701  19
  -9 -10  -2 4993.38 1421.46  19
  -9 -10  -2 4048.78 870.734  23
  -9 -10  -3 9682.26 1399.08  23
  -9 -10  -4 8165.85 1483.04  23
  -9 -10  -4 5378.97 1044.94  17
  -9 -10  -5-90.5992 224.375  23
  -9 -10  -5 298.321 170.311  17
  -9 -10  -6 8833.50 1320.80  23
  -9 -10  -6 2701.15 863.122  17
  -9 -10  -7 25700.2 2250.60  23
  -9 -10  -7 2719.14 1227.91  17
  -9 -10  -8 984.296 606.667  17
  -9 -10  -8 10500.4 1444.13  23
  -9 -10  -9-974.970 479.709  17
  -9 -10  -9 1430.54 534.245  23
  -9 -10 -10 1052.94 536.897  17
  -9 -10 -10 26666.2 2058.40  23
  -9 -10 -11 495.978 384.982  17
  -9 -11   3 10418.4 977.869  22
  -9 -11   2 1711.54 448.912  22
  -9 -11   1 1546.54 484.039  24
  -9 -11   1 3948.79 714.868  22
  -9 -11   0 53174.3 3822.14  19
  -9 -11   0 33714.7 2260.07  22
  -9 -11  -1 18524.1 2276.78  19
  -9 -11  -1 12917.8 1392.35  22
  -9 -11  -2 282.552 374.728  19
  -9 -11  -3 15856.7 2239.10  19
  -9 -11  -3 12795.1 1492.17  23
  -9 -11  -4 16707.0 1785.61  23
  -9 -11  -5 85.8632 277.105  23
  -9 -11  -6-53.7851 143.873  23
  -9 -11  -7 533.329 370.699  17
  -9 -11  -7-130.367 191.490  23
  -9 -11  -8 287.648 234.245  17
  -9 -11  -8 4267.72 846.218  23
  -9 -11  -9 944.745 413.747  17
  -9 -11  -9 4863.73 907.086  23
  -9 -11 -10 346.922 265.073  23
  -9 -12   0 68.4738 106.288  22
  -9 -12   0 248.026 276.480  19
  -9 -12  -1 9612.61 1555.21  19
  -9 -12  -2 11572.5 1665.13  19
  -9 -12  -3 2599.93 793.169  19
  -9 -12  -4 11451.0 1310.09  23
  -9 -12  -5 51969.8 2825.44  23
  -9 -12  -6 7683.83 1153.80  23
  -9 -12  -7 132.905 180.959  23
  -9 -12  -8 701.195 357.616  23
 -10   5   2 1658.89 510.858  10
 -10   5   2 1358.62 384.673   9
 -10   5   1 18045.3 2086.15  10
 -10   5   0 26087.2 2067.47  10
 -10   5  -1 2519.57 553.688  10
 -10   5  -1 2215.59 607.050  16
 -10   5  -2 2360.50 591.851  16
 -10   5  -3 12311.1 1095.02  16
 -10   4   6 8944.63 793.971  29
 -10   4   5-128.325 169.867   9
 -10   4   5-18.3999 57.7524  29
 -10   4   4 1786.56 494.465   9
 -10   4   4 1293.10 308.802  29
 -10   4   3 10605.8 1210.92   9
 -10   4   2 824.722 384.026  10
 -10   4   2 375.792 253.334   9
 -10   4   1 2679.67 719.946  10
 -10   4   1 2417.66 575.514   9
 -10   4   0 3265.47 801.780  10
 -10   4   0 1844.17 449.658  16
 -10   4  -1 702.559 351.890  10
 -10   4  -1 598.054 299.905  16
 -10   4  -2 1876.06 604.872  16
 -10   4  -3 332.064 207.659  16
 -10   4  -4 5888.99 794.096  16
 -10   4  -5 8661.70 863.542  16
 -10   3   7-111.604 169.854  17
 -10   3   7 12.6210 54.2895  29
 -10   3   6 3074.08 663.175  17
 -10   3   6 3297.19 790.048   9
 -10   3   6 3643.24 564.218  29
 -10   3   5 14108.0 1538.51  17
 -10   3   5 12577.2 1478.29   9
 -10   3   5 10576.8 974.521  29
 -10   3   4-319.964 280.973  17
 -10   3   4 84.8073 160.795   9
 -10   3   4 187.799 147.635   8
 -10   3   4 268.191 150.583  29
 -10   3   3 5372.42 941.019   9
 -10   3   3 4988.65 887.634   8
 -10   3   3 4817.27 657.742  29
 -10   3   2 32774.9 2314.11   9
 -10   3   2 31572.7 2220.06   8
 -10   3   1 9654.47 1262.19  10
 -10   3   1 8732.57 1199.02   9
 -10   3   1 8606.38 1148.65   8
 -10   3   0 232.593 270.534  10
 -10   3   0 220.409 242.873   9
 -10   3   0-0.61967 131.197   8
 -10   3   0 5.14313 171.502  16
 -10   3  -1 18487.8 1711.56  10
 -10   3  -1 17409.6 1655.59   8
 -10   3  -1 14625.8 1353.10  16
 -10   3  -2 13891.3 1478.74   8
 -10   3  -2 14335.4 1449.40  16
 -10   3  -3-87.9369 208.035   8
 -10   3  -3 140.195 149.235  16
 -10   3  -4 356.754 225.826  16
 -10   3  -5 1082.00 346.164  16
 -10   3  -6 1280.71 336.971  16
 -10   3  -7 365.126 183.409  16
 -10   2   8 14010.7 1243.43  17
 -10   2   8 12899.1 999.068  29
 -10   2   7 183.641 96.7769  17
 -10   2   7-1.35605 198.963   9
 -10   2   7 67.9541 60.1288  29
 -10   2   6 10872.9 1474.86  17
 -10   2   6 10900.9 1691.13   9
 -10   2   5 10909.0 1540.02  17
 -10   2   5 8990.21 1404.53   9
 -10   2   5 7558.92 1005.29   8
 -10   2   4-33.9539 203.741  17
 -10   2   4-73.7392 275.506   9
 -10   2   4 254.696 182.670   8
 -10   2   3 1713.65 618.931  17
 -10   2   3 1339.73 492.687   9
 -10   2   3 758.823 353.838   8
 -10   2   2 141.886 209.686  17
 -10   2   2 417.497 367.325   9
 -10   2   2-92.8028 159.986   8
 -10   2   1 10277.5 1475.65  17
 -10   2   1 7046.40 1157.96   9
 -10   2   1 7741.55 1090.55   8
 -10   2   0 14901.1 1633.20   9
 -10   2   0 15761.5 1534.50   8
 -10   2  -1 449.835 388.015   9
 -10   2  -1 324.593 178.238   8
 -10   2  -1 385.762 205.304  16
 -10   2  -2 16810.2 1574.11   8
 -10   2  -2 15983.1 1483.72  16
 -10   2  -3 37914.6 2291.21   8
 -10   2  -3 36541.5 2247.58  16
 -10   2  -4 2373.22 601.793   8
 -10   2  -4 2288.93 549.854  16
 -10   2  -5 663.567 288.609   8
 -10   2  -5 676.999 332.312  16
 -10   2  -6 22487.2 1505.96  16
 -10   2  -7 15548.8 1155.44  16
 -10   2  -8-50.4934 79.2456  16
 -10   1   8 143.394 133.158  17
 -10   1   8 220.074 130.525  29
 -10   1   7 18817.4 2209.58   9
 -10   1   7 17659.8 1801.16  17
 -10   1   6 20065.7 2385.36   9
 -10   1   6 20120.0 2120.05  17
 -10   1   5 2809.31 828.963   9
 -10   1   5 1474.42 433.248   8
 -10   1   5 2200.32 775.692  17
 -10   1   4 22865.4 2295.63   9
 -10   1   4 21524.9 1700.77   8
 -10   1   3 39599.5 2931.73   9
 -10   1   3 41200.2 2417.19   8
 -10   1   2 2331.49 672.551   9
 -10   1   2 2338.69 591.268   8
 -10   1   2 3024.24 842.128  17
 -10   1   1 12267.4 1603.11   9
 -10   1   1 12198.5 1348.48   8
 -10   1   0 17318.3 1869.11   9
 -10   1   0 18356.7 1669.15   8
 -10   1   0 22056.3 2243.52  17
 -10   1  -1 1469.84 412.358  16
 -10   1  -1 1642.89 596.798   9
 -10   1  -1 1331.21 442.056   8
 -10   1  -1 1309.78 543.704  17
 -10   1  -2 916.712 367.732   8
 -10   1  -2 1092.33 375.425  16
 -10   1  -3 4415.68 782.643   8
 -10   1  -3 4396.00 767.504  16
 -10   1  -4 1701.26 482.539   8
 -10   1  -4 1634.61 500.204  16
 -10   1  -5 7779.97 983.253   8
 -10   1  -5 7745.95 993.604  16
 -10   1  -6 218.866 131.249  16
 -10   1  -7 6799.83 823.945  16
 -10   1  -8 25390.6 1443.26  16
 -10   1  -9 4178.85 534.526  16
 -10   0   8 3205.04 698.653  17
 -10   0   7 6533.22 1104.02   9
 -10   0   7 6826.98 1213.56  17
 -10   0   6 4351.89 994.168   9
 -10   0   6 4250.76 1030.70  17
 -10   0   5 418.860 351.086   9
 -10   0   5 824.138 548.477  17
 -10   0   4 1377.72 587.855   9
 -10   0   4 829.532 330.816   8
 -10   0   4 1215.56 722.112  17
 -10   0   3 8.93981 160.894   9
 -10   0   3-57.9357 175.108   8
 -10   0   3-271.582 378.245  17
 -10   0   2 11416.0 1570.36   9
 -10   0   2 11861.8 1311.81   8
 -10   0   1 8876.39 1383.80   9
 -10   0   1 8776.21 1151.88   8
 -10   0   0 6725.19 1204.97   9
 -10   0   0 7195.03 1043.15   8
 -10   0   0 9404.70 1531.63  17
 -10   0  -1 28742.5 1833.31  16
 -10   0  -1 30389.1 2539.57   9
 -10   0  -1 33886.4 2265.07   8
 -10   0  -2 41126.2 2279.93  16
 -10   0  -2 43834.8 2543.83   8
 -10   0  -3 966.672 370.443  16
 -10   0  -3 394.382 221.034   8
 -10   0  -3 904.785 382.708  17
 -10   0  -4 10963.3 1211.27   8
 -10   0  -4 10584.3 1184.82  16
 -10   0  -5 22301.9 1675.05   8
 -10   0  -5 23253.6 1733.73  16
 -10   0  -6 6092.89 841.812   8
 -10   0  -6 6535.98 883.249  16
 -10   0  -7 2480.68 504.069  16
 -10   0  -8 6799.34 798.858  16
 -10   0  -9 227.458 223.948  16
 -10  -1   8 20132.5 1800.90  17
 -10  -1   7-37.1895 194.655  17
 -10  -1   6 18292.4 1807.74   9
 -10  -1   6 19647.3 2224.63  17
 -10  -1   5 73320.5 3866.60   9
 -10  -1   5 81773.0 4663.50  17
 -10  -1   4 18977.4 2028.67   9
 -10  -1   4 16773.8 1474.52   8
 -10  -1   4 22483.7 2642.90  17
 -10  -1   3 10039.3 1487.81   9
 -10  -1   3 8687.32 1120.50   8
 -10  -1   2 34545.6 2761.31   9
 -10  -1   2 44412.3 3717.33  17
 -10  -1   1 9178.40 1398.09   9
 -10  -1   1 11906.3 1782.48  17
 -10  -1   0 5121.22 1044.13   9
 -10  -1   0 5995.12 1257.71  17
 -10  -1  -1 966.093 321.123  16
 -10  -1  -1 946.022 502.808   9
 -10  -1  -1 459.078 366.463  17
 -10  -1  -2 1272.58 572.615  17
 -10  -1  -2 699.168 281.674  16
 -10  -1  -3 7187.38 998.887  16
 -10  -1  -3 8117.47 1423.99  17
 -10  -1  -4 3176.77 766.249  17
 -10  -1  -4 2836.65 630.860  16
 -10  -1  -5 3755.21 703.922   8
 -10  -1  -5 4645.06 930.723  17
 -10  -1  -5 4587.62 771.145  16
 -10  -1  -6 17835.7 1445.81   8
 -10  -1  -6 19790.1 1566.92  16
 -10  -1  -7 18906.7 1476.89  16
 -10  -1  -8 2790.75 533.523  16
 -10  -1  -9 24692.8 1466.09  16
 -10  -1 -10 16827.1 1084.40  16
 -10  -2   8 4629.26 821.687  17
 -10  -2   7 348.110 375.252  17
 -10  -2   6 80.9716 181.972  17
 -10  -2   5 2384.04 791.725  17
 -10  -2   5 2630.99 666.268   9
 -10  -2   5 2864.23 601.038  22
 -10  -2   4 16825.8 2119.18  17
 -10  -2   4 15648.6 1715.31   9
 -10  -2   4 15054.8 1410.22  22
 -10  -2   3 12624.7 2385.95  17
 -10  -2   3 16053.6 1842.04   9
 -10  -2   3 15317.7 1453.33  22
 -10  -2   2 287.069 609.302  17
 -10  -2   2 1573.09 615.874   9
 -10  -2   2 453.868 273.506  22
 -10  -2   1 23601.9 1841.19  24
 -10  -2   1 26378.7 2707.19  17
 -10  -2   1 22855.7 2197.49   9
 -10  -2   1 21724.7 1689.48  22
 -10  -2   0 56926.4 2844.37  24
 -10  -2   0 55443.2 3408.62   9
 -10  -2  -1 2290.33 722.639   9
 -10  -2  -1 2028.17 550.658  24
 -10  -2  -1 2026.10 504.155  16
 -10  -2  -1 2156.97 865.813  17
 -10  -2  -2 5568.02 1161.51  17
 -10  -2  -2 4101.06 717.150  16
 -10  -2  -2 5228.06 837.157  24
 -10  -2  -3 28775.8 2698.21  17
 -10  -2  -3 25299.9 1828.11  16
 -10  -2  -3 26133.5 1805.57  24
 -10  -2  -4 15813.4 1440.13  16
 -10  -2  -4 16889.4 2036.08  17
 -10  -2  -5 2092.73 559.453  16
 -10  -2  -5 2289.12 715.294  17
 -10  -2  -6 1055.75 366.711  16
 -10  -2  -6 1030.84 427.438  17
 -10  -2  -7 2554.71 557.331  16
 -10  -2  -7 1578.08 553.016  17
 -10  -2  -7 2150.81 607.723  14
 -10  -2  -8 8478.23 961.450  16
 -10  -2  -8 10124.0 1252.91  14
 -10  -2  -9 2045.88 443.462  16
 -10  -2  -9 1853.49 534.896  14
 -10  -2 -10 452.696 246.518  14
 -10  -2 -10 120.275 115.632  16
 -10  -2 -11 13384.8 1051.89  14
 -10  -3   7 31906.2 2537.26  17
 -10  -3   6 6717.50 875.498  22
 -10  -3   6 8866.84 1491.11  17
 -10  -3   5-17.4533 149.916  22
 -10  -3   5 385.240 357.911  17
 -10  -3   4 12823.0 1309.52  22
 -10  -3   4 7361.94 1941.04  17
 -10  -3   3 2987.78 644.943  22
 -10  -3   3 2777.20 858.991  17
 -10  -3   3 2790.71 612.694  24
 -10  -3   2 737.622 331.441  22
 -10  -3   2 1070.00 397.238   9
 -10  -3   2 254.525 554.923  17
 -10  -3   2 654.621 283.594  24
 -10  -3   1 649.983 308.299  22
 -10  -3   1 18.3297 374.073  17
 -10  -3   1 1309.10 475.582   9
 -10  -3   1 932.625 395.747  24
 -10  -3   0 1603.68 599.821   9
 -10  -3   0 1051.61 396.825  24
 -10  -3   0 1279.05 396.292  22
 -10  -3   0 1122.50 717.603  17
 -10  -3  -1 5504.73 802.977  22
 -10  -3  -1 6058.60 1239.44  17
 -10  -3  -1 4727.69 739.128  16
 -10  -3  -1 5078.23 841.174  24
 -10  -3  -2 10598.0 1668.50  17
 -10  -3  -2 8532.27 1056.29  16
 -10  -3  -2 10653.9 1214.45  24
 -10  -3  -3-90.8464 125.512  24
 -10  -3  -3 266.678 201.285  16
 -10  -3  -3-434.490 441.479  17
 -10  -3  -4 19485.7 2238.47  17
 -10  -3  -4 16139.2 1456.06  16
 -10  -3  -4 15805.0 1379.52  24
 -10  -3  -5 28852.3 1948.33  16
 -10  -3  -5 32057.9 2887.29  17
 -10  -3  -6 378.990 223.693  16
 -10  -3  -6-169.407 419.563  17
 -10  -3  -6 94.4441 275.095  14
 -10  -3  -7 11015.6 1154.74  16
 -10  -3  -7 8573.64 1208.31  14
 -10  -3  -7 9020.05 1464.22  17
 -10  -3  -8 19580.8 1486.32  16
 -10  -3  -8 19746.9 1910.38  14
 -10  -3  -8 15621.2 1793.11  17
 -10  -3  -9 1009.31 304.828  16
 -10  -3  -9 708.541 335.914  17
 -10  -3  -9 1398.07 542.263  14
 -10  -3 -10 2655.98 625.047  14
 -10  -3 -10 1721.67 379.624  16
 -10  -3 -11 1627.53 409.365  14
 -10  -4   7 779.513 301.211  22
 -10  -4   7 1404.11 507.391  17
 -10  -4   6 11606.4 1146.32  22
 -10  -4   6 14816.5 1857.38  17
 -10  -4   5 9624.24 1094.84  22
 -10  -4   5 6695.82 1830.75  17
 -10  -4   4 598.375 452.915  17
 -10  -4   4 270.176 145.202  22
 -10  -4   3 14427.3 1396.13  24
 -10  -4   3 15862.5 1523.60  22
 -10  -4   3 12435.6 1896.68  17
 -10  -4   2 29362.2 2054.36  24
 -10  -4   2 31311.7 2169.52  22
 -10  -4   1 16409.2 1577.63  24
 -10  -4   1 18720.8 2279.59  17
 -10  -4   1 16910.4 1555.72  22
 -10  -4   0 2547.66 570.082  22
 -10  -4   0 2314.34 591.770  24
 -10  -4   0 1681.42 903.890  17
 -10  -4  -1 19996.0 1758.15  24
 -10  -4  -1 20528.4 1591.34  22
 -10  -4  -1 21924.8 2409.61  17
 -10  -4  -2 7332.49 956.394  16
 -10  -4  -2 9543.62 1197.99  24
 -10  -4  -2 8948.69 1572.10  17
 -10  -4  -3 794.709 330.571  24
 -10  -4  -3 177.047 158.880  16
 -10  -4  -3 257.231 414.068  17
 -10  -4  -4 3518.26 676.769  24
 -10  -4  -4 3474.41 673.973  16
 -10  -4  -4 2983.97 939.111  17
 -10  -4  -5 214.422 182.061  24
 -10  -4  -5 412.407 244.230  16
 -10  -4  -5-113.474 257.157  17
 -10  -4  -6 13532.8 1324.65  16
 -10  -4  -6 14281.7 2088.10  17
 -10  -4  -7 2949.83 598.422  16
 -10  -4  -7 2416.90 875.165  17
 -10  -4  -7 2367.57 611.368  14
 -10  -4  -8 1316.61 589.639  17
 -10  -4  -8 465.054 367.331  14
 -10  -4  -8 702.253 242.258  16
 -10  -4  -9 27239.4 1693.97  16
 -10  -4  -9 28852.7 2647.46  14
 -10  -4 -10 35263.4 2592.61  14
 -10  -4 -10 21724.4 1887.91  17
 -10  -4 -11 329.070 201.478  14
 -10  -5   7 11.6537 88.8235  22
 -10  -5   6 6812.92 861.235  22
 -10  -5   6 10842.6 1398.70  17
 -10  -5   5 1469.77 410.995  22
 -10  -5   5 1873.68 735.844  17
 -10  -5   4 448.186 262.742  22
 -10  -5   4 135.842 165.752  24
 -10  -5   4 121.825 294.929  17
 -10  -5   3 9820.81 1124.56  24
 -10  -5   3 7846.19 1475.14  17
 -10  -5   2 76.6955 246.065  22
 -10  -5   2-205.773 359.064  17
 -10  -5   2 197.802 174.512  24
 -10  -5   1 15203.4 2193.10  17
 -10  -5   1 12970.0 1411.24  24
 -10  -5   1 15415.8 1527.39  22
 -10  -5   0 16469.5 2415.43  17
 -10  -5   0 18007.1 1713.42  24
 -10  -5   0 18406.4 1601.13  22
 -10  -5  -1 266.094 191.192  22
 -10  -5  -1 388.614 219.905  24
 -10  -5  -1 116.366 212.873  17
 -10  -5  -2 33622.5 2995.78  17
 -10  -5  -2 32770.3 2299.76  24
 -10  -5  -3 29814.4 2831.67  17
 -10  -5  -3 26688.8 2030.54  24
 -10  -5  -4 8307.96 1531.81  17
 -10  -5  -4 7510.70 1022.36  24
 -10  -5  -5 8169.82 1576.85  17
 -10  -5  -5 8362.65 1015.58  24
 -10  -5  -5 8742.20 1100.51  16
 -10  -5  -6 11969.2 2033.21  17
 -10  -5  -6 14909.0 1417.78  16
 -10  -5  -7 8924.90 1887.22  17
 -10  -5  -8 1185.09 835.269  17
 -10  -5  -9-152.364 207.843  14
 -10  -5  -9 415.124 427.919  17
 -10  -5 -10 43.8108 196.808  17
 -10  -5 -10 131.265 162.078  14
 -10  -5 -11 3543.72 670.585  14
 -10  -5 -11 1703.66 535.572  17
 -10  -6   6 10335.7 1011.22  22
 -10  -6   5 7855.29 951.104  22
 -10  -6   4 39292.3 2042.34  24
 -10  -6   4 46003.1 2521.83  22
 -10  -6   4 45882.7 3160.93  17
 -10  -6   3 25212.5 1763.71  24
 -10  -6   3 21087.2 2298.08  17
 -10  -6   2 164.797 151.673  22
 -10  -6   2 316.394 237.124  24
 -10  -6   1 15664.2 1515.30  24
 -10  -6   1 19816.0 1832.84  22
 -10  -6   0 2601.55 627.667  22
 -10  -6   0 2302.40 939.901  17
 -10  -6   0 3412.59 735.696  24
 -10  -6  -1 102.150 132.832  22
 -10  -6  -1 394.127 292.697  24
 -10  -6  -1-251.734 419.940  17
 -10  -6  -2 3931.63 834.043  24
 -10  -6  -2 2283.06 863.120  17
 -10  -6  -3 3187.09 719.263  24
 -10  -6  -3 2626.27 777.493  17
 -10  -6  -4 11596.2 1339.16  24
 -10  -6  -4 9939.90 1632.87  17
 -10  -6  -5 16116.5 1461.87  24
 -10  -6  -5 15060.3 2185.93  17
 -10  -6  -6 195.686 140.840  24
 -10  -6  -6 25.4974 218.050  17
 -10  -6  -7 7930.61 1919.87  17
 -10  -6  -8 10252.1 2325.75  17
 -10  -6  -9 4118.99 1735.70  17
 -10  -6 -10 1657.15 878.466  17
 -10  -6 -11 4972.88 1071.44  17
 -10  -7   6 0.33646 74.1404  22
 -10  -7   5 2437.25 510.661  22
 -10  -7   4 21.3838 169.079  22
 -10  -7   4 123.714 208.166  24
 -10  -7   3 8815.83 1170.29  22
 -10  -7   3 8443.65 962.044  24
 -10  -7   2 32964.0 2567.22  22
 -10  -7   2 26761.9 1832.04  24
 -10  -7   1 26289.4 2316.05  22
 -10  -7   1 19347.4 1646.50  24
 -10  -7   0 3609.45 921.274  17
 -10  -7   0 5205.88 939.217  22
 -10  -7   0 4752.09 866.468  24
 -10  -7  -1 40823.5 2670.03  24
 -10  -7  -1 41280.9 2404.29  22
 -10  -7  -2 47031.2 3305.99  17
 -10  -7  -2 50194.5 3193.91  24
 -10  -7  -3 173.663 283.983  24
 -10  -7  -3 203.381 209.101  17
 -10  -7  -4 6968.34 1370.78  17
 -10  -7  -4 9590.12 1355.84  24
 -10  -7  -5 12478.0 1788.94  17
 -10  -7  -5 17789.9 1650.85  24
 -10  -7  -6 43.7897 272.579  17
 -10  -7  -6-23.0153 148.162  24
 -10  -7  -7 1883.03 783.085  17
 -10  -7  -8 521.332 535.942  17
 -10  -7  -9 508.098 566.658  17
 -10  -7 -10 3238.28 914.552  17
 -10  -7 -11 53.6541 128.367  17
 -10  -8   5 33813.0 1737.62  22
 -10  -8   4 7186.37 892.376  22
 -10  -8   3 9872.43 970.983  24
 -10  -8   3 10922.5 1235.44  22
 -10  -8   2 16929.6 1363.86  24
 -10  -8   2 18103.6 1889.48  22
 -10  -8   1 1635.25 450.431  24
 -10  -8   1 1886.14 760.503  22
 -10  -8   0 3380.49 829.969  22
 -10  -8   0 3263.93 682.038  24
 -10  -8   0 1449.18 672.471  17
 -10  -8  -1 2439.27 602.163  22
 -10  -8  -1 2065.04 614.851  24
 -10  -8  -1 3155.93 792.930  17
 -10  -8  -2 7461.45 1244.02  24
 -10  -8  -2 9975.06 1489.40  17
 -10  -8  -3 26713.8 2549.93  24
 -10  -8  -3 27387.3 2401.42  17
 -10  -8  -4 10186.7 1563.50  24
 -10  -8  -4 9095.16 1420.02  17
 -10  -8  -5 5981.72 1029.30  24
 -10  -8  -5 6569.08 1265.64  23
 -10  -8  -5 3821.08 1023.85  17
 -10  -8  -6 23385.1 1823.36  24
 -10  -8  -6 20307.0 2179.03  17
 -10  -8  -7 28563.0 1734.88  24
 -10  -8  -7 17078.5 2025.92  17
 -10  -8  -8-93.7825 237.220  17
 -10  -8  -9 3980.59 966.752  17
 -10  -8 -10 2812.13 758.868  17
 -10  -9   3 10225.2 1050.27  22
 -10  -9   2 1485.96 380.395  24
 -10  -9   2 1155.75 403.051  22
 -10  -9   1 7624.15 921.678  24
 -10  -9   1 9472.13 1365.26  22
 -10  -9   0 26431.0 1820.19  24
 -10  -9   0 29996.9 2471.96  22
 -10  -9  -1 4968.97 893.115  24
 -10  -9  -1 3865.64 765.399  22
 -10  -9  -2 5998.08 1089.89  24
 -10  -9  -2 7589.89 1445.14  17
 -10  -9  -3 6891.26 1233.08  24
 -10  -9  -3 7880.10 1248.39  17
 -10  -9  -4 1433.64 502.513  17
 -10  -9  -4 2563.65 903.388  24
 -10  -9  -5 1245.33 536.835  17
 -10  -9  -5 1407.86 539.749  24
 -10  -9  -5 2162.87 707.923  23
 -10  -9  -6 3558.73 998.786  17
 -10  -9  -6 8589.88 1141.60  24
 -10  -9  -7-308.453 237.528  17
 -10  -9  -7 207.539 166.251  24
 -10  -9  -7 398.128 414.734  23
 -10  -9  -8 2178.03 663.637  17
 -10  -9  -9 1609.21 595.798  17
 -10  -9 -10-156.119 115.640  17
 -10 -10   1 1510.74 370.498  24
 -10 -10   1 1371.22 393.433  22
 -10 -10   0 3667.36 627.708  24
 -10 -10   0 3964.45 709.963  22
 -10 -10  -1 6879.13 909.914  24
 -10 -10  -2 2717.93 692.905  24
 -10 -10  -3 1182.72 470.144  24
 -10 -10  -4 15316.5 1758.73  24
 -10 -10  -5 10795.7 1291.08  17
 -10 -10  -5 15262.2 1736.21  24
 -10 -10  -6 1075.77 386.556  17
 -10 -10  -6 1461.96 451.418  24
 -10 -10  -7 3810.82 791.100  17
 -10 -10  -7 6136.56 858.552  24
 -10 -10  -8 1065.98 496.145  17
 -10 -11  -1 5338.12 692.486  24
 -10 -11  -2 127.234 120.481  24
 -10 -11  -3-281.742 236.609  24
 -10 -11  -4 225.459 186.008  24
 -10 -11  -5 4248.93 765.092  24
 -10 -11  -6 3763.39 692.222  24
 -11   2   2 13218.2 1358.56   9
 -11   2   1 126.918 207.665   8
 -11   2   0 21468.9 1686.98   8
 -11   2  -1 30504.1 2019.59   8
 -11   2  -3 10860.5 1129.76  16
 -11   1   4 1802.08 545.019  17
 -11   1   3 19015.7 1854.55   9
 -11   1   3 24718.1 2067.43  17
 -11   1   2 8121.25 1181.17   9
 -11   1   2 8272.99 1027.02   8
 -11   1   2 9838.69 1308.85  17
 -11   1   1 260.596 200.613   8
 -11   1   1-238.004 271.544  17
 -11   1   0 4102.95 733.084   8
 -11   1  -1-78.5851 143.373   8
 -11   1  -2 4815.00 774.835   8
 -11   1  -2 3813.48 606.428  16
 -11   1  -3 4120.60 697.124   8
 -11   1  -3 3574.23 621.491  16
 -11   1  -4 1252.00 396.362  16
 -11   1  -5 9096.45 910.549  16
 -11   0   5 12430.0 1428.41  17
 -11   0   4 18912.8 1870.24  17
 -11   0   3 3399.88 818.702   9
 -11   0   3 2664.25 536.961   8
 -11   0   3 3535.20 865.531  17
 -11   0   2 7014.51 1146.07   9
 -11   0   2 7153.39 943.219   8
 -11   0   2 9693.13 1404.21  17
 -11   0   1 44060.9 2787.10   9
 -11   0   1 39523.0 2238.43   8
 -11   0   1 46323.4 3101.55  17
 -11   0   0 19097.0 1567.36   8
 -11   0   0 19845.3 2009.95  17
 -11   0  -1 661.767 321.166   8
 -11   0  -1 309.920 216.842  17
 -11   0  -2 19708.2 1359.25  16
 -11   0  -2 23765.2 1719.16   8
 -11   0  -3 13415.2 1261.59   8
 -11   0  -3 13567.2 1195.89  16
 -11   0  -4-7.51611 97.1859   8
 -11   0  -4 456.497 259.433  16
 -11   0  -5 5711.00 757.562  16
 -11   0  -6-189.895 91.6000  16
 -11  -1   5 4156.15 878.690  17
 -11  -1   4 7176.84 1290.51  17
 -11  -1   3 35.4661 100.047   9
 -11  -1   3-6.30832 54.4084   8
 -11  -1   2 1417.42 501.038   9
 -11  -1   2 1210.35 381.380   8
 -11  -1   2 1059.62 612.634  17
 -11  -1   1 100.566 91.9444   8
 -11  -1   1 347.200 297.837  17
 -11  -1   0 10806.6 1203.28   8
 -11  -1   0 12067.7 1747.12  17
 -11  -1  -1 9129.44 1115.82   8
 -11  -1  -1 10124.3 1492.24  17
 -11  -1  -2 1628.15 394.530  16
 -11  -1  -2 1916.76 499.132   8
 -11  -1  -2 1845.57 652.086  17
 -11  -1  -3 9465.19 1003.25  16
 -11  -1  -3 11396.6 1174.83   8
 -11  -1  -3 8098.20 1276.70  17
 -11  -1  -4 39543.2 2028.07  16
 -11  -1  -4 40479.8 2131.57   8
 -11  -1  -5 20388.3 1438.24   8
 -11  -1  -5 20758.9 1445.87  16
 -11  -1  -6 400.714 226.786  16
 -11  -1  -7 14212.3 1093.42  16
 -11  -2   5 3747.33 846.232  17
 -11  -2   4-45.9642 146.647  17
 -11  -2   3 11707.4 1118.54   8
 -11  -2   3 14412.9 1990.57  17
 -11  -2   2 2709.71 574.860   8
 -11  -2   2 1921.03 837.678  17
 -11  -2   1 3254.20 661.213   8
 -11  -2   1 4398.15 1013.54  17
 -11  -2   0 3175.98 665.562   8
 -11  -2   0 2815.98 929.002  17
 -11  -2  -1 2984.61 646.027   8
 -11  -2  -1 2316.40 727.930  17
 -11  -2  -2-76.6317 125.081  16
 -11  -2  -2 11.3321 164.153   8
 -11  -2  -2 84.4115 285.332  17
 -11  -2  -3 1513.65 393.564  16
 -11  -2  -3 1427.43 441.927   8
 -11  -2  -3 727.089 403.027  17
 -11  -2  -4 466.266 220.531  16
 -11  -2  -4 12.6970 90.0852   8
 -11  -2  -4 621.396 372.283  17
 -11  -2  -5 5546.42 752.248  16
 -11  -2  -5 4948.51 724.559   8
 -11  -2  -5 6394.14 1167.51  17
 -11  -2  -6 2565.10 517.485  16
 -11  -2  -6 2307.29 710.682  17
 -11  -2  -7 1308.36 343.494  16
 -11  -2  -8 4818.66 620.873  16
 -11  -3   5 311.147 297.845  17
 -11  -3   4 7294.46 1401.81  17
 -11  -3   3 1432.09 365.070   8
 -11  -3   3 1157.74 738.807  17
 -11  -3   2 6046.44 863.217   8
 -11  -3   2 7161.57 1369.76  17
 -11  -3   1 10080.4 1859.01  17
 -11  -3   0 4639.64 1054.66  17
 -11  -3  -1 4791.16 1052.58  17
 -11  -3  -2 16131.5 2062.75  17
 -11  -3  -3 8103.86 918.244  16
 -11  -3  -3 10507.2 1713.84  17
 -11  -3  -4-320.699 307.742  17
 -11  -3  -4-91.7084 112.937  16
 -11  -3  -5 6150.08 820.874  16
 -11  -3  -5 6141.52 842.666   8
 -11  -3  -5 7677.22 1356.37  17
 -11  -3  -6 508.812 205.366   8
 -11  -3  -6 677.613 406.230  17
 -11  -3  -6 1024.34 311.086  16
 -11  -3  -7 359.351 264.903  17
 -11  -3  -7 207.695 140.785  16
 -11  -4   4 20285.3 2017.53  17
 -11  -4   3 538.116 436.929  17
 -11  -4   2 5603.78 1139.97  17
 -11  -4   1 8136.89 1413.18  17
 -11  -4   0-877.706 490.813  17
 -11  -4   0 675.267 297.455  24
 -11  -4  -1 2826.48 855.102  17
 -11  -4  -1 3875.22 725.512  24
 -11  -4  -2-45.1829 208.918  17
 -11  -4  -2-97.0284 157.608  24
 -11  -4  -3 16325.3 1373.35  24
 -11  -4  -3 17952.5 2138.04  17
 -11  -4  -4 10640.2 1629.80  17
 -11  -4  -5 1403.97 573.292  17
 -11  -4  -6 9966.25 1566.25  17
 -11  -4  -7 24473.7 2360.57  17
 -11  -4  -8 9029.96 1202.23  17
 -11  -5   4 3389.48 623.437  22
 -11  -5   3 24799.4 2230.30  17
 -11  -5   3 32134.9 2061.12  22
 -11  -5   2 5476.84 1168.14  17
 -11  -5   2 10338.7 1225.02  22
 -11  -5   1 751.814 526.383  17
 -11  -5   1 772.876 322.934  24
 -11  -5   1 695.383 302.187  22
 -11  -5   0 16522.4 1972.13  17
 -11  -5   0 21798.4 1722.31  24
 -11  -5  -1 13042.1 2178.11  17
 -11  -5  -1 29807.3 2057.06  24
 -11  -5  -2 405.133 321.171  17
 -11  -5  -2 123.466 121.515  24
 -11  -5  -3 6120.07 1179.31  17
 -11  -5  -3 5893.96 873.502  24
 -11  -5  -4 8525.69 969.727  24
 -11  -5  -4 9037.70 1523.13  17
 -11  -5  -5-319.665 374.203  17
 -11  -5  -6 545.967 532.658  17
 -11  -5  -7 239.901 246.871  17
 -11  -5  -8 5538.62 1123.48  17
 -11  -6   3 215.623 205.754  22
 -11  -6   2-48.8572 132.289  17
 -11  -6   2-189.135 155.181  24
 -11  -6   1 10843.5 1130.08  24
 -11  -6   1 12231.4 1367.29  22
 -11  -6   0 2315.74 796.892  17
 -11  -6   0 4320.64 758.482  24
 -11  -6   0 3389.20 659.695  22
 -11  -6  -1 689.384 482.821  17
 -11  -6  -1 818.352 365.975  24
 -11  -6  -2 22392.8 1862.91  24
 -11  -6  -2 17924.1 2100.95  17
 -11  -6  -3 5963.25 952.177  24
 -11  -6  -3 6556.81 1234.85  17
 -11  -6  -4 4023.49 969.762  17
 -11  -6  -4 3854.50 681.720  24
 -11  -6  -5 18325.8 1345.74  24
 -11  -6  -5 21503.7 2267.43  17
 -11  -6  -6 34773.7 2995.89  17
 -11  -6  -7 2117.09 797.754  17
 -11  -6  -8 9002.86 1747.14  17
 -11  -7   2 7475.53 825.691  24
 -11  -7   2 8870.37 1247.41  22
 -11  -7   1 29349.7 1764.81  24
 -11  -7   1 35639.6 2652.47  22
 -11  -7   0 5674.87 857.012  24
 -11  -7   0 5104.84 853.926  22
 -11  -7  -1-136.767 249.253  17
 -11  -7  -1-74.7140 208.331  24
 -11  -7  -2 5389.66 1156.43  17
 -11  -7  -2 16142.8 1680.27  24
 -11  -7  -3 7727.46 1316.62  17
 -11  -7  -3 7726.72 1162.39  24
 -11  -7  -4 108.963 149.159  17
 -11  -7  -4 29.1392 122.261  24
 -11  -7  -5 861.186 443.899  17
 -11  -7  -5 724.659 273.869  24
 -11  -7  -6 2766.74 728.790  17
 -11  -7  -7 19037.2 2085.14  17
 -11  -7  -8 3576.78 910.806  17
 -11  -8   0 17135.0 1337.81  24
 -11  -8  -1 23845.5 1737.40  24
 -11  -8  -2 833.687 371.626  24
 -11  -8  -2 592.989 408.771  17
 -11  -8  -3 13986.6 1794.36  24
 -11  -8  -3 5475.26 978.060  17
 -11  -8  -4 38963.2 2558.98  24
 -11  -8  -4 42433.8 2839.92  17
 -11  -8  -5 5639.20 807.252  24
 -11  -8  -5 6430.17 1033.09  17
 -11  -8  -6 1575.86 553.951  17
 -11  -9  -2 279.022 129.720  24
 -11  -9  -3 4466.83 845.495  24
   0   0   0    0.00    0.00   0

TITL 1abs in P-1
REM P-1 (#2 in standard setting)
CELL 1.54184   9.919286  13.703396  15.732137  75.0134  84.7241  78.5505
ZERR    9.00   0.000457   0.000755   0.000842   0.0047   0.0041   0.0042
LATT  1
SFAC C H N O
UNIT 99.00 90.00 9.00 9.00
TREF
HKLF 4
END
;
_shelx_hkl_checksum              7894
loop_
_space_group_symop_operation_xyz
'x, y, z'
'-x, -y, -z'
loop_
_atom_site_label
_atom_site_type_symbol
_atom_site_fract_x
_atom_site_fract_y
_atom_site_fract_z
_atom_site_U_iso_or_equiv
_atom_site_adp_type
_atom_site_occupancy
_atom_site_site_symmetry_order
_atom_site_calc_flag
_atom_site_refinement_flags_posn
_atom_site_refinement_flags_adp
_atom_site_refinement_flags_occupancy
_atom_site_disorder_assembly
_atom_site_disorder_group
Au1 Au 1.07493(2) 0.35078(2) 0.32934(2) 0.02296(12) Uani 1 1 d . . . . .
Ag1 Ag 0.64269(4) 0.06222(3) 0.59594(2) 0.01627(13) Uani 1 1 d . . . A 1
Cl1 Cl 1.18204(15) 0.48624(12) 0.32351(10) 0.0294(3) Uani 1 1 d . . . B 1
Cl41 Cl 1.1518(2) 0.46433(18) 0.07658(13) 0.0536(5) Uani 1 1 d . . . C 1
Cl42 Cl 1.0262(2) 0.68012(17) 0.04940(12) 0.0474(4) Uani 1 1 d . . . C 1
N2 N 0.9003(5) 0.1804(4) 0.3808(3) 0.0192(10) Uani 1 1 d . . . A 1
N22 N 0.6443(5) -0.0793(4) 0.5748(3) 0.0212(10) Uani 1 1 d . . . A 1
N23 N 0.5405(5) 0.0202(4) 0.7159(3) 0.0225(10) Uani 1 1 d . . . A 1
N24 N 0.6436(5) 0.2025(4) 0.6157(3) 0.0207(10) Uani 1 1 d . . . A 1
N32 N 1.0562(5) 0.1604(4) 0.2812(3) 0.0247(11) Uani 1 1 d . . . A 1
C1 C 0.7994(6) 0.1945(5) 0.4512(4) 0.0210(12) Uani 1 1 d . . . A 1
C3 C 0.9044(6) 0.0831(5) 0.3681(4) 0.0201(12) Uani 1 1 d . . . A 1
C4 C 0.8109(6) 0.0317(5) 0.4321(4) 0.0204(12) Uani 1 1 d . . . A 1
C5 C 0.7845(6) -0.0659(5) 0.4371(4) 0.0198(12) Uani 1 1 d . . . A 1
C6 C 0.6983(6) -0.1140(4) 0.5027(4) 0.0189(12) Uani 1 1 d . . . A 1
C7 C 0.6556(6) -0.2092(5) 0.5058(4) 0.0227(12) Uani 1 1 d . . . A 1
H7A H 0.678656 -0.248504 0.464671 0.027 Uiso 1 1 calc R U . A 1
C8 C 0.5742(6) -0.2309(5) 0.5811(4) 0.0202(12) Uani 1 1 d . . . A 1
H8A H 0.530085 -0.287151 0.599876 0.024 Uiso 1 1 calc R U . A 1
C9 C 0.5694(6) -0.1507(5) 0.6258(4) 0.0196(12) Uani 1 1 d . . . A 1
C10 C 0.5075(6) -0.1521(5) 0.7089(4) 0.0206(12) Uani 1 1 d . . . A 1
C11 C 0.5050(6) -0.0745(5) 0.7534(4) 0.0197(12) Uani 1 1 d . . . A 1
C12 C 0.4701(6) -0.0820(5) 0.8452(4) 0.0227(12) Uani 1 1 d . . . A 1
H12A H 0.443857 -0.138290 0.885733 0.027 Uiso 1 1 calc R U . A 1
C13 C 0.4823(6) 0.0080(5) 0.8621(4) 0.0241(13) Uani 1 1 d . . . A 1
H13A H 0.466375 0.024472 0.916314 0.029 Uiso 1 1 calc R U . A 1
C14 C 0.5241(6) 0.0731(5) 0.7812(4) 0.0218(13) Uani 1 1 d . . . A 1
C15 C 0.5386(6) 0.1753(5) 0.7683(4) 0.0218(12) Uani 1 1 d . . . A 1
C16 C 0.5822(6) 0.2356(5) 0.6879(4) 0.0216(12) Uani 1 1 d . . . A 1
C17 C 0.5683(6) 0.3452(5) 0.6688(4) 0.0222(12) Uani 1 1 d . . . A 1
H17A H 0.531817 0.386380 0.706954 0.027 Uiso 1 1 calc R U . A 1
C18 C 0.6173(6) 0.3778(5) 0.5858(4) 0.0253(13) Uani 1 1 d . . . A 1
H18A H 0.616531 0.445796 0.555200 0.030 Uiso 1 1 calc R U . A 1
C19 C 0.6714(6) 0.2882(5) 0.5530(4) 0.0195(12) Uani 1 1 d . . . A 1
C20 C 0.7530(6) 0.2885(5) 0.4746(4) 0.0207(12) Uani 1 1 d . . . A 1
C21 C 0.7530(6) 0.1009(5) 0.4832(4) 0.0198(12) Uani 1 1 d . . . A 1
C31 C 1.0025(6) 0.0723(5) 0.3026(4) 0.0232(13) Uani 1 1 d . . . A 1
H31A H 1.027473 0.016342 0.277608 0.028 Uiso 1 1 calc R U . A 1
C33 C 0.9964(6) 0.2269(5) 0.3301(4) 0.0211(12) Uani 1 1 d . . . A 1
C34 C 1.1588(6) 0.1804(5) 0.2085(4) 0.0267(14) Uani 1 1 d . . . A 1
H34A H 1.215227 0.116549 0.202966 0.040 Uiso 1 1 calc R U . A 1
H34B H 1.215573 0.224087 0.220378 0.040 Uiso 1 1 calc R U . A 1
H34C H 1.112818 0.213491 0.154701 0.040 Uiso 1 1 calc R U . A 1
C40 C 1.0238(8) 0.5539(7) 0.1156(5) 0.0447(19) Uani 1 1 d . . . C 1
H40A H 1.040029 0.550973 0.176125 0.054 Uiso 1 1 calc R U . C 1
H40B H 0.934053 0.536449 0.114152 0.054 Uiso 1 1 calc R U . C 1
C51 C 0.8537(6) -0.1200(5) 0.3688(4) 0.0202(12) Uani 1 1 d . . . A 1
C52 C 0.8155(6) -0.0858(5) 0.2814(4) 0.0231(13) Uani 1 1 d . . . A 1
H52A H 0.740616 -0.032969 0.265867 0.028 Uiso 1 1 calc R U . A 1
C53 C 0.8897(7) -0.1309(5) 0.2174(4) 0.0265(13) Uani 1 1 d . . . A 1
H53A H 0.863829 -0.108662 0.159150 0.032 Uiso 1 1 calc R U . A 1
C54 C 1.0014(7) -0.2085(5) 0.2407(5) 0.0311(15) Uani 1 1 d . . . A 1
H54A H 1.051362 -0.237564 0.197542 0.037 Uiso 1 1 calc R U . A 1
C55 C 1.0400(7) -0.2434(5) 0.3257(5) 0.0293(14) Uani 1 1 d . . . A 1
H55A H 1.115384 -0.296118 0.340373 0.035 Uiso 1 1 calc R U . A 1
C56 C 0.9666(6) -0.2001(5) 0.3904(4) 0.0257(13) Uani 1 1 d . . . A 1
H56A H 0.992477 -0.224388 0.448518 0.031 Uiso 1 1 calc R U . A 1
C101 C 0.4522(6) -0.2440(5) 0.7602(4) 0.0209(12) Uani 1 1 d . . . A 1
C102 C 0.5358(7) -0.3416(5) 0.7787(4) 0.0263(13) Uani 1 1 d . . . A 1
H10A H 0.625106 -0.350702 0.754415 0.032 Uiso 1 1 calc R U . A 1
C103 C 0.4853(7) -0.4248(5) 0.8332(4) 0.0291(14) Uani 1 1 d . . . A 1
H10B H 0.541829 -0.489148 0.845610 0.035 Uiso 1 1 calc R U . A 1
C104 C 0.3529(7) -0.4135(6) 0.8691(4) 0.0310(15) Uani 1 1 d . . . A 1
H10C H 0.320533 -0.469594 0.906069 0.037 Uiso 1 1 calc R U . A 1
C105 C 0.2688(7) -0.3184(6) 0.8500(4) 0.0307(14) Uani 1 1 d . . . A 1
H10D H 0.179213 -0.310843 0.873997 0.037 Uiso 1 1 calc R U . A 1
C106 C 0.3154(6) -0.2343(5) 0.7957(4) 0.0236(13) Uani 1 1 d . . . A 1
H10E H 0.256656 -0.170899 0.782429 0.028 Uiso 1 1 calc R U . A 1
C151 C 0.5061(7) 0.2238(5) 0.8437(4) 0.0248(13) Uani 1 1 d . . . A 1
C152 C 0.3775(7) 0.2326(5) 0.8855(4) 0.0260(13) Uani 1 1 d . . . A 1
H15A H 0.307532 0.208655 0.865976 0.031 Uiso 1 1 calc R U . A 1
C153 C 0.3518(7) 0.2778(5) 0.9576(4) 0.0312(15) Uani 1 1 d . . . A 1
H15B H 0.264987 0.283269 0.985768 0.037 Uiso 1 1 calc R U . A 1
C154 C 0.4543(8) 0.3139(5) 0.9864(4) 0.0327(15) Uani 1 1 d . . . A 1
H15C H 0.436215 0.343870 1.033966 0.039 Uiso 1 1 calc R U . A 1
C155 C 0.5849(8) 0.3062(5) 0.9454(4) 0.0323(15) Uani 1 1 d . . . A 1
H15D H 0.654349 0.330527 0.964997 0.039 Uiso 1 1 calc R U . A 1
C156 C 0.6094(7) 0.2610(5) 0.8741(4) 0.0265(13) Uani 1 1 d . . . A 1
H15E H 0.696311 0.255512 0.846094 0.032 Uiso 1 1 calc R U . A 1
C201 C 0.7780(6) 0.3894(5) 0.4207(4) 0.0232(13) Uani 1 1 d . . . A 1
C202 C 0.8346(6) 0.4548(5) 0.4561(4) 0.0236(13) Uani 1 1 d . . . A 1
H20A H 0.865451 0.432321 0.513164 0.028 Uiso 1 1 calc R U . A 1
C203 C 0.8454(6) 0.5528(5) 0.4072(4) 0.0256(13) Uani 1 1 d . . . A 1
H20B H 0.883910 0.595666 0.431234 0.031 Uiso 1 1 calc R U . A 1
C204 C 0.7992(6) 0.5866(5) 0.3230(5) 0.0274(14) Uani 1 1 d . . . A 1
H20C H 0.803665 0.653287 0.290822 0.033 Uiso 1 1 calc R U . A 1
C205 C 0.7458(6) 0.5218(5) 0.2858(4) 0.0270(14) Uani 1 1 d . . . A 1
H20D H 0.718212 0.544002 0.227966 0.032 Uiso 1 1 calc R U . A 1
C206 C 0.7339(6) 0.4249(5) 0.3345(4) 0.0230(13) Uani 1 1 d . . . A 1
H20E H 0.696007 0.382312 0.309706 0.028 Uiso 1 1 calc R U . A 1
C60 C 1.128(2) 0.9241(19) -0.0115(15) 0.077(7) Uani 0.5 1 d . . P D -1
H60A H 1.187409 0.921880 -0.063513 0.092 Uiso 0.5 1 calc R U P D -1
H60B H 1.146315 0.856856 0.029089 0.092 Uiso 0.5 1 calc R U P D -1
Cl61 Cl 0.9590(7) 0.9470(6) -0.0417(4) 0.0831(17) Uani 0.5 1 d . . P D -1
Cl62 Cl 1.1710(7) 1.0150(6) 0.0386(4) 0.0836(17) Uani 0.5 1 d . . P D -1
loop_
_atom_site_aniso_label
_atom_site_aniso_U_11
_atom_site_aniso_U_22
_atom_site_aniso_U_33
_atom_site_aniso_U_23
_atom_site_aniso_U_13
_atom_site_aniso_U_12
Au1 0.02496(17) 0.02385(18) 0.02255(17) -0.00852(11) 0.00210(10) -0.00796(11)
Ag1 0.0225(2) 0.0139(2) 0.0133(2) -0.00397(16) -0.00019(15) -0.00502(16)
Cl1 0.0300(7) 0.0288(8) 0.0354(8) -0.0162(7) 0.0054(6) -0.0119(6)
Cl41 0.0556(11) 0.0629(14) 0.0426(10) -0.0210(10) 0.0010(8) -0.0021(10)
Cl42 0.0547(10) 0.0541(12) 0.0368(9) -0.0150(9) 0.0012(8) -0.0143(9)
N2 0.023(2) 0.019(3) 0.018(2) -0.005(2) -0.0012(19) -0.007(2)
N22 0.025(2) 0.020(3) 0.016(2) -0.001(2) 0.0022(19) -0.004(2)
N23 0.026(2) 0.019(3) 0.025(3) -0.009(2) -0.002(2) -0.004(2)
N24 0.025(2) 0.023(3) 0.014(2) -0.003(2) 0.0018(19) -0.005(2)
N32 0.024(2) 0.030(3) 0.021(2) -0.009(2) 0.000(2) -0.005(2)
C1 0.026(3) 0.018(3) 0.019(3) -0.005(2) -0.004(2) -0.003(2)
C3 0.021(3) 0.023(3) 0.017(3) -0.003(2) -0.001(2) -0.009(2)
C4 0.021(3) 0.024(3) 0.016(3) -0.002(2) -0.005(2) -0.007(2)
C5 0.021(3) 0.023(3) 0.015(3) -0.005(2) -0.001(2) -0.002(2)
C6 0.026(3) 0.011(3) 0.019(3) -0.004(2) -0.003(2) 0.000(2)
C7 0.031(3) 0.019(3) 0.020(3) -0.010(2) 0.003(2) -0.005(2)
C8 0.025(3) 0.018(3) 0.020(3) -0.005(2) -0.001(2) -0.010(2)
C9 0.019(3) 0.018(3) 0.021(3) -0.003(2) -0.006(2) -0.003(2)
C10 0.023(3) 0.018(3) 0.020(3) -0.004(2) -0.003(2) -0.001(2)
C11 0.024(3) 0.018(3) 0.017(3) -0.005(2) -0.004(2) -0.003(2)
C12 0.029(3) 0.019(3) 0.018(3) 0.001(2) 0.004(2) -0.007(2)
C13 0.033(3) 0.023(3) 0.018(3) -0.006(3) 0.000(2) -0.008(3)
C14 0.031(3) 0.022(3) 0.014(3) -0.008(2) 0.002(2) -0.005(2)
C15 0.023(3) 0.026(3) 0.019(3) -0.010(3) -0.001(2) -0.005(2)
C16 0.026(3) 0.019(3) 0.023(3) -0.008(3) -0.004(2) -0.005(2)
C17 0.026(3) 0.022(3) 0.022(3) -0.011(3) 0.000(2) -0.004(2)
C18 0.026(3) 0.027(3) 0.025(3) -0.007(3) -0.003(2) -0.007(3)
C19 0.024(3) 0.017(3) 0.018(3) -0.004(2) -0.004(2) -0.005(2)
C20 0.023(3) 0.023(3) 0.018(3) -0.005(2) -0.004(2) -0.006(2)
C21 0.025(3) 0.015(3) 0.018(3) -0.001(2) -0.002(2) -0.005(2)
C31 0.026(3) 0.019(3) 0.027(3) -0.008(3) -0.003(2) -0.004(2)
C33 0.024(3) 0.024(3) 0.020(3) -0.009(3) 0.000(2) -0.010(2)
C34 0.021(3) 0.028(3) 0.032(3) -0.009(3) 0.008(2) -0.007(2)
C40 0.041(4) 0.062(5) 0.033(4) -0.016(4) 0.010(3) -0.011(4)
C51 0.025(3) 0.019(3) 0.020(3) -0.008(2) 0.004(2) -0.007(2)
C52 0.027(3) 0.023(3) 0.020(3) -0.002(2) -0.003(2) -0.008(2)
C53 0.034(3) 0.033(4) 0.014(3) -0.005(3) -0.003(2) -0.012(3)
C54 0.033(3) 0.032(4) 0.035(4) -0.019(3) 0.009(3) -0.015(3)
C55 0.029(3) 0.025(3) 0.036(4) -0.013(3) -0.002(3) -0.003(3)
C56 0.031(3) 0.023(3) 0.026(3) -0.009(3) -0.001(3) -0.010(3)
C101 0.028(3) 0.021(3) 0.015(3) -0.004(2) -0.001(2) -0.008(2)
C102 0.030(3) 0.025(3) 0.025(3) -0.009(3) 0.000(2) -0.006(3)
C103 0.042(4) 0.023(3) 0.023(3) -0.005(3) -0.002(3) -0.008(3)
C104 0.044(4) 0.035(4) 0.018(3) -0.003(3) -0.002(3) -0.022(3)
C105 0.042(4) 0.038(4) 0.018(3) -0.010(3) 0.007(3) -0.019(3)
C106 0.026(3) 0.031(4) 0.018(3) -0.010(3) -0.001(2) -0.010(3)
C151 0.036(3) 0.018(3) 0.018(3) -0.001(2) 0.002(2) -0.005(3)
C152 0.033(3) 0.025(3) 0.020(3) -0.006(3) -0.002(2) -0.006(3)
C153 0.042(4) 0.023(3) 0.025(3) -0.004(3) 0.009(3) -0.002(3)
C154 0.052(4) 0.024(3) 0.021(3) -0.004(3) -0.003(3) -0.005(3)
C155 0.047(4) 0.028(4) 0.026(3) -0.010(3) -0.005(3) -0.008(3)
C156 0.032(3) 0.029(4) 0.023(3) -0.014(3) -0.001(2) -0.009(3)
C201 0.027(3) 0.023(3) 0.019(3) -0.007(2) -0.001(2) -0.003(2)
C202 0.026(3) 0.023(3) 0.024(3) -0.009(3) 0.002(2) -0.007(2)
C203 0.022(3) 0.024(3) 0.034(3) -0.013(3) 0.002(2) -0.005(2)
C204 0.025(3) 0.019(3) 0.037(3) -0.004(3) 0.003(3) -0.008(2)
C205 0.029(3) 0.029(4) 0.019(3) -0.002(3) 0.005(2) -0.005(3)
C206 0.021(3) 0.024(3) 0.025(3) -0.006(3) 0.001(2) -0.007(2)
C60 0.076(13) 0.076(15) 0.064(13) 0.036(11) -0.026(10) -0.042(12)
Cl61 0.092(4) 0.106(5) 0.053(3) 0.000(3) -0.010(3) -0.043(4)
Cl62 0.101(4) 0.100(5) 0.057(3) -0.008(3) -0.009(3) -0.047(4)
loop_
_atom_type_symbol
_atom_type_description
_atom_type_scat_dispersion_real
_atom_type_scat_dispersion_imag
_atom_type_scat_source
C C 0.0181 0.0091 'International Tables Vol C Tables 4.2.6.8 and 6.1.1.4'
H H 0.0000 0.0000 'International Tables Vol C Tables 4.2.6.8 and 6.1.1.4'
N N 0.0311 0.0180 'International Tables Vol C Tables 4.2.6.8 and 6.1.1.4'
Cl Cl 0.3639 0.7018 'International Tables Vol C Tables 4.2.6.8 and 6.1.1.4'
Ag Ag 0.1306 4.2820 'International Tables Vol C Tables 4.2.6.8 and 6.1.1.4'
Au Au -4.4197 7.2980 'International Tables Vol C Tables 4.2.6.8 and 6.1.1.4'
loop_
_geom_angle_atom_site_label_1
_geom_angle_atom_site_label_2
_geom_angle_atom_site_label_3
_geom_angle
_geom_angle_site_symmetry_1
_geom_angle_site_symmetry_3
_geom_angle_publ_flag
C33 Au1 Cl1 175.13(17) . . ?
C21 Ag1 N24 88.8(2) . . ?
C21 Ag1 N22 90.5(2) . . ?
N24 Ag1 N22 179.15(19) . . ?
C21 Ag1 N23 176.4(2) . . ?
N24 Ag1 N23 90.7(2) . . ?
N22 Ag1 N23 90.0(2) . . ?
C33 N2 C3 111.3(5) . . ?
C33 N2 C1 140.4(5) . . ?
C3 N2 C1 108.0(5) . . ?
C6 N22 C9 107.6(5) . . ?
C6 N22 Ag1 127.2(4) . . ?
C9 N22 Ag1 124.4(4) . . ?
C11 N23 C14 107.1(5) . . ?
C11 N23 Ag1 126.3(4) . . ?
C14 N23 Ag1 125.1(4) . . ?
C16 N24 C19 107.1(5) . . ?
C16 N24 Ag1 124.3(4) . . ?
C19 N24 Ag1 126.7(4) . . ?
C33 N32 C31 112.1(5) . . ?
C33 N32 C34 125.8(6) . . ?
C31 N32 C34 122.0(5) . . ?
C21 C1 C20 129.1(6) . . ?
C21 C1 N2 106.4(5) . . ?
C20 C1 N2 124.3(6) . . ?
C31 C3 N2 106.1(5) . . ?
C31 C3 C4 144.9(6) . . ?
N2 C3 C4 108.9(5) . . ?
C5 C4 C21 129.0(5) . . ?
C5 C4 C3 124.9(5) . . ?
C21 C4 C3 106.0(5) . . ?
C6 C5 C4 122.7(5) . . ?
C6 C5 C51 119.7(5) . . ?
C4 C5 C51 117.6(5) . . ?
N22 C6 C5 125.2(6) . . ?
N22 C6 C7 109.7(5) . . ?
C5 C6 C7 125.0(5) . . ?
C8 C7 C6 106.8(5) . . ?
C7 C8 C9 107.6(5) . . ?
N22 C9 C10 127.6(6) . . ?
N22 C9 C8 108.3(5) . . ?
C10 C9 C8 123.9(6) . . ?
C9 C10 C11 123.9(6) . . ?
C9 C10 C101 120.0(5) . . ?
C11 C10 C101 115.8(5) . . ?
N23 C11 C10 125.3(5) . . ?
N23 C11 C12 108.8(5) . . ?
C10 C11 C12 126.0(6) . . ?
C13 C12 C11 107.6(5) . . ?
C12 C13 C14 107.6(5) . . ?
N23 C14 C15 125.0(5) . . ?
N23 C14 C13 108.9(5) . . ?
C15 C14 C13 126.0(5) . . ?
C14 C15 C16 124.0(5) . . ?
C14 C15 C151 118.5(5) . . ?
C16 C15 C151 117.6(6) . . ?
N24 C16 C15 127.5(6) . . ?
N24 C16 C17 108.8(5) . . ?
C15 C16 C17 123.7(6) . . ?
C18 C17 C16 107.9(5) . . ?
C17 C18 C19 107.4(6) . . ?
N24 C19 C20 126.3(5) . . ?
N24 C19 C18 108.5(5) . . ?
C20 C19 C18 124.7(6) . . ?
C1 C20 C19 118.4(6) . . ?
C1 C20 C201 124.7(5) . . ?
C19 C20 C201 116.9(5) . . ?
C1 C21 C4 110.5(5) . . ?
C1 C21 Ag1 125.2(4) . . ?
C4 C21 Ag1 123.7(5) . . ?
N32 C31 C3 106.0(5) . . ?
N2 C33 N32 104.5(5) . . ?
N2 C33 Au1 133.5(4) . . ?
N32 C33 Au1 121.2(4) . . ?
Cl41 C40 Cl42 110.3(4) . . ?
C52 C51 C56 118.8(5) . . ?
C52 C51 C5 120.9(5) . . ?
C56 C51 C5 120.1(5) . . ?
C53 C52 C51 120.0(6) . . ?
C54 C53 C52 119.7(6) . . ?
C55 C54 C53 121.3(6) . . ?
C54 C55 C56 119.8(6) . . ?
C55 C56 C51 120.5(6) . . ?
C102 C101 C106 118.2(6) . . ?
C102 C101 C10 121.1(5) . . ?
C106 C101 C10 120.6(5) . . ?
C103 C102 C101 120.0(6) . . ?
C104 C103 C102 121.0(6) . . ?
C105 C104 C103 119.5(6) . . ?
C104 C105 C106 121.0(6) . . ?
C105 C106 C101 120.2(6) . . ?
C152 C151 C156 118.8(6) . . ?
C152 C151 C15 122.0(6) . . ?
C156 C151 C15 119.2(6) . . ?
C151 C152 C153 120.1(6) . . ?
C154 C153 C152 120.3(6) . . ?
C153 C154 C155 120.8(6) . . ?
C154 C155 C156 118.5(7) . . ?
C155 C156 C151 121.6(6) . . ?
C202 C201 C206 118.4(6) . . ?
C202 C201 C20 121.5(5) . . ?
C206 C201 C20 119.9(6) . . ?
C203 C202 C201 120.7(6) . . ?
C204 C203 C202 119.9(6) . . ?
C203 C204 C205 120.3(6) . . ?
C206 C205 C204 119.9(6) . . ?
C205 C206 C201 120.8(6) . . ?
Cl61 C60 Cl62 115.6(16) . . ?
loop_
_geom_bond_atom_site_label_1
_geom_bond_atom_site_label_2
_geom_bond_distance
_geom_bond_site_symmetry_2
_geom_bond_publ_flag
Au1 C33 2.001(6) . ?
Au1 Cl1 2.2936(16) . ?
Ag1 C21 2.002(6) . ?
Ag1 N24 2.027(5) . ?
Ag1 N22 2.048(5) . ?
Ag1 N23 2.059(5) . ?
Cl41 C40 1.767(8) . ?
Cl42 C40 1.777(9) . ?
N2 C33 1.337(8) . ?
N2 C3 1.391(8) . ?
N2 C1 1.448(8) . ?
N22 C6 1.366(8) . ?
N22 C9 1.387(8) . ?
N23 C11 1.380(8) . ?
N23 C14 1.383(8) . ?
N24 C16 1.377(8) . ?
N24 C19 1.380(8) . ?
N32 C33 1.356(8) . ?
N32 C31 1.368(9) . ?
N32 C34 1.467(8) . ?
C1 C21 1.403(9) . ?
C1 C20 1.409(9) . ?
C3 C31 1.368(9) . ?
C3 C4 1.445(9) . ?
C4 C5 1.395(9) . ?
C4 C21 1.404(9) . ?
C5 C6 1.392(9) . ?
C5 C51 1.501(8) . ?
C6 C7 1.437(9) . ?
C7 C8 1.371(9) . ?
C8 C9 1.442(9) . ?
C9 C10 1.389(9) . ?
C10 C11 1.413(9) . ?
C10 C101 1.485(9) . ?
C11 C12 1.436(8) . ?
C12 C13 1.357(9) . ?
C13 C14 1.431(9) . ?
C14 C15 1.397(9) . ?
C15 C16 1.403(9) . ?
C15 C151 1.486(9) . ?
C16 C17 1.434(9) . ?
C17 C18 1.344(9) . ?
C18 C19 1.442(9) . ?
C19 C20 1.411(9) . ?
C20 C201 1.477(9) . ?
C51 C52 1.394(9) . ?
C51 C56 1.401(9) . ?
C52 C53 1.393(9) . ?
C53 C54 1.378(10) . ?
C54 C55 1.363(10) . ?
C55 C56 1.386(9) . ?
C101 C102 1.402(9) . ?
C101 C106 1.413(9) . ?
C102 C103 1.388(10) . ?
C103 C104 1.378(10) . ?
C104 C105 1.376(11) . ?
C105 C106 1.380(10) . ?
C151 C152 1.378(10) . ?
C151 C156 1.400(10) . ?
C152 C153 1.408(10) . ?
C153 C154 1.373(11) . ?
C154 C155 1.390(11) . ?
C155 C156 1.396(9) . ?
C201 C202 1.394(9) . ?
C201 C206 1.398(9) . ?
C202 C203 1.383(10) . ?
C203 C204 1.375(10) . ?
C204 C205 1.387(10) . ?
C205 C206 1.373(10) . ?
C60 Cl61 1.73(2) . ?
C60 Cl62 1.77(3) . ?
