#------------------------------------------------------------------------------
#$Date: 2020-12-01 04:03:42 +0200 (Tue, 01 Dec 2020) $
#$Revision: 259380 $
#$URL: file:///home/coder/svn-repositories/cod/cif/7/12/74/7127480.cif $
#------------------------------------------------------------------------------
#
# This file is available in the Crystallography Open Database (COD),
# http://www.crystallography.net/
#
# All data on this site have been placed in the public domain by the
# contributors.
#
data_7127480
loop_
_publ_author_name
'Huang, Qing'
'Niu, Qian'
'Ma, Na-Na'
'Dong, Long-Zhang'
'Li, Shun-Li'
'Li, Dong-Sheng'
'Cai, Yue-Peng'
'Lan, Ya-Qian'
_publ_section_title
;
 Axial Cl/Br atom-mediated CO<sub>2</sub> electroreduction performance in
 a stable porphyrin-based metal-organic framework.
;
_journal_issue                   94
_journal_name_full
'Chemical communications (Cambridge, England)'
_journal_page_first              14817
_journal_page_last               14820
_journal_paper_doi               10.1039/d0cc06092e
_journal_volume                  56
_journal_year                    2020
_chemical_formula_moiety         'C112 H72.531 Cd3 Cl1.469 N24 O0.531'
_chemical_formula_sum            'C112 H72.53 Cd3 Cl1.47 N24 O0.53'
_chemical_formula_weight         2152.21
_space_group_crystal_system      orthorhombic
_space_group_IT_number           64
_space_group_name_Hall           '-C 2ac 2'
_space_group_name_H-M_alt        'C m c e'
_atom_sites_solution_hydrogens   geom
_audit_creation_date             2020-02-25
_audit_creation_method
;
Olex2 1.3
(compiled Nov 21 2019 18:26:39 for OlexSys, GUI svn.r6003)
;
_audit_update_record
;
2020-03-27 deposited with the CCDC.	2020-10-27 downloaded from the CCDC.
;
_cell_angle_alpha                90
_cell_angle_beta                 90
_cell_angle_gamma                90
_cell_formula_units_Z            8
_cell_length_a                   47.491(2)
_cell_length_b                   18.5114(10)
_cell_length_c                   27.2738(13)
_cell_measurement_reflns_used    5717
_cell_measurement_temperature    100
_cell_measurement_theta_max      30.22
_cell_measurement_theta_min      2.481
_cell_volume                     23977(2)
_computing_cell_refinement       'SAINT V8.38A (?, 2016)'
_computing_data_reduction        'SAINT V8.38A (?, 2016)'
_computing_molecular_graphics    'Olex2 1.3 (Dolomanov et al., 2009)'
_computing_publication_material  'Olex2 1.3 (Dolomanov et al., 2009)'
_computing_structure_refinement  'SHELXL 2018/3 (Sheldrick, 2015)'
_diffrn_ambient_temperature      100
_diffrn_detector_area_resol_mean 8
_diffrn_measured_fraction_theta_full 0.978
_diffrn_measured_fraction_theta_max 0.977
_diffrn_measurement_device_type  MX-300
_diffrn_measurement_method       '\f scans'
_diffrn_radiation_monochromator  'silicon 111'
_diffrn_radiation_type           synchrotron
_diffrn_radiation_wavelength     0.77485
_diffrn_reflns_av_R_equivalents  0.1285
_diffrn_reflns_av_unetI/netI     0.0883
_diffrn_reflns_Laue_measured_fraction_full 0.978
_diffrn_reflns_Laue_measured_fraction_max 0.977
_diffrn_reflns_limit_h_max       58
_diffrn_reflns_limit_h_min       -58
_diffrn_reflns_limit_k_max       22
_diffrn_reflns_limit_k_min       -22
_diffrn_reflns_limit_l_max       33
_diffrn_reflns_limit_l_min       -33
_diffrn_reflns_number            79777
_diffrn_reflns_point_group_measured_fraction_full 0.978
_diffrn_reflns_point_group_measured_fraction_max 0.977
_diffrn_reflns_theta_full        27.704
_diffrn_reflns_theta_max         28.573
_diffrn_reflns_theta_min         0.935
_diffrn_source                   synchrotron
_diffrn_source_current           0.0
_diffrn_source_power             0.0
_diffrn_source_voltage           0.0
_diffrn_standards_number         0
_exptl_absorpt_coefficient_mu    0.770
_exptl_absorpt_correction_T_max  0.7460
_exptl_absorpt_correction_T_min  0.3201
_exptl_absorpt_correction_type   multi-scan
_exptl_absorpt_process_details
;
 TWINABS-2012/1 (Bruker,2012) was used for absorption correction.

Final HKLF 4 output contains 110222 reflections, Rint = 0.1993
 (58883 with I > 3sig(I), Rint = 0.1657)
;
_exptl_crystal_colour            'metallic dark violet'
_exptl_crystal_colour_lustre     metallic
_exptl_crystal_colour_modifier   dark
_exptl_crystal_colour_primary    violet
_exptl_crystal_density_diffrn    1.192
_exptl_crystal_description       block
_exptl_crystal_F_000             8686
_exptl_crystal_size_max          0.164
_exptl_crystal_size_mid          0.125
_exptl_crystal_size_min          0.086
_refine_diff_density_max         1.014
_refine_diff_density_min         -0.800
_refine_diff_density_rms         0.121
_refine_ls_extinction_method     none
_refine_ls_goodness_of_fit_ref   1.076
_refine_ls_hydrogen_treatment    constr
_refine_ls_matrix_type           full
_refine_ls_number_parameters     749
_refine_ls_number_reflns         11698
_refine_ls_number_restraints     756
_refine_ls_restrained_S_all      1.067
_refine_ls_R_factor_all          0.1250
_refine_ls_R_factor_gt           0.0895
_refine_ls_shift/su_max          0.006
_refine_ls_shift/su_mean         0.001
_refine_ls_structure_factor_coef Fsqd
_refine_ls_weighting_details
'w=1/[\s^2^(Fo^2^)+(0.0509P)^2^+398.3530P] where P=(Fo^2^+2Fc^2^)/3'
_refine_ls_weighting_scheme      calc
_refine_ls_wR_factor_gt          0.1785
_refine_ls_wR_factor_ref         0.1919
_reflns_Friedel_coverage         0.000
_reflns_number_gt                7914
_reflns_number_total             11698
_reflns_threshold_expression     'I > 2\s(I)'
_cod_data_source_file            d0cc06092e2.cif
_cod_data_source_block           hq_cl3_0ma_sq
_cod_original_sg_symbol_Hall     '-C 2bc 2'
_cod_database_code               7127480
_shelx_shelxl_version_number     2018/3
_shelx_space_group_comment
;
The symmetry employed for this shelxl refinement is uniquely defined
by the following loop, which should always be used as a source of
symmetry information in preference to the above space-group names.
They are only intended as comments.
;
_shelx_estimated_absorpt_t_max   0.937
_shelx_estimated_absorpt_t_min   0.884
_olex2_refinement_description
;
1. Fixed Uiso
 At 1.2 times of:
  All C(H) groups
 At 1.5 times of:
  All O(H) groups
2. Uiso/Uaniso restraints and constraints
C1 \\sim C2 \\sim C3 \\sim C4 \\sim C5 \\sim C6 \\sim C7 \\sim C8 \\sim C9
\\sim C10 \\sim C11 \\sim C12 \\sim C13 \\sim C14 \\sim C15 \\sim C16 \\sim C19
\\sim C22 \\sim C23 \\sim C24 \\sim C25 \\sim C26 \\sim C27 \\sim C28 \\sim C29
\\sim C30 \\sim C31 \\sim C32 \\sim C33 \\sim C34 \\sim C35 \\sim C36 \\sim C37
\\sim C38 \\sim C39 \\sim C40 \\sim C41 \\sim C42 \\sim C43 \\sim C44 \\sim C47
\\sim C53 \\sim C54 \\sim C55 \\sim C56 \\sim C17A \\sim C18A \\sim C19A \\sim
C20A \\sim C45A \\sim C46A \\sim C48A \\sim C49A \\sim C50 \\sim C51 \\sim C52
\\sim C17 \\sim C18 \\sim C20 \\sim C21 \\sim C45 \\sim C46 \\sim C48 \\sim C49
\\sim C51A \\sim C50A \\sim C52A \\sim N1 \\sim N2 \\sim N3 \\sim N4 \\sim N5
\\sim N6 \\sim N7 \\sim N8 \\sim N9 \\sim N12 \\sim N10 \\sim N10A \\sim N11:
within 2A with sigma of 0.01 and sigma for terminal atoms of 0.02 within 2A
3. Others
 Sof(C45)=Sof(H45)=Sof(C46)=Sof(H46)=Sof(C48)=Sof(H48)=Sof(C49)=Sof(H49)=1-
 FVAR(1)
 Sof(C45A)=Sof(H45A)=Sof(C46A)=Sof(H46A)=Sof(C48A)=Sof(H48A)=Sof(C49A)=
 Sof(H49A)=FVAR(1)
 Sof(C17)=Sof(H17)=Sof(C18)=Sof(H18)=Sof(C20)=Sof(H20)=Sof(C21)=Sof(H21)=1-
 FVAR(2)
 Sof(C17A)=Sof(H17A)=Sof(C18A)=Sof(H18A)=Sof(C19A)=Sof(H19A)=Sof(C20A)=
 Sof(H20A)=FVAR(2)
 Sof(C51A)=Sof(H51A)=Sof(N10A)=Sof(C50A)=Sof(H50A)=Sof(C52A)=Sof(H52A)=1-FVAR(3)
 Sof(N10)=Sof(C50)=Sof(H50)=Sof(C51)=Sof(H51)=Sof(C52)=Sof(H52)=FVAR(3)
 Sof(O1)=Sof(H1A)=0.5*(1-FVAR(5))
 Sof(Cl2)=0.5*FVAR(5)
4.a Aromatic/amide H refined with riding coordinates:
 C1(H1), C2(H2), C3(H3), C5(H5), C6(H6), C8(H8), C9(H9), C12(H12), C13(H13),
 C22(H22), C23(H23), C24(H24), C26(H26), C27(H27), C31(H31), C32(H32), C34(H34),
  C35(H35), C36(H36), C37(H37), C38(H38), C40(H40), C41(H41), C54(H54),
 C55(H55), C17A(H17A), C18A(H18A), C19A(H19A), C20A(H20A), C45A(H45A),
 C46A(H46A), C48A(H48A), C49A(H49A), C50(H50), C51(H51), C52(H52), C17(H17),
 C18(H18), C20(H20), C21(H21), C45(H45), C46(H46), C48(H48), C49(H49),
 C51A(H51A), C50A(H50A), C52A(H52A)
4.b Fitted pentagon refined as free rotating group:
 C51A(N10A,C50A,N11,C52A)
4.c Tetrahedral OH refined with riding coordinates:
 O1(H1A)
;
_shelx_res_file
;
TITL hq_cl3_0ma_a.res in Cmca
    hq_cl3_0ma_sq.res
    created by SHELXL-2018/3 at 23:40:02 on 25-Feb-2020
REM Old TITL hq_Cl3_0ma in Cmca
REM SHELXT solution in Cmca: R1 0.205, Rweak 0.037, Alpha 0.098
REM <I/s> 1.108 for 550 systematic absences, Orientation as input
REM Formula found by SHELXT: C96 N25 O14 Cl2 Cd3
CELL 0.77485 47.4913 18.5114 27.2738 90 90 90
ZERR 8 0.0023 0.001 0.0013 0 0 0
LATT 7
SYMM -X,0.5-Y,0.5+Z
SYMM -X,0.5+Y,0.5-Z
SYMM +X,-Y,-Z
SFAC C H Cd Cl N O
DISP C 0.0044 0.002 13.8723
DISP Cd -0.6417 1.4308 6536.3771
DISP Cl 0.1692 0.1898 870.4051
DISP H -0 0 0.6274
DISP N 0.0081 0.0039 24.2971
DISP O 0.0141 0.0074 40.8892
UNIT 896 580.26 24 11.74 192 4.26
SIMU 0.01 0.02 2 $C $N

L.S. 3 0 153
PLAN  23
SIZE 0.164 0.125 0.086
TEMP -173.15
CONF
BOND
MORE -1
BOND $H
ABIN
fmap 2 53
acta
SHEL 999 0.81
REM <olex2.extras>
REM <HklSrc "%.\\hq_Cl3_0ma_sq.hkl">
REM </olex2.extras>

WGHT    0.050900  398.352966
FVAR       0.03964   0.42343   0.48577   0.42906   0.46942
CD1   3    0.657841    0.178563    0.695242    11.00000    0.01903    0.02250 =
         0.03625    0.00550   -0.00912   -0.00201
CD2   3    0.500000    0.777766    0.696827    10.50000    0.03335    0.02792 =
         0.03084    0.00736    0.00000    0.00000
CL1   4    0.500000    0.856039    0.773824    10.50000    0.02264    0.04977 =
         0.04040   -0.00614    0.00000    0.00000
N1    5    0.534693    0.700402    0.724386    11.00000    0.02605    0.02609 =
         0.06567   -0.00215   -0.00964    0.00117
N2    5    0.562924    0.607139    0.735608    11.00000    0.02181    0.02077 =
         0.06751   -0.00426   -0.01260    0.00526
N3    5    0.621741    0.227673    0.655937    11.00000    0.02818    0.02039 =
         0.03885    0.00741   -0.01053    0.00426
N4    5    0.533903    0.153127    0.343288    11.00000    0.06021    0.03053 =
         0.03518   -0.00077   -0.01615    0.00336
N5    5    0.563366    0.119148    0.401777    11.00000    0.05503    0.02768 =
         0.03483   -0.00006   -0.01391    0.00761
N6    5    0.649827    0.084457    0.647002    11.00000    0.02447    0.02072 =
         0.03044    0.00438   -0.00930    0.00335
N7    5    0.795945   -0.296539    0.679712    11.00000    0.02823    0.02945 =
         0.05462    0.00701   -0.00168    0.01471
N8    5    0.755115   -0.240947    0.676590    11.00000    0.01960    0.02460 =
         0.05387    0.00349   -0.00183    0.00509
N9    5    0.667896    0.092909    0.750724    11.00000    0.01795    0.02333 =
         0.02670    0.00210   -0.00269    0.00198
N12   5    0.640870    0.237717    0.759290    11.00000    0.02294    0.02842 =
         0.03873   -0.00024   -0.01321    0.00114
C1    1    0.540857    0.634128    0.710514    11.00000    0.03569    0.02273 =
         0.06396   -0.00268   -0.01498    0.00339
AFIX  43
H1    2    0.530943    0.608433    0.685794    11.00000   -1.20000
AFIX   0
C2    1    0.553753    0.714233    0.760159    11.00000    0.04690    0.05134 =
         0.10177   -0.03796   -0.03421    0.01931
AFIX  43
H2    2    0.554574    0.758206    0.778060    11.00000   -1.20000
AFIX   0
C3    1    0.571063    0.659291    0.767187    11.00000    0.04234    0.05283 =
         0.10026   -0.03701   -0.03701    0.02483
AFIX  43
H3    2    0.586198    0.656960    0.789905    11.00000   -1.20000
AFIX   0
C4    1    0.575192    0.536830    0.729807    11.00000    0.01993    0.01629 =
         0.07159   -0.00112   -0.00990    0.00397
C5    1    0.558429    0.479725    0.715503    11.00000    0.02560    0.02293 =
         0.11769    0.00287   -0.02556   -0.00158
AFIX  43
H5    2    0.538879    0.486583    0.709779    11.00000   -1.20000
AFIX   0
C6    1    0.570584    0.412104    0.709612    11.00000    0.03360    0.02170 =
         0.11906    0.00076   -0.03224   -0.00150
AFIX  43
H6    2    0.559152    0.372723    0.699483    11.00000   -1.20000
AFIX   0
C7    1    0.599137    0.400606    0.718192    11.00000    0.02685    0.01730 =
         0.06936   -0.00204   -0.01773    0.00143
C8    1    0.615296    0.459126    0.732138    11.00000    0.02157    0.02834 =
         0.06103   -0.00904   -0.01346    0.00207
AFIX  43
H8    2    0.634841    0.452616    0.738090    11.00000   -1.20000
AFIX   0
C9    1    0.603475    0.527547    0.737643    11.00000    0.02477    0.02184 =
         0.06405   -0.00595   -0.00666   -0.00143
AFIX  43
H9    2    0.614922    0.567435    0.746753    11.00000   -1.20000
AFIX   0
C10   1    0.612264    0.327910    0.713476    11.00000    0.02810    0.01928 =
         0.05791   -0.00045   -0.01292    0.00098
C11   1    0.610247    0.293249    0.667498    11.00000    0.03907    0.01788 =
         0.05739    0.00341   -0.02053    0.00243
C12   1    0.594447    0.317451    0.625730    11.00000    0.08062    0.02576 =
         0.07265   -0.00357   -0.04567    0.01360
AFIX  43
H12   2    0.585028    0.362504    0.622696    11.00000   -1.20000
AFIX   0
C13   1    0.595368    0.264514    0.591368    11.00000    0.07892    0.03280 =
         0.05881    0.00245   -0.05182    0.01090
AFIX  43
H13   2    0.586106    0.264773    0.560495    11.00000   -1.20000
AFIX   0
C14   1    0.612988    0.207946    0.610434    11.00000    0.03986    0.02387 =
         0.03865    0.01217   -0.01937   -0.00130
C15   1    0.619481    0.143139    0.585935    11.00000    0.02725    0.02749 =
         0.02775    0.00979   -0.01094    0.00243
C16   1    0.606036    0.133108    0.536511    11.00000    0.03953    0.02402 =
         0.03126    0.00588   -0.01166    0.00998
C19   1    0.578575    0.122214    0.446981    11.00000    0.04723    0.02608 =
         0.03168    0.00360   -0.00769    0.00284
C22   1    0.546446    0.169938    0.384443    11.00000    0.07905    0.04216 =
         0.04899   -0.00767   -0.01920    0.01863
AFIX  43
H22   2    0.543646    0.214866    0.400556    11.00000   -1.20000
AFIX   0
C23   1    0.544380    0.086887    0.333162    11.00000    0.09392    0.04844 =
         0.06325   -0.01523   -0.03657    0.01648
AFIX  43
H23   2    0.539668    0.058875    0.305154    11.00000   -1.20000
AFIX   0
C24   1    0.562445    0.066406    0.368507    11.00000    0.09153    0.04406 =
         0.06801   -0.00928   -0.04229    0.02101
AFIX  43
H24   2    0.572691    0.022357    0.369578    11.00000   -1.20000
AFIX   0
C25   1    0.636536    0.085777    0.602766    11.00000    0.02881    0.02955 =
         0.02507    0.00588   -0.00222    0.00104
C26   1    0.642839    0.020220    0.577470    11.00000    0.06483    0.05589 =
         0.03086   -0.00429   -0.00962    0.02831
AFIX  43
H26   2    0.635873    0.006673    0.546139    11.00000   -1.20000
AFIX   0
C27   1    0.660541   -0.019520    0.605959    11.00000    0.05904    0.05257 =
         0.02767   -0.00429   -0.00510    0.03341
AFIX  43
H27   2    0.668515   -0.065079    0.597943    11.00000   -1.20000
AFIX   0
C28   1    0.664905    0.020693    0.650692    11.00000    0.02555    0.02612 =
         0.03046    0.00638   -0.00183    0.00858
C29   1    0.680690   -0.002561    0.691566    11.00000    0.01747    0.01908 =
         0.02716    0.00759    0.00161    0.00003
C30   1    0.698619   -0.067863    0.684709    11.00000    0.01749    0.02421 =
         0.03226    0.00724    0.00044    0.00407
C31   1    0.722722   -0.063428    0.655125    11.00000    0.03900    0.02887 =
         0.05379    0.01496    0.01429    0.01464
AFIX  43
H31   2    0.726486   -0.020033    0.637724    11.00000   -1.20000
AFIX   0
C32   1    0.741186   -0.121257    0.650785    11.00000    0.03488    0.03473 =
         0.04861    0.01384    0.01837    0.01201
AFIX  43
H32   2    0.757345   -0.118105    0.630366    11.00000   -1.20000
AFIX   0
C33   1    0.735454   -0.183532    0.676936    11.00000    0.02164    0.02447 =
         0.03995    0.00566   -0.00105    0.00745
C34   1    0.711415   -0.190233    0.704384    11.00000    0.02890    0.02324 =
         0.04919    0.01063    0.00982    0.00311
AFIX  43
H34   2    0.707299   -0.234443    0.720555    11.00000   -1.20000
AFIX   0
C35   1    0.693242   -0.132432    0.708390    11.00000    0.02275    0.02895 =
         0.04089    0.00240    0.01059    0.00137
AFIX  43
H35   2    0.676723   -0.137071    0.727780    11.00000   -1.20000
AFIX   0
C36   1    0.783675   -0.234380    0.674300    11.00000    0.03188    0.02534 =
         0.03783    0.00740    0.00031    0.00828
AFIX  43
H36   2    0.793348   -0.190049    0.669381    11.00000   -1.20000
AFIX   0
C37   1    0.775061   -0.346446    0.685825    11.00000    0.03703    0.02681 =
         0.10065    0.00412   -0.00871    0.00872
AFIX  43
H37   2    0.778016   -0.396789    0.690211    11.00000   -1.20000
AFIX   0
C38   1    0.749703   -0.314090    0.684744    11.00000    0.03085    0.02896 =
         0.10355    0.00290   -0.00591   -0.00206
AFIX  43
H38   2    0.731829   -0.336382    0.688706    11.00000   -1.20000
AFIX   0
C39   1    0.681572    0.030537    0.737842    11.00000    0.01969    0.02422 =
         0.03019    0.01003   -0.00065    0.00221
C40   1    0.696202    0.003386    0.780549    11.00000    0.02821    0.03151 =
         0.03476    0.00617   -0.00835    0.00348
AFIX  43
H40   2    0.707898   -0.038200    0.781900    11.00000   -1.20000
AFIX   0
C41   1    0.690118    0.048251    0.818161    11.00000    0.03396    0.03457 =
         0.03514    0.00626   -0.01275    0.00313
AFIX  43
H41   2    0.696374    0.043365    0.851079    11.00000   -1.20000
AFIX   0
C42   1    0.672300    0.105175    0.799044    11.00000    0.02718    0.03019 =
         0.03532    0.00499   -0.00461   -0.00018
C43   1    0.660640    0.163243    0.827177    11.00000    0.03004    0.03908 =
         0.03009    0.00262   -0.00771    0.00418
C44   1    0.663028    0.156573    0.881148    11.00000    0.03941    0.04863 =
         0.02966   -0.00860   -0.00467    0.00832
C47   1    0.665680    0.135461    0.981736    11.00000    0.05158    0.05813 =
         0.03078   -0.00433   -0.00039    0.00244
C53   1    0.645559    0.223519    0.808010    11.00000    0.02749    0.03483 =
         0.04097   -0.00227   -0.00452    0.00430
C54   1    0.632183    0.278243    0.835968    11.00000    0.04584    0.05185 =
         0.04038   -0.00494    0.00037    0.01567
AFIX  43
H54   2    0.632304    0.281612    0.870724    11.00000   -1.20000
AFIX   0
C55   1    0.619239    0.324820    0.805192    11.00000    0.04302    0.04403 =
         0.04645   -0.00077   -0.00101    0.01296
AFIX  43
H55   2    0.608718    0.366452    0.814095    11.00000   -1.20000
AFIX   0
C56   1    0.624505    0.299038    0.756383    11.00000    0.02796    0.02572 =
         0.04565   -0.00062   -0.01153    0.00087
PART 1
CL2   4    0.500000    0.689467    0.616586    50.50000    0.05213    0.05868 =
         0.03797   -0.00561    0.00000    0.00000
N10   5    0.681014    0.125774    1.108290    41.00000    0.07697    0.09178 =
         0.04574   -0.00571   -0.01197   -0.00666
C17A  1    0.589129    0.078561    0.528246    31.00000    0.04187    0.02315 =
         0.02782    0.00507   -0.01107    0.00193
AFIX  43
H17A  2    0.586012    0.043106    0.552836    31.00000   -1.20000
AFIX   0
C18A  1    0.575734    0.073210    0.482760    31.00000    0.04450    0.02436 =
         0.03519    0.00161   -0.00587   -0.00052
AFIX  43
H18A  2    0.563974    0.032600    0.476907    31.00000   -1.20000
AFIX   0
C19A  1    0.609986    0.190256    0.501780    31.00000    0.04379    0.02520 =
         0.03245    0.00023   -0.01049    0.00231
AFIX  43
H19A  2    0.621596    0.230553    0.509295    31.00000   -1.20000
AFIX   0
C20A  1    0.596445    0.185214    0.457001    31.00000    0.04672    0.02962 =
         0.03024    0.00300   -0.00664   -0.00149
AFIX  43
H20A  2    0.598681    0.222035    0.433052    31.00000   -1.20000
AFIX   0
C45A  1    0.688127    0.171314    0.909210    21.00000    0.05474    0.06622 =
         0.03070   -0.00651   -0.00831   -0.00092
AFIX  43
H45A  2    0.703883    0.190561    0.892184    21.00000   -1.20000
AFIX   0
C46A  1    0.690959    0.159599    0.958758    21.00000    0.05455    0.06804 =
         0.03478   -0.00434   -0.00643   -0.00115
AFIX  43
H46A  2    0.708102    0.166884    0.976014    21.00000   -1.20000
AFIX   0
C48A  1    0.641649    0.122582    0.961276    21.00000    0.04786    0.05217 =
         0.02775   -0.00309    0.00150    0.00263
AFIX  43
H48A  2    0.625866    0.105674    0.979340    21.00000   -1.20000
AFIX   0
C49A  1    0.640445    0.135162    0.910953    21.00000    0.04554    0.05486 =
         0.02576   -0.00351   -0.00401    0.00277
AFIX  43
H49A  2    0.622723    0.128649    0.895414    21.00000   -1.20000
AFIX   0
C50   1    0.682608    0.159336    1.064058    41.00000    0.07804    0.09273 =
         0.04787   -0.00987   -0.00939   -0.01043
AFIX  43
H50   2    0.692708    0.202380    1.056957    41.00000   -1.20000
AFIX   0
C51   1    0.659191    0.082945    1.104603    41.00000    0.07466    0.09084 =
         0.03814   -0.00688   -0.01036   -0.00002
AFIX  43
H51   2    0.650932    0.059210    1.131934    41.00000   -1.20000
AFIX   0
C52   1    0.649699    0.075792    1.059204    41.00000    0.07291    0.08549 =
         0.03989   -0.01156   -0.00877    0.00120
AFIX  43
H52   2    0.634682    0.047138    1.046904    41.00000   -1.20000
AFIX   0
PART 0
PART 2
O1    6    0.500000    0.704349    0.620547   -50.50000    0.17921    0.09060 =
         0.12401    0.00947    0.00000    0.00000
AFIX  83
H1A   2    0.500000    0.660260    0.627833   -50.50000   -1.50000
AFIX   0
C17   1    0.575606    0.129031    0.532939   -31.00000    0.04678    0.02695 =
         0.03284    0.00189   -0.01067    0.00127
AFIX  43
H17   2    0.564881    0.130268    0.562329   -31.00000   -1.20000
AFIX   0
C18   1    0.561524    0.123450    0.488955   -31.00000    0.04623    0.02775 =
         0.03711    0.00636   -0.01141    0.00336
AFIX  43
H18   2    0.541577    0.120626    0.487169   -31.00000   -1.20000
AFIX   0
C20   1    0.606929    0.117777    0.446672   -31.00000    0.04826    0.02746 =
         0.03572    0.00584   -0.00433    0.00308
AFIX  43
H20   2    0.617362    0.111614    0.417248   -31.00000   -1.20000
AFIX   0
C21   1    0.619738    0.122772    0.491812   -31.00000    0.04573    0.02504 =
         0.02737    0.00612   -0.00919    0.00617
AFIX  43
H21   2    0.639677    0.118833    0.492601   -31.00000   -1.20000
AFIX   0
C45   1    0.674871    0.208480    0.907750   -21.00000    0.05413    0.06439 =
         0.03342   -0.00588   -0.00870    0.00639
AFIX  43
H45   2    0.682645    0.250274    0.892737   -21.00000   -1.20000
AFIX   0
C46   1    0.675493    0.199161    0.959790   -21.00000    0.06032    0.06467 =
         0.03522   -0.00909   -0.00833    0.00450
AFIX  43
H46   2    0.682686    0.236825    0.979861   -21.00000   -1.20000
AFIX   0
C48   1    0.653517    0.083092    0.951656   -21.00000    0.05393    0.05727 =
         0.03287   -0.00168   -0.00101    0.00138
AFIX  43
H48   2    0.646083    0.039992    0.965439   -21.00000   -1.20000
AFIX   0
C49   1    0.652407    0.094287    0.902603   -21.00000    0.04730    0.05438 =
         0.03121   -0.00003   -0.00345    0.00343
AFIX  43
H49   2    0.644113    0.058437    0.882290   -21.00000   -1.20000
AFIX  56
C51A  1    0.660433    0.104682    1.116467   -41.00000    0.07438    0.08845 =
         0.04273   -0.00829   -0.00934   -0.00107
AFIX  43
H51A  2    0.651289    0.099265    1.147228   -41.00000   -1.20000
AFIX  55
N10A  5    0.689883    0.100223    1.107994   -41.00000    0.07511    0.08880 =
         0.04718   -0.00458   -0.01237   -0.00600
C50A  1    0.694701    0.111444    1.057178   -41.00000    0.07330    0.09184 =
         0.04820   -0.00571   -0.01291   -0.00563
AFIX  43
H50A  2    0.712508    0.111346    1.041310   -41.00000   -1.20000
AFIX  55
PART 0
N11   5    0.668227    0.122839    1.034243    11.00000    0.06681    0.07519 =
         0.03895   -0.01092   -0.00803   -0.00459
PART 2
C52A  1    0.647049    0.118659    1.070886   -41.00000    0.07496    0.08718 =
         0.04387   -0.00757   -0.00915   -0.00178
AFIX  43
H52A  2    0.627379    0.124235    1.065799   -41.00000   -1.20000
AFIX   0
HKLF 4




REM  hq_cl3_0ma_a.res in Cmca
REM wR2 = 0.1919, GooF = S = 1.076, Restrained GooF = 1.067 for all data
REM R1 = 0.0895 for 7914 Fo > 4sig(Fo) and 0.1250 for all 11698 data
REM 749 parameters refined using 756 restraints

END

WGHT      0.0511    396.0473

REM Highest difference peak  1.014,  deepest hole -0.800,  1-sigma level  0.121
Q1    1   0.6606  0.1814  0.6604  11.00000  0.05    1.01
Q2    1   0.5000  0.7708  0.6584  10.50000  0.05    0.79
Q3    1   0.5000  0.7419  0.7602  10.50000  0.05    0.77
Q4    1   0.5000  0.7792  0.7425  10.50000  0.05    0.72
Q5    1   0.6574  0.2184  0.6802  11.00000  0.05    0.69
Q6    1   0.5000  0.1003  0.3000  10.50000  0.05    0.69
Q7    1   0.5000  0.8013  0.8003  10.50000  0.05    0.64
Q8    1   0.6580  0.2182  0.7177  11.00000  0.05    0.60
Q9    1   0.5000  0.8621  0.7411  10.50000  0.05    0.59
Q10   1   0.6581  0.1981  1.1903  11.00000  0.05    0.56
Q11   1   0.5581  0.4781  0.7420  11.00000  0.05    0.49
Q12   1   0.5000  0.7838  0.6167  10.50000  0.05    0.49
Q13   1   0.6592  0.0966  0.7011  11.00000  0.05    0.48
Q14   1   0.5000  0.8220  0.7230  10.50000  0.05    0.48
Q15   1   0.8163 -0.2644  0.6986  11.00000  0.05    0.48
Q16   1   0.5000  0.8364  0.6734  10.50000  0.05    0.48
Q17   1   0.4781  0.7675  0.7024  11.00000  0.05    0.45
Q18   1   0.6821  0.2008  1.0447  11.00000  0.05    0.45
Q19   1   0.5196  0.7010  0.7777  11.00000  0.05    0.45
Q20   1   0.6770  0.1796  0.6999  11.00000  0.05    0.42
Q21   1   0.5000  0.6396  0.6387  10.50000  0.05    0.41
Q22   1   0.5000  0.7053  0.7364  10.50000  0.05    0.41
Q23   1   0.5000  0.6383  0.5779  10.50000  0.05    0.41
;
_shelx_res_checksum              48649
_shelx_fab_file
;
    2    0    0    636.41      0.00
    8    0    0    327.19      0.00
   10    0    0    343.53      0.00
   14    0    0    250.72      0.00
   16    0    0    161.75      0.00
   22    0    0    115.85      0.00
   24    0    0    162.39      0.00
   28    0    0     90.81      0.00
   30    0    0     68.56      0.00
   32    0    0     52.77      0.00
   34    0    0     49.35      0.00
   36    0    0     47.70      0.00
   38    0    0     41.78      0.00
   40    0    0     22.38      0.00
   42    0    0     24.02      0.00
   44    0    0     11.41      0.00
   46    0    0     21.05      0.00
   48    0    0     38.87      0.00
   50    0    0     18.24      0.00
   52    0    0     33.07      0.00
   54    0    0     13.63      0.00
   56    0    0      5.76      0.00
   58    0    0     31.67      0.00
    2    2    0    189.27      0.00
    4    2    0     39.00      0.00
    6    2    0    -47.90      0.00
   10    2    0    144.58      0.00
   12    2    0    161.41      0.00
   14    2    0    121.38      0.00
   16    2    0     29.10      0.00
   18    2    0     36.48      0.00
   20    2    0     23.51      0.00
   22    2    0     60.68      0.00
   24    2    0     50.18      0.00
   26    2    0     51.02      0.00
   28    2    0     35.36      0.00
   30    2    0     22.58      0.00
   32    2    0      4.92      0.00
   34    2    0     24.27      0.00
   36    2    0     19.98      0.00
   38    2    0     25.24      0.00
   40    2    0     11.07      0.00
   42    2    0      7.86      0.00
   44    2    0      3.18      0.00
   46    2    0     14.24      0.00
   48    2    0      1.45      0.00
   50    2    0      7.74      0.00
   52    2    0      4.39      0.00
   54    2    0     26.05      0.00
   56    2    0     18.65      0.00
   58    2    0     34.07      0.00
    2    4    0     82.41      0.00
    4    4    0     -0.69      0.00
    6    4    0     58.13      0.00
    8    4    0    140.13      0.00
   10    4    0     21.49      0.00
   12    4    0     44.80      0.00
   14    4    0    -22.70      0.00
   16    4    0    -26.36      0.00
   18    4    0     55.04      0.00
   20    4    0     20.13      0.00
   22    4    0     56.02      0.00
   24    4    0     17.10      0.00
   26    4    0     34.15      0.00
   28    4    0     12.99      0.00
   30    4    0     26.35      0.00
   32    4    0      6.66      0.00
   34    4    0     19.44      0.00
   36    4    0     20.30      0.00
   38    4    0      6.98      0.00
   40    4    0     16.22      0.00
   42    4    0     -5.58      0.00
   44    4    0     30.83      0.00
   46    4    0      6.12      0.00
   48    4    0      3.84      0.00
   50    4    0     -5.22      0.00
   52    4    0    -32.19      0.00
   54    4    0     -9.18      0.00
   56    4    0     -0.56      0.00
    0    6    0     25.43      0.00
    2    6    0    -55.33      0.00
    4    6    0    -46.15      0.00
    6    6    0    -26.13      0.00
    8    6    0    -55.56      0.00
   10    6    0     40.36      0.00
   12    6    0    -30.70      0.00
   14    6    0     -6.10      0.00
   16    6    0    -30.26      0.00
   18    6    0    -25.40      0.00
   20    6    0      6.83      0.00
   22    6    0    -18.40      0.00
   24    6    0      0.06      0.00
   26    6    0    -20.25      0.00
   28    6    0    -10.40      0.00
   30    6    0     -7.49      0.00
   32    6    0     -7.46      0.00
   34    6    0     -0.51      0.00
   36    6    0     -5.18      0.00
   38    6    0    -10.51      0.00
   40    6    0      0.85      0.00
   42    6    0    -21.90      0.00
   44    6    0      6.86      0.00
   46    6    0     -1.03      0.00
   48    6    0     16.35      0.00
   50    6    0     19.99      0.00
   52    6    0      8.57      0.00
   54    6    0      2.92      0.00
   56    6    0      6.19      0.00
    0    8    0     15.72      0.00
    2    8    0     -1.05      0.00
    4    8    0     -6.05      0.00
    6    8    0    -10.66      0.00
    8    8    0    -13.04      0.00
   10    8    0     28.50      0.00
   12    8    0     -0.59      0.00
   14    8    0     36.33      0.00
   16    8    0    -14.50      0.00
   18    8    0     11.39      0.00
   20    8    0    -24.15      0.00
   22    8    0      5.95      0.00
   24    8    0    -11.45      0.00
   26    8    0     -3.97      0.00
   28    8    0     -2.87      0.00
   30    8    0     -7.42      0.00
   32    8    0      4.91      0.00
   34    8    0      0.38      0.00
   36    8    0      2.59      0.00
   38    8    0      1.17      0.00
   40    8    0     -0.28      0.00
   42    8    0      4.26      0.00
   44    8    0     -4.89      0.00
   46    8    0    -11.35      0.00
   48    8    0     -1.94      0.00
   50    8    0    -19.24      0.00
   52    8    0      8.74      0.00
   54    8    0     -8.80      0.00
    0   10    0     20.44      0.00
    2   10    0    -26.61      0.00
    4   10    0      5.24      0.00
    6   10    0    -29.52      0.00
    8   10    0     -5.92      0.00
   10   10    0    -24.24      0.00
   12   10    0     -4.72      0.00
   14   10    0    -33.84      0.00
   16   10    0    -21.50      0.00
   18   10    0    -38.64      0.00
   20   10    0    -17.91      0.00
   22   10    0    -14.44      0.00
   24   10    0     -7.67      0.00
   26   10    0     -8.41      0.00
   28   10    0     -7.86      0.00
   30   10    0     -4.25      0.00
   32   10    0      4.62      0.00
   34   10    0    -10.52      0.00
   36   10    0     -5.69      0.00
   38   10    0    -16.63      0.00
   40   10    0     -3.61      0.00
   42   10    0     -0.40      0.00
   44   10    0     10.62      0.00
   46   10    0     -1.91      0.00
   48   10    0     10.21      0.00
   50   10    0     -2.40      0.00
   52   10    0      3.51      0.00
    0   12    0     16.29      0.00
    2   12    0      1.58      0.00
    4   12    0     -0.42      0.00
    6   12    0    -22.98      0.00
    8   12    0      4.15      0.00
   10   12    0     11.10      0.00
   12   12    0      7.89      0.00
   14   12    0     18.58      0.00
   16   12    0    -19.53      0.00
   18   12    0      4.46      0.00
   20   12    0     -3.32      0.00
   22   12    0     10.19      0.00
   24   12    0      6.10      0.00
   26   12    0     -6.16      0.00
   28   12    0     -4.86      0.00
   30   12    0      0.42      0.00
   32   12    0     -2.51      0.00
   34   12    0      7.92      0.00
   36   12    0     -7.47      0.00
   38   12    0     -8.05      0.00
   40   12    0      3.06      0.00
   42   12    0     -5.90      0.00
   44   12    0      9.22      0.00
   46   12    0      3.83      0.00
   48   12    0     -0.35      0.00
    0   14    0      3.41      0.00
    2   14    0     -2.55      0.00
    4   14    0     -2.67      0.00
    6   14    0     -6.33      0.00
    8   14    0     -2.72      0.00
   10   14    0      1.14      0.00
   12   14    0      2.49      0.00
   14   14    0     -0.84      0.00
   16   14    0     -1.44      0.00
   18   14    0    -10.52      0.00
   20   14    0     -0.93      0.00
   22   14    0     -8.55      0.00
   24   14    0     -2.84      0.00
   26   14    0     -1.83      0.00
   28   14    0    -14.20      0.00
   30   14    0     -0.16      0.00
   32   14    0     -9.38      0.00
   34   14    0      5.15      0.00
   36   14    0      4.24      0.00
   38   14    0      7.70      0.00
   40   14    0     -5.00      0.00
   42   14    0     -1.50      0.00
   44   14    0     -5.80      0.00
   46   14    0     -0.02      0.00
    0   16    0      4.55      0.00
    2   16    0     -6.46      0.00
    4   16    0     -2.66      0.00
    6   16    0    -15.90      0.00
    8   16    0     -3.05      0.00
   10   16    0     -3.03      0.00
   12   16    0      3.48      0.00
   14   16    0      0.24      0.00
   16   16    0      9.64      0.00
   18   16    0     -2.10      0.00
   20   16    0      1.97      0.00
   22   16    0      0.81      0.00
   24   16    0     -7.59      0.00
   26   16    0      6.48      0.00
   28   16    0      1.42      0.00
   30   16    0      1.21      0.00
   32   16    0      1.28      0.00
   34   16    0      0.57      0.00
   36   16    0      0.44      0.00
   38   16    0      6.35      0.00
   40   16    0     -3.24      0.00
    0   18    0     21.22      0.00
    2   18    0      2.40      0.00
    4   18    0      2.64      0.00
    6   18    0      3.98      0.00
    8   18    0     -0.92      0.00
   10   18    0     11.62      0.00
   12   18    0     -1.68      0.00
   14   18    0     -4.05      0.00
   16   18    0    -11.66      0.00
   18   18    0     -4.40      0.00
   20   18    0     -6.37      0.00
   22   18    0     -1.55      0.00
   24   18    0     -1.26      0.00
   26   18    0     -0.42      0.00
   28   18    0      5.58      0.00
   30   18    0      3.71      0.00
   32   18    0     -3.73      0.00
   34   18    0     -1.63      0.00
   36   18    0    -11.60      0.00
    0   20    0      6.95      0.00
    2   20    0    -22.64      0.00
    4   20    0      4.99      0.00
    6   20    0    -16.92      0.00
    8   20    0      8.90      0.00
   10   20    0      5.01      0.00
   12   20    0     21.80      0.00
   14   20    0     22.12      0.00
   16   20    0     21.47      0.00
   18   20    0      8.45      0.00
   20   20    0     -3.84      0.00
   22   20    0     -9.18      0.00
   24   20    0    -10.48      0.00
   26   20    0     -0.70      0.00
   28   20    0     -0.74      0.00
    0   22    0      9.81      0.00
    2   22    0    -18.03      0.00
    4   22    0      3.83      0.00
    6   22    0    -22.11      0.00
    8   22    0    -10.96      0.00
   10   22    0    -25.68      0.00
   12   22    0     -2.05      0.00
   14   22    0     -6.50      0.00
    1    1    1   -312.00      0.00
    3    1    1   -245.28      0.00
    5    1    1    418.24      0.00
    7    1    1    137.48      0.00
    9    1    1    176.54      0.00
   11    1    1    -63.19      0.00
   13    1    1   -151.03      0.00
   15    1    1     30.49      0.00
   17    1    1     33.15      0.00
   19    1    1     66.90      0.00
   21    1    1     16.44      0.00
   23    1    1    -20.92      0.00
   25    1    1    -22.63      0.00
   27    1    1      0.38      0.00
   29    1    1      2.44      0.00
   31    1    1     19.92      0.00
   33    1    1      6.70      0.00
   35    1    1     -1.33      0.00
   37    1    1     -4.66      0.00
   39    1    1    -11.72      0.00
   41    1    1      0.96      0.00
   43    1    1      2.37      0.00
   45    1    1    -10.83      0.00
   47    1    1      2.67      0.00
   49    1    1    -12.26      0.00
   51    1    1     -0.14      0.00
   53    1    1     19.40      0.00
   55    1    1     -0.10      0.00
   57    1    1     26.10      0.00
    0    2    1    258.98      0.00
    2    2    1    113.67      0.00
    8    2    1      2.41      0.00
   12    2    1     75.56      0.00
   14    2    1     62.24      0.00
   18    2    1      1.25      0.00
   20    2    1      3.21      0.00
   22    2    1     14.87      0.00
   24    2    1     21.20      0.00
   26    2    1     21.41      0.00
   28    2    1      8.29      0.00
   30    2    1      8.10      0.00
   32    2    1     -2.04      0.00
   34    2    1      5.94      0.00
   36    2    1     -1.89      0.00
   38    2    1      4.97      0.00
   40    2    1     -3.56      0.00
   42    2    1      1.56      0.00
   44    2    1     -4.33      0.00
   46    2    1      0.69      0.00
   48    2    1      4.78      0.00
   50    2    1     10.02      0.00
   52    2    1     17.68      0.00
   54    2    1     22.93      0.00
   56    2    1     14.54      0.00
   58    2    1     26.85      0.00
    1    3    1    -67.25      0.00
    3    3    1    157.89      0.00
    5    3    1   -206.24      0.00
    7    3    1    121.62      0.00
    9    3    1   -214.05      0.00
   11    3    1    -17.03      0.00
   13    3    1    -58.63      0.00
   15    3    1     -5.91      0.00
   17    3    1     -8.43      0.00
   19    3    1    -20.46      0.00
   21    3    1    -31.91      0.00
   23    3    1     -3.37      0.00
   25    3    1    -20.19      0.00
   27    3    1     -0.64      0.00
   29    3    1     -7.80      0.00
   31    3    1      5.67      0.00
   33    3    1     -6.15      0.00
   35    3    1     -3.88      0.00
   37    3    1    -14.14      0.00
   39    3    1      6.86      0.00
   41    3    1      7.86      0.00
   43    3    1     12.05      0.00
   45    3    1     -0.23      0.00
   47    3    1      4.77      0.00
   49    3    1      0.77      0.00
   51    3    1     13.96      0.00
   53    3    1    -23.69      0.00
   55    3    1    -10.44      0.00
   57    3    1    -39.55      0.00
    0    4    1     42.74      0.00
    2    4    1     34.79      0.00
    4    4    1     32.74      0.00
    6    4    1      6.48      0.00
    8    4    1     33.05      0.00
   12    4    1     31.33      0.00
   14    4    1     30.56      0.00
   16    4    1     20.58      0.00
   18    4    1     24.07      0.00
   20    4    1     18.39      0.00
   22    4    1     25.42      0.00
   24    4    1     21.42      0.00
   26    4    1     25.81      0.00
   28    4    1     14.46      0.00
   30    4    1      6.77      0.00
   32    4    1      0.84      0.00
   34    4    1      0.11      0.00
   36    4    1      7.03      0.00
   38    4    1      4.10      0.00
   40    4    1      8.95      0.00
   42    4    1      6.19      0.00
   44    4    1      6.89      0.00
   46    4    1      2.26      0.00
   48    4    1      1.15      0.00
   50    4    1     -2.45      0.00
   52    4    1     19.48      0.00
   54    4    1     12.65      0.00
   56    4    1     24.52      0.00
    1    5    1     15.08      0.00
    3    5    1     26.99      0.00
    5    5    1    -10.24      0.00
    7    5    1      3.73      0.00
    9    5    1    -68.38      0.00
   11    5    1     -4.01      0.00
   13    5    1    -24.91      0.00
   15    5    1     12.45      0.00
   17    5    1    -30.79      0.00
   19    5    1    -31.01      0.00
   21    5    1    -49.83      0.00
   23    5    1    -27.87      0.00
   25    5    1    -18.38      0.00
   27    5    1    -14.31      0.00
   29    5    1    -13.35      0.00
   31    5    1     -6.08      0.00
   33    5    1     -8.22      0.00
   35    5    1     -0.46      0.00
   37    5    1      3.54      0.00
   39    5    1     10.04      0.00
   41    5    1     10.61      0.00
   43    5    1      0.67      0.00
   45    5    1      3.32      0.00
   47    5    1    -10.76      0.00
   49    5    1      5.37      0.00
   51    5    1     26.41      0.00
   53    5    1      1.42      0.00
   55    5    1     52.44      0.00
    0    6    1     41.95      0.00
    2    6    1     24.20      0.00
    4    6    1     29.38      0.00
    6    6    1     31.38      0.00
    8    6    1     19.32      0.00
   10    6    1     26.26      0.00
   12    6    1      4.70      0.00
   14    6    1     -4.55      0.00
   16    6    1     -1.83      0.00
   18    6    1     -9.08      0.00
   20    6    1      7.20      0.00
   22    6    1      0.49      0.00
   24    6    1      6.92      0.00
   26    6    1      7.89      0.00
   28    6    1      5.65      0.00
   30    6    1      4.33      0.00
   32    6    1      8.69      0.00
   34    6    1      5.06      0.00
   36    6    1     15.80      0.00
   38    6    1     10.26      0.00
   40    6    1      8.70      0.00
   42    6    1     10.10      0.00
   44    6    1      5.77      0.00
   46    6    1      8.91      0.00
   48    6    1     -0.37      0.00
   50    6    1      9.70      0.00
   52    6    1      4.17      0.00
   54    6    1     19.07      0.00
   56    6    1     11.16      0.00
    1    7    1     16.15      0.00
    3    7    1     17.92      0.00
    5    7    1     64.65      0.00
    7    7    1     21.49      0.00
    9    7    1     18.42      0.00
   11    7    1     -9.30      0.00
   13    7    1    -16.40      0.00
   15    7    1      6.94      0.00
   17    7    1     -2.30      0.00
   19    7    1      5.76      0.00
   21    7    1      3.43      0.00
   23    7    1      8.19      0.00
   25    7    1     15.43      0.00
   27    7    1     16.16      0.00
   29    7    1     17.90      0.00
   31    7    1     -2.89      0.00
   33    7    1      1.43      0.00
   35    7    1    -20.79      0.00
   37    7    1    -19.74      0.00
   39    7    1    -29.68      0.00
   41    7    1    -25.81      0.00
   43    7    1    -22.66      0.00
   45    7    1    -18.52      0.00
   47    7    1     -3.69      0.00
   49    7    1    -23.89      0.00
   51    7    1      2.40      0.00
   53    7    1     -9.91      0.00
   55    7    1      6.65      0.00
    0    8    1      1.98      0.00
    2    8    1     19.82      0.00
    4    8    1      5.09      0.00
    6    8    1      7.90      0.00
    8    8    1     13.02      0.00
   10    8    1      3.42      0.00
   12    8    1      3.74      0.00
   14    8    1     -2.56      0.00
   16    8    1     -4.51      0.00
   18    8    1     -2.47      0.00
   20    8    1      3.01      0.00
   22    8    1     -2.28      0.00
   24    8    1      7.86      0.00
   26    8    1      0.60      0.00
   28    8    1      3.05      0.00
   30    8    1     -0.11      0.00
   32    8    1     -7.79      0.00
   34    8    1      3.07      0.00
   36    8    1     -3.27      0.00
   38    8    1      1.14      0.00
   40    8    1     -0.73      0.00
   42    8    1     -7.71      0.00
   44    8    1     -2.02      0.00
   46    8    1     -4.03      0.00
   48    8    1     -3.53      0.00
   50    8    1     -1.49      0.00
   52    8    1     -0.63      0.00
   54    8    1      0.53      0.00
    1    9    1      8.72      0.00
    3    9    1      8.05      0.00
    5    9    1     21.20      0.00
    7    9    1     11.28      0.00
    9    9    1     12.86      0.00
   11    9    1      1.16      0.00
   13    9    1      6.31      0.00
   15    9    1      1.85      0.00
   17    9    1     26.17      0.00
   19    9    1      8.29      0.00
   21    9    1     24.65      0.00
   23    9    1      2.12      0.00
   25    9    1     12.25      0.00
   27    9    1      2.14      0.00
   29    9    1      5.81      0.00
   31    9    1     -3.97      0.00
   33    9    1      1.78      0.00
   35    9    1     -6.62      0.00
   37    9    1     14.93      0.00
   39    9    1     -5.29      0.00
   41    9    1      3.02      0.00
   43    9    1      0.49      0.00
   45    9    1     -7.51      0.00
   47    9    1     11.18      0.00
   49    9    1     -4.63      0.00
   51    9    1      0.75      0.00
   53    9    1     -6.92      0.00
    0   10    1     -2.85      0.00
    2   10    1     -6.75      0.00
    4   10    1     -6.16      0.00
    6   10    1     -9.20      0.00
    8   10    1    -12.58      0.00
   10   10    1    -11.91      0.00
   12   10    1    -11.17      0.00
   14   10    1     -8.92      0.00
   16   10    1     -7.34      0.00
   18   10    1     -7.60      0.00
   20   10    1    -10.32      0.00
   22   10    1     -6.76      0.00
   24   10    1     -6.40      0.00
   26   10    1      0.03      0.00
   28   10    1     -1.03      0.00
   30   10    1      4.36      0.00
   32   10    1      0.28      0.00
   34   10    1      5.47      0.00
   36   10    1      1.92      0.00
   38   10    1     -1.64      0.00
   40   10    1      1.35      0.00
   42   10    1     -7.00      0.00
   44   10    1      5.50      0.00
   46   10    1     -6.94      0.00
   48   10    1      1.73      0.00
   50   10    1     -6.27      0.00
   52   10    1     -0.20      0.00
    1   11    1     28.97      0.00
    3   11    1     40.85      0.00
    5   11    1     35.25      0.00
    7   11    1     33.24      0.00
    9   11    1     19.31      0.00
   11   11    1      2.83      0.00
   13   11    1     14.57      0.00
   15   11    1     12.99      0.00
   17   11    1     22.09      0.00
   19   11    1      8.34      0.00
   21   11    1      3.40      0.00
   23   11    1     -3.95      0.00
   25   11    1      7.27      0.00
   27   11    1      8.64      0.00
   29   11    1      9.41      0.00
   31   11    1      0.55      0.00
   33   11    1     -0.13      0.00
   35   11    1      4.20      0.00
   37   11    1      3.15      0.00
   39   11    1      3.65      0.00
   41   11    1      0.15      0.00
   43   11    1     -8.14      0.00
   45   11    1      5.37      0.00
   47   11    1     -0.18      0.00
   49   11    1      9.56      0.00
   51   11    1      9.21      0.00
    0   12    1      2.97      0.00
    2   12    1      9.45      0.00
    4   12    1     -5.45      0.00
    6   12    1     -2.73      0.00
    8   12    1    -10.54      0.00
   10   12    1     -6.81      0.00
   12   12    1     -9.03      0.00
   14   12    1    -11.18      0.00
   16   12    1    -10.30      0.00
   18   12    1     -8.64      0.00
   20   12    1     -5.33      0.00
   22   12    1     -2.36      0.00
   24   12    1     -4.56      0.00
   26   12    1     -3.87      0.00
   28   12    1     -3.22      0.00
   30   12    1     -2.36      0.00
   32   12    1     -0.06      0.00
   34   12    1     -1.47      0.00
   36   12    1      0.52      0.00
   38   12    1      1.46      0.00
   40   12    1      5.36      0.00
   42   12    1      5.61      0.00
   44   12    1      6.87      0.00
   46   12    1      4.91      0.00
   48   12    1      3.39      0.00
    1   13    1     -1.31      0.00
    3   13    1     12.55      0.00
    5   13    1     14.05      0.00
    7   13    1     17.54      0.00
    9   13    1      4.18      0.00
   11   13    1     -3.81      0.00
   13   13    1     -4.51      0.00
   15   13    1      7.87      0.00
   17   13    1      0.59      0.00
   19   13    1     11.67      0.00
   21   13    1    -11.28      0.00
   23   13    1      1.52      0.00
   25   13    1     -4.84      0.00
   27   13    1      9.64      0.00
   29   13    1      2.42      0.00
   31   13    1     11.59      0.00
   33   13    1     -7.68      0.00
   35   13    1     10.37      0.00
   37   13    1     -8.32      0.00
   39   13    1      5.81      0.00
   41   13    1     -3.12      0.00
   43   13    1     -6.39      0.00
   45   13    1     -5.59      0.00
   47   13    1     -8.88      0.00
    0   14    1     13.70      0.00
    2   14    1      6.37      0.00
    4   14    1      1.00      0.00
    6   14    1     -9.04      0.00
    8   14    1     -5.85      0.00
   10   14    1     -7.17      0.00
   12   14    1     -4.09      0.00
   14   14    1     -8.19      0.00
   16   14    1    -11.32      0.00
   18   14    1     -9.86      0.00
   20   14    1     -7.66      0.00
   22   14    1     -5.59      0.00
   24   14    1     -3.04      0.00
   26   14    1     -2.82      0.00
   28   14    1      0.14      0.00
   30   14    1      4.46      0.00
   32   14    1      0.44      0.00
   34   14    1      3.58      0.00
   36   14    1     -4.22      0.00
   38   14    1     -0.76      0.00
   40   14    1     -3.03      0.00
   42   14    1     -0.39      0.00
   44   14    1     -1.18      0.00
   46   14    1      0.31      0.00
    1   15    1      4.18      0.00
    3   15    1      9.63      0.00
    5   15    1      1.24      0.00
    7   15    1      6.83      0.00
    9   15    1     -0.28      0.00
   11   15    1      0.28      0.00
   13   15    1     -4.09      0.00
   15   15    1     -4.43      0.00
   17   15    1     -0.67      0.00
   19   15    1     -6.69      0.00
   21   15    1      6.60      0.00
   23   15    1     -6.12      0.00
   25   15    1     -2.48      0.00
   27   15    1     -3.51      0.00
   29   15    1    -11.85      0.00
   31   15    1     -1.88      0.00
   33   15    1     -9.61      0.00
   35   15    1    -17.01      0.00
   37   15    1     -7.12      0.00
   39   15    1    -15.89      0.00
   41   15    1      2.79      0.00
   43   15    1      4.64      0.00
    0   16    1      1.80      0.00
    2   16    1      4.16      0.00
    4   16    1      2.48      0.00
    6   16    1      0.34      0.00
    8   16    1      0.19      0.00
   10   16    1     -3.63      0.00
   12   16    1     -4.18      0.00
   14   16    1     -3.34      0.00
   16   16    1     -3.64      0.00
   18   16    1     -1.75      0.00
   20   16    1     -1.56      0.00
   22   16    1     -3.66      0.00
   24   16    1     -1.08      0.00
   26   16    1     -1.52      0.00
   28   16    1     -1.48      0.00
   30   16    1     -0.59      0.00
   32   16    1     -7.96      0.00
   34   16    1     -2.33      0.00
   36   16    1     -8.73      0.00
   38   16    1      1.32      0.00
   40   16    1     -6.11      0.00
    1   17    1    -10.14      0.00
    3   17    1     -6.71      0.00
    5   17    1      5.82      0.00
    7   17    1      0.20      0.00
    9   17    1      0.55      0.00
   11   17    1     -2.11      0.00
   13   17    1     -1.86      0.00
   15   17    1      0.17      0.00
   17   17    1      1.78      0.00
   19   17    1     -5.75      0.00
   21   17    1      0.18      0.00
   23   17    1     -1.12      0.00
   25   17    1     -4.72      0.00
   27   17    1     -2.01      0.00
   29   17    1     -2.67      0.00
   31   17    1     -5.17      0.00
   33   17    1     13.76      0.00
   35   17    1      1.37      0.00
   37   17    1     10.24      0.00
   39   17    1     -1.04      0.00
    0   18    1     10.05      0.00
    2   18    1     14.59      0.00
    4   18    1      2.89      0.00
    6   18    1      0.99      0.00
    8   18    1     -1.30      0.00
   10   18    1      0.47      0.00
   12   18    1     -1.82      0.00
   14   18    1     -1.41      0.00
   16   18    1     -4.10      0.00
   18   18    1     -2.65      0.00
   20   18    1      1.58      0.00
   22   18    1      0.66      0.00
   24   18    1      4.51      0.00
   26   18    1     -0.04      0.00
   28   18    1      3.90      0.00
   30   18    1     -2.32      0.00
   32   18    1      2.72      0.00
   34   18    1     -2.11      0.00
   36   18    1      3.51      0.00
    1   19    1      9.91      0.00
    3   19    1      4.77      0.00
    5   19    1     15.17      0.00
    7   19    1      1.68      0.00
    9   19    1      6.79      0.00
   11   19    1     -3.20      0.00
   13   19    1      3.87      0.00
   15   19    1     -1.47      0.00
   17   19    1      1.45      0.00
   19   19    1      4.17      0.00
   21   19    1      0.93      0.00
   23   19    1      5.48      0.00
   25   19    1      2.00      0.00
   27   19    1     -5.80      0.00
   29   19    1     -0.99      0.00
   31   19    1    -11.18      0.00
    0   20    1     15.97      0.00
    2   20    1      6.90      0.00
    4   20    1     13.74      0.00
    6   20    1      7.00      0.00
    8   20    1     10.78      0.00
   10   20    1      6.40      0.00
   12   20    1      8.89      0.00
   14   20    1      5.95      0.00
   16   20    1      6.29      0.00
   18   20    1      5.62      0.00
   20   20    1      4.15      0.00
   22   20    1      4.88      0.00
   24   20    1      2.77      0.00
   26   20    1      5.77      0.00
   28   20    1      1.71      0.00
    1   21    1    -14.27      0.00
    3   21    1    -15.00      0.00
    5   21    1     -1.66      0.00
    7   21    1     -3.57      0.00
    9   21    1      5.73      0.00
   11   21    1     -7.11      0.00
   13   21    1    -22.38      0.00
   15   21    1    -31.44      0.00
   17   21    1    -27.89      0.00
   19   21    1    -23.75      0.00
   21   21    1     -3.05      0.00
   23   21    1    -10.38      0.00
    0   22    1     14.00      0.00
    2   22    1      6.17      0.00
    4   22    1      4.23      0.00
    6   22    1      0.81      0.00
    8   22    1     -3.11      0.00
   10   22    1     11.34      0.00
   12   22    1     10.44      0.00
   14   22    1     19.62      0.00
    2    0    2    -41.77      0.00
    4    0    2    650.23      0.00
    8    0    2     48.85      0.00
   10    0    2     90.93      0.00
   12    0    2    156.96      0.00
   14    0    2     82.45      0.00
   16    0    2     48.81      0.00
   18    0    2    -68.88      0.00
   20    0    2     32.93      0.00
   22    0    2     30.36      0.00
   24    0    2     67.34      0.00
   26    0    2     48.69      0.00
   28    0    2     34.03      0.00
   30    0    2     26.66      0.00
   32    0    2     19.79      0.00
   34    0    2     17.78      0.00
   36    0    2     16.96      0.00
   38    0    2     21.70      0.00
   40    0    2      9.77      0.00
   42    0    2     19.26      0.00
   44    0    2      3.08      0.00
   46    0    2     15.80      0.00
   48    0    2     21.14      0.00
   50    0    2      4.88      0.00
   52    0    2     12.58      0.00
   54    0    2     -6.63      0.00
   56    0    2     -5.69      0.00
   58    0    2      8.87      0.00
    1    1    2    217.36      0.00
    5    1    2    342.08      0.00
    7    1    2    220.69      0.00
    9    1    2    131.68      0.00
   11    1    2      6.38      0.00
   13    1    2    -64.24      0.00
   15    1    2    -23.13      0.00
   17    1    2     10.76      0.00
   19    1    2     35.16      0.00
   21    1    2     28.86      0.00
   23    1    2      6.66      0.00
   25    1    2      3.59      0.00
   27    1    2      0.62      0.00
   29    1    2      7.40      0.00
   31    1    2      9.28      0.00
   33    1    2      8.87      0.00
   35    1    2      8.39      0.00
   37    1    2      7.92      0.00
   39    1    2      3.46      0.00
   41    1    2      0.49      0.00
   43    1    2      1.63      0.00
   45    1    2     -0.17      0.00
   47    1    2     -0.98      0.00
   49    1    2      6.23      0.00
   51    1    2    -10.25      0.00
   53    1    2     14.66      0.00
   55    1    2     -8.23      0.00
   57    1    2     10.37      0.00
    2    2    2     55.15      0.00
    4    2    2    -47.65      0.00
    6    2    2    -96.55      0.00
   10    2    2     46.14      0.00
   12    2    2     68.62      0.00
   16    2    2    -14.51      0.00
   18    2    2     -8.59      0.00
   20    2    2     -9.82      0.00
   22    2    2     27.62      0.00
   24    2    2     16.23      0.00
   26    2    2     15.76      0.00
   28    2    2      3.46      0.00
   30    2    2      0.30      0.00
   32    2    2     -8.42      0.00
   34    2    2      8.69      0.00
   36    2    2      3.77      0.00
   38    2    2     11.01      0.00
   40    2    2      0.44      0.00
   42    2    2      0.44      0.00
   44    2    2     -4.89      0.00
   46    2    2      6.65      0.00
   48    2    2     -4.99      0.00
   50    2    2      3.05      0.00
   52    2    2     -8.10      0.00
   54    2    2     11.29      0.00
   56    2    2      2.16      0.00
   58    2    2     18.65      0.00
    1    3    2      0.85      0.00
    3    3    2     75.50      0.00
    5    3    2    115.34      0.00
    9    3    2     50.08      0.00
   11    3    2     -1.16      0.00
   13    3    2    -47.89      0.00
   15    3    2    -10.12      0.00
   17    3    2     -1.90      0.00
   19    3    2     27.43      0.00
   21    3    2      3.29      0.00
   23    3    2     -1.39      0.00
   25    3    2    -18.85      0.00
   27    3    2     -7.92      0.00
   29    3    2      0.86      0.00
   31    3    2     10.78      0.00
   33    3    2      8.79      0.00
   35    3    2      6.20      0.00
   37    3    2     -7.31      0.00
   39    3    2      1.10      0.00
   41    3    2     -4.29      0.00
   43    3    2      6.64      0.00
   45    3    2      2.84      0.00
   47    3    2     12.28      0.00
   49    3    2      4.54      0.00
   51    3    2    -10.95      0.00
   53    3    2      3.59      0.00
   55    3    2    -31.93      0.00
   57    3    2     27.00      0.00
    2    4    2     91.15      0.00
    4    4    2      6.46      0.00
    6    4    2     52.72      0.00
    8    4    2    102.65      0.00
   10    4    2      4.88      0.00
   12    4    2     30.07      0.00
   14    4    2    -19.50      0.00
   16    4    2    -31.42      0.00
   18    4    2     35.04      0.00
   20    4    2     -3.47      0.00
   22    4    2     34.34      0.00
   24    4    2      0.20      0.00
   26    4    2     13.43      0.00
   28    4    2     -0.14      0.00
   30    4    2     12.79      0.00
   32    4    2     -1.74      0.00
   34    4    2     10.30      0.00
   36    4    2      5.25      0.00
   38    4    2     -2.05      0.00
   40    4    2      4.16      0.00
   42    4    2    -12.25      0.00
   44    4    2     19.38      0.00
   46    4    2      3.18      0.00
   48    4    2      8.68      0.00
   50    4    2      7.69      0.00
   52    4    2    -11.12      0.00
   54    4    2      8.61      0.00
   56    4    2     12.05      0.00
    1    5    2    -18.30      0.00
    3    5    2    -10.51      0.00
    5    5    2    -41.56      0.00
    7    5    2    -26.58      0.00
    9    5    2    -50.56      0.00
   11    5    2    -13.79      0.00
   13    5    2    -22.63      0.00
   15    5    2     11.63      0.00
   17    5    2     -1.61      0.00
   19    5    2      9.62      0.00
   21    5    2      5.16      0.00
   23    5    2      5.57      0.00
   25    5    2    -14.44      0.00
   27    5    2      2.13      0.00
   29    5    2    -24.37      0.00
   31    5    2     10.96      0.00
   33    5    2    -14.38      0.00
   35    5    2      1.84      0.00
   37    5    2      0.89      0.00
   39    5    2      7.97      0.00
   41    5    2     13.69      0.00
   43    5    2      9.94      0.00
   45    5    2      0.73      0.00
   47    5    2      3.85      0.00
   49    5    2     -7.83      0.00
   51    5    2    -23.10      0.00
   53    5    2    -44.07      0.00
   55    5    2    -53.17      0.00
   57    5    2    -29.29      0.00
    0    6    2     36.87      0.00
    2    6    2    -29.13      0.00
    4    6    2    -14.83      0.00
    6    6    2     -2.60      0.00
    8    6    2    -32.14      0.00
   10    6    2     39.51      0.00
   12    6    2    -18.89      0.00
   14    6    2      5.49      0.00
   16    6    2    -11.91      0.00
   18    6    2     -5.92      0.00
   20    6    2     20.67      0.00
   22    6    2     -2.25      0.00
   24    6    2     12.76      0.00
   26    6    2     -9.02      0.00
   28    6    2      3.43      0.00
   30    6    2     -1.21      0.00
   32    6    2      4.22      0.00
   34    6    2      0.97      0.00
   36    6    2      2.16      0.00
   38    6    2     -4.18      0.00
   40    6    2     10.85      0.00
   42    6    2     -8.11      0.00
   44    6    2     13.27      0.00
   46    6    2     -3.72      0.00
   48    6    2      6.71      0.00
   50    6    2      0.90      0.00
   52    6    2      0.99      0.00
   54    6    2     -7.79      0.00
   56    6    2      1.26      0.00
    1    7    2    -15.95      0.00
    3    7    2    -14.86      0.00
    5    7    2    -16.12      0.00
    7    7    2    -19.49      0.00
    9    7    2    -32.56      0.00
   11    7    2    -14.91      0.00
   13    7    2    -13.14      0.00
   15    7    2      6.18      0.00
   17    7    2     -5.37      0.00
   19    7    2     -1.78      0.00
   21    7    2    -12.57      0.00
   23    7    2     -9.55      0.00
   25    7    2    -10.77      0.00
   27    7    2     -7.92      0.00
   29    7    2     -1.92      0.00
   31    7    2      0.98      0.00
   33    7    2      5.75      0.00
   35    7    2     -8.48      0.00
   37    7    2      1.18      0.00
   39    7    2     -9.73      0.00
   41    7    2      7.57      0.00
   43    7    2     -6.24      0.00
   45    7    2      9.80      0.00
   47    7    2     -2.91      0.00
   49    7    2     16.35      0.00
   51    7    2      5.40      0.00
   53    7    2      9.45      0.00
    0    8    2     40.30      0.00
    2    8    2     21.82      0.00
    4    8    2     13.93      0.00
    6    8    2      7.70      0.00
    8    8    2      1.87      0.00
   10    8    2     36.84      0.00
   12    8    2     10.64      0.00
   14    8    2     36.34      0.00
   16    8    2      3.63      0.00
   18    8    2     20.38      0.00
   20    8    2      1.22      0.00
   22    8    2     16.08      0.00
   24    8    2      2.18      0.00
   26    8    2      6.09      0.00
   28    8    2      7.90      0.00
   30    8    2      3.15      0.00
   32    8    2     13.05      0.00
   34    8    2      1.00      0.00
   36    8    2      8.48      0.00
   38    8    2      2.34      0.00
   40    8    2      5.09      0.00
   42    8    2      9.33      0.00
   44    8    2     -1.43      0.00
   46    8    2      1.29      0.00
   48    8    2      7.38      0.00
   50    8    2      6.95      0.00
   54    8    2     10.12      0.00
    1    9    2    -13.29      0.00
    3    9    2      0.76      0.00
    5    9    2    -12.42      0.00
    7    9    2     -0.74      0.00
    9    9    2      5.17      0.00
   11    9    2    -11.20      0.00
   13    9    2      8.11      0.00
   15    9    2    -12.10      0.00
   17    9    2     -2.76      0.00
   19    9    2      4.27      0.00
   21    9    2     -0.99      0.00
   23    9    2     14.89      0.00
   25    9    2     -0.92      0.00
   27    9    2      3.77      0.00
   29    9    2      4.43      0.00
   31    9    2     -0.89      0.00
   33    9    2      0.38      0.00
   35    9    2     -2.18      0.00
   37    9    2    -12.14      0.00
   39    9    2      1.67      0.00
   41    9    2    -11.19      0.00
   43    9    2     -9.07      0.00
   45    9    2    -13.44      0.00
   47    9    2    -11.83      0.00
   49    9    2     -7.34      0.00
   51    9    2     -4.23      0.00
   53    9    2     -7.29      0.00
    0   10    2     19.96      0.00
    2   10    2    -16.50      0.00
    4   10    2     10.74      0.00
    6   10    2    -18.59      0.00
    8   10    2     11.08      0.00
   10   10    2     -8.57      0.00
   12   10    2     12.44      0.00
   14   10    2    -13.45      0.00
   16   10    2     -0.89      0.00
   18   10    2    -12.52      0.00
   20   10    2      4.36      0.00
   22   10    2      4.99      0.00
   24   10    2     10.91      0.00
   26   10    2      8.75      0.00
   28   10    2      7.82      0.00
   30   10    2      7.19      0.00
   32   10    2     11.68      0.00
   34   10    2     -1.30      0.00
   36   10    2      4.40      0.00
   38   10    2     -7.95      0.00
   40   10    2      1.53      0.00
   42   10    2     -1.99      0.00
   44   10    2      0.66      0.00
   46   10    2    -10.38      0.00
   48   10    2     -4.63      0.00
   50   10    2     -5.20      0.00
   52   10    2      0.66      0.00
    1   11    2     17.98      0.00
    3   11    2      4.43      0.00
    5   11    2     23.35      0.00
    7   11    2      1.51      0.00
    9   11    2     13.28      0.00
   11   11    2     -0.46      0.00
   13   11    2      1.19      0.00
   15   11    2    -10.73      0.00
   17   11    2     -0.83      0.00
   19   11    2    -10.82      0.00
   21   11    2      2.77      0.00
   23   11    2     -2.22      0.00
   25   11    2      2.01      0.00
   27   11    2     -2.05      0.00
   29   11    2     -2.56      0.00
   31   11    2     -7.90      0.00
   33   11    2     -5.27      0.00
   35   11    2     -9.26      0.00
   37   11    2      0.97      0.00
   39   11    2     -0.33      0.00
   41   11    2      4.14      0.00
   43   11    2      1.06      0.00
   45   11    2      3.12      0.00
   47   11    2     -3.96      0.00
   49   11    2      6.35      0.00
   51   11    2     -5.89      0.00
    0   12    2     17.13      0.00
    2   12    2     -0.19      0.00
    4   12    2      5.54      0.00
    6   12    2    -14.02      0.00
    8   12    2      8.26      0.00
   10   12    2     11.90      0.00
   12   12    2      6.75      0.00
   14   12    2     17.85      0.00
   16   12    2     -8.69      0.00
   18   12    2     13.73      0.00
   20   12    2      6.69      0.00
   22   12    2     15.78      0.00
   24   12    2      9.76      0.00
   26   12    2     -0.53      0.00
   28   12    2     -0.65      0.00
   30   12    2      0.70      0.00
   32   12    2     -3.58      0.00
   34   12    2      5.63      0.00
   36   12    2     -7.69      0.00
   38   12    2     -5.09      0.00
   40   12    2      2.71      0.00
   42   12    2     -6.03      0.00
   44   12    2      5.01      0.00
   46   12    2     -4.39      0.00
   48   12    2     -3.73      0.00
    1   13    2     -7.03      0.00
    3   13    2      7.06      0.00
    5   13    2      7.60      0.00
    7   13    2     11.31      0.00
    9   13    2     -0.98      0.00
   11   13    2    -11.32      0.00
   13   13    2     -6.64      0.00
   15   13    2     -5.58      0.00
   17   13    2     -1.57      0.00
   19   13    2     -3.11      0.00
   21   13    2     -8.99      0.00
   23   13    2     -2.52      0.00
   25   13    2     -2.75      0.00
   27   13    2      4.39      0.00
   29   13    2      2.65      0.00
   31   13    2      0.61      0.00
   33   13    2      2.68      0.00
   35   13    2      1.67      0.00
   37   13    2      1.69      0.00
   39   13    2     -1.49      0.00
   41   13    2      0.17      0.00
   43   13    2     -4.93      0.00
   45   13    2      3.02      0.00
   47   13    2      0.57      0.00
    0   14    2      1.20      0.00
    2   14    2     -3.47      0.00
    4   14    2     -4.97      0.00
    6   14    2     -4.81      0.00
    8   14    2     -4.97      0.00
   10   14    2      3.02      0.00
   12   14    2     -0.47      0.00
   14   14    2     -1.76      0.00
   16   14    2     -5.06      0.00
   18   14    2    -10.27      0.00
   20   14    2     -2.50      0.00
   22   14    2     -5.06      0.00
   24   14    2     -3.68      0.00
   26   14    2      0.06      0.00
   28   14    2    -13.05      0.00
   30   14    2      0.54      0.00
   32   14    2     -8.38      0.00
   34   14    2      0.06      0.00
   36   14    2     -0.88      0.00
   38   14    2     -0.79      0.00
   40   14    2     -5.36      0.00
   42   14    2     -2.53      0.00
   44   14    2     -3.00      0.00
   46   14    2     -2.18      0.00
    1   15    2      6.95      0.00
    3   15    2      7.02      0.00
    5   15    2     12.02      0.00
    7   15    2      8.23      0.00
    9   15    2      5.65      0.00
   11   15    2      2.74      0.00
   13   15    2      0.72      0.00
   15   15    2      2.64      0.00
   17   15    2     -1.73      0.00
   19   15    2      5.20      0.00
   21   15    2     -0.63      0.00
   23   15    2      6.70      0.00
   25   15    2      4.49      0.00
   27   15    2     -0.53      0.00
   29   15    2      2.45      0.00
   31   15    2     -0.97      0.00
   33   15    2      3.49      0.00
   35   15    2      5.49      0.00
   37   15    2      0.94      0.00
   39   15    2      7.15      0.00
   41   15    2     -0.83      0.00
   43   15    2      9.46      0.00
    0   16    2     -1.08      0.00
    2   16    2     -9.12      0.00
    4   16    2      2.20      0.00
    6   16    2    -10.16      0.00
    8   16    2      1.42      0.00
   10   16    2     -5.98      0.00
   12   16    2      2.19      0.00
   14   16    2     -1.16      0.00
   16   16    2      8.63      0.00
   18   16    2     -0.82      0.00
   20   16    2      2.87      0.00
   22   16    2      2.71      0.00
   24   16    2     -3.11      0.00
   26   16    2      7.53      0.00
   28   16    2      4.69      0.00
   30   16    2      4.18      0.00
   32   16    2      1.33      0.00
   34   16    2     -0.57      0.00
   36   16    2     -5.53      0.00
   38   16    2      1.72      0.00
   40   16    2     -3.32      0.00
    1   17    2      3.34      0.00
    3   17    2     12.74      0.00
    5   17    2      2.51      0.00
    7   17    2      9.74      0.00
    9   17    2      3.91      0.00
   11   17    2      2.08      0.00
   13   17    2      5.11      0.00
   15   17    2      7.39      0.00
   17   17    2      3.70      0.00
   19   17    2      7.45      0.00
   21   17    2     -0.37      0.00
   23   17    2      3.06      0.00
   25   17    2     -3.41      0.00
   27   17    2     -0.93      0.00
   29   17    2     -0.13      0.00
   31   17    2      2.57      0.00
   33   17    2      7.92      0.00
   35   17    2      2.12      0.00
   37   17    2      3.46      0.00
   39   17    2     -1.94      0.00
    0   18    2     16.18      0.00
    2   18    2      2.64      0.00
    4   18    2      9.53      0.00
    6   18    2      5.57      0.00
    8   18    2      0.44      0.00
   10   18    2      2.97      0.00
   12   18    2     -4.21      0.00
   14   18    2     -0.51      0.00
   16   18    2     -6.37      0.00
   18   18    2      2.97      0.00
   20   18    2     -1.45      0.00
   22   18    2      2.94      0.00
   24   18    2      1.48      0.00
   26   18    2     -0.93      0.00
   28   18    2      4.17      0.00
   30   18    2      1.39      0.00
   32   18    2     -3.78      0.00
   34   18    2     -1.69      0.00
    1   19    2      6.05      0.00
    3   19    2      8.37      0.00
    5   19    2      6.95      0.00
    7   19    2      5.25      0.00
    9   19    2     -1.08      0.00
   11   19    2     -3.13      0.00
   13   19    2     -0.55      0.00
   15   19    2      0.96      0.00
   17   19    2      2.95      0.00
   19   19    2      2.22      0.00
   21   19    2      3.14      0.00
   23   19    2      2.55      0.00
   25   19    2      5.61      0.00
   27   19    2      2.93      0.00
   29   19    2      4.01      0.00
   31   19    2      3.82      0.00
    0   20    2      0.45      0.00
    2   20    2    -23.25      0.00
    4   20    2      6.17      0.00
    6   20    2    -14.97      0.00
    8   20    2      2.42      0.00
   10   20    2     -8.97      0.00
   12   20    2      7.12      0.00
   14   20    2      6.41      0.00
   16   20    2     13.27      0.00
   18   20    2      2.56      0.00
   20   20    2      2.08      0.00
   22   20    2     -2.55      0.00
   24   20    2      0.74      0.00
   26   20    2      4.01      0.00
   28   20    2      4.62      0.00
    1   21    2      1.74      0.00
    3   21    2      2.92      0.00
    5   21    2     10.57      0.00
    7   21    2     12.00      0.00
    9   21    2     10.98      0.00
   11   21    2      7.05      0.00
   13   21    2     -4.45      0.00
   15   21    2     -4.63      0.00
   17   21    2     -5.69      0.00
   19   21    2     -2.03      0.00
   21   21    2      2.05      0.00
    0   22    2     24.96      0.00
    2   22    2      5.49      0.00
    4   22    2     27.46      0.00
    6   22    2     -0.95      0.00
    8   22    2      5.16      0.00
   10   22    2    -24.83      0.00
   12   22    2      3.17      0.00
   14   22    2     -8.22      0.00
    1    1    3   -133.32      0.00
    3    1    3   -185.25      0.00
    5    1    3    188.06      0.00
    7    1    3    -13.73      0.00
    9    1    3    106.05      0.00
   11    1    3     -5.78      0.00
   13    1    3    -22.50      0.00
   15    1    3     48.70      0.00
   17    1    3     48.17      0.00
   19    1    3     40.62      0.00
   21    1    3     24.55      0.00
   23    1    3      6.01      0.00
   25    1    3     15.57      0.00
   27    1    3     29.51      0.00
   29    1    3     20.70      0.00
   31    1    3     21.75      0.00
   33    1    3     14.85      0.00
   35    1    3     11.56      0.00
   37    1    3     13.53      0.00
   39    1    3     -0.10      0.00
   41    1    3     10.26      0.00
   43    1    3      3.08      0.00
   45    1    3      2.08      0.00
   47    1    3      5.28      0.00
   49    1    3     -3.64      0.00
   51    1    3      9.13      0.00
   53    1    3      9.90      0.00
   55    1    3      7.39      0.00
   57    1    3      2.40      0.00
    0    2    3    258.44      0.00
    2    2    3    -14.54      0.00
    4    2    3      4.22      0.00
    6    2    3   -173.81      0.00
   12    2    3     63.58      0.00
   14    2    3     65.00      0.00
   16    2    3     13.85      0.00
   18    2    3    -26.50      0.00
   20    2    3    -26.42      0.00
   22    2    3      0.31      0.00
   24    2    3     17.30      0.00
   26    2    3     26.73      0.00
   28    2    3      2.72      0.00
   30    2    3      8.15      0.00
   32    2    3    -20.57      0.00
   34    2    3      1.67      0.00
   36    2    3    -18.18      0.00
   38    2    3      6.76      0.00
   40    2    3    -13.44      0.00
   42    2    3      3.47      0.00
   44    2    3    -15.60      0.00
   46    2    3     -4.01      0.00
   48    2    3     -2.04      0.00
   50    2    3      4.56      0.00
   52    2    3     17.30      0.00
   54    2    3     25.52      0.00
   56    2    3     10.10      0.00
   58    2    3     38.82      0.00
    1    3    3     67.99      0.00
    3    3    3    198.70      0.00
    5    3    3    -39.52      0.00
    7    3    3    161.27      0.00
    9    3    3    -74.10      0.00
   11    3    3     32.63      0.00
   13    3    3    -17.52      0.00
   15    3    3     15.47      0.00
   17    3    3     28.84      0.00
   19    3    3     15.56      0.00
   21    3    3      1.60      0.00
   23    3    3     12.87      0.00
   25    3    3      1.99      0.00
   27    3    3     22.36      0.00
   29    3    3     14.42      0.00
   31    3    3     17.19      0.00
   33    3    3      5.69      0.00
   35    3    3      9.78      0.00
   37    3    3     -4.24      0.00
   39    3    3      8.09      0.00
   41    3    3     -0.14      0.00
   43    3    3      3.79      0.00
   45    3    3      0.08      0.00
   47    3    3     -2.13      0.00
   49    3    3      5.22      0.00
   51    3    3     12.21      0.00
   53    3    3     -0.69      0.00
   55    3    3     13.26      0.00
   57    3    3    -15.42      0.00
    0    4    3      2.64      0.00
    2    4    3     -7.31      0.00
    4    4    3     -9.07      0.00
    6    4    3    -59.09      0.00
    8    4    3      8.62      0.00
   10    4    3     -9.26      0.00
   12    4    3     24.08      0.00
   14    4    3     23.13      0.00
   16    4    3      6.23      0.00
   18    4    3      7.76      0.00
   20    4    3     -1.71      0.00
   22    4    3     15.35      0.00
   24    4    3     13.66      0.00
   26    4    3     24.88      0.00
   28    4    3      8.91      0.00
   30    4    3     -3.95      0.00
   32    4    3    -11.96      0.00
   34    4    3     -9.12      0.00
   36    4    3      0.77      0.00
   38    4    3     -2.78      0.00
   40    4    3      2.47      0.00
   42    4    3     -2.27      0.00
   44    4    3      1.20      0.00
   46    4    3     -2.31      0.00
   48    4    3      1.95      0.00
   50    4    3     -3.75      0.00
   52    4    3     38.10      0.00
   54    4    3     20.35      0.00
   56    4    3     47.39      0.00
    1    5    3     21.51      0.00
    3    5    3     26.24      0.00
    5    5    3    -11.53      0.00
    7    5    3     14.00      0.00
    9    5    3    -15.64      0.00
   11    5    3     24.34      0.00
   13    5    3     25.43      0.00
   15    5    3     34.03      0.00
   17    5    3     19.11      0.00
   19    5    3     16.20      0.00
   21    5    3     -0.90      0.00
   23    5    3     10.58      0.00
   25    5    3      7.65      0.00
   27    5    3      1.44      0.00
   29    5    3      1.75      0.00
   31    5    3     -6.64      0.00
   33    5    3     -1.93      0.00
   35    5    3      2.14      0.00
   37    5    3     -0.52      0.00
   39    5    3     13.13      0.00
   41    5    3      0.00      0.00
   43    5    3      7.27      0.00
   45    5    3      0.09      0.00
   47    5    3     -2.83      0.00
   49    5    3     -1.19      0.00
   51    5    3      4.05      0.00
   53    5    3     -9.91      0.00
   55    5    3     13.18      0.00
    0    6    3     32.90      0.00
    2    6    3      1.99      0.00
    4    6    3     23.43      0.00
    6    6    3     39.47      0.00
    8    6    3     10.54      0.00
   10    6    3     27.49      0.00
   12    6    3    -13.17      0.00
   14    6    3    -25.27      0.00
   16    6    3    -10.65      0.00
   18    6    3    -27.88      0.00
   20    6    3      4.32      0.00
   22    6    3     -9.91      0.00
   24    6    3     -0.22      0.00
   26    6    3      3.81      0.00
   28    6    3     -8.30      0.00
   30    6    3     -9.37      0.00
   32    6    3     -0.66      0.00
   34    6    3     -6.84      0.00
   36    6    3     17.77      0.00
   38    6    3      4.87      0.00
   40    6    3      2.66      0.00
   42    6    3      8.44      0.00
   44    6    3      0.04      0.00
   46    6    3     11.77      0.00
   48    6    3     -9.46      0.00
   50    6    3     11.91      0.00
   52    6    3     -2.89      0.00
   54    6    3     29.81      0.00
   56    6    3     17.80      0.00
    1    7    3      7.16      0.00
    3    7    3      0.54      0.00
    5    7    3     41.43      0.00
    7    7    3      4.97      0.00
    9    7    3      3.92      0.00
   11    7    3     -4.49      0.00
   13    7    3    -19.71      0.00
   15    7    3     12.20      0.00
   17    7    3     -7.47      0.00
   19    7    3      2.06      0.00
   21    7    3     -1.91      0.00
   23    7    3      2.20      0.00
   25    7    3      8.60      0.00
   27    7    3     10.05      0.00
   29    7    3      3.73      0.00
   31    7    3      0.44      0.00
   33    7    3      0.58      0.00
   35    7    3     -1.53      0.00
   37    7    3      0.40      0.00
   39    7    3     -4.12      0.00
   41    7    3     -4.81      0.00
   43    7    3     -2.27      0.00
   45    7    3     -3.69      0.00
   47    7    3      5.40      0.00
   49    7    3    -11.71      0.00
   51    7    3     -6.81      0.00
   53    7    3    -12.00      0.00
   55    7    3     -4.98      0.00
    0    8    3     -8.36      0.00
    2    8    3     33.57      0.00
    4    8    3      5.63      0.00
    6    8    3     13.30      0.00
    8    8    3     26.15      0.00
   10    8    3      3.50      0.00
   12    8    3      7.04      0.00
   14    8    3     -3.47      0.00
   16    8    3     -5.00      0.00
   18    8    3     -3.34      0.00
   20    8    3      6.98      0.00
   22    8    3     -9.49      0.00
   24    8    3     11.78      0.00
   26    8    3     -7.83      0.00
   28    8    3      1.81      0.00
   30    8    3     -6.53      0.00
   32    8    3    -14.59      0.00
   34    8    3      7.40      0.00
   36    8    3     -4.16      0.00
   38    8    3      4.82      0.00
   40    8    3      4.63      0.00
   42    8    3    -11.48      0.00
   44    8    3      1.78      0.00
   46    8    3    -14.77      0.00
   48    8    3    -18.40      0.00
   50    8    3    -29.66      0.00
   52    8    3    -25.03      0.00
    1    9    3    -10.83      0.00
    3    9    3     -3.40      0.00
    5    9    3      5.75      0.00
    7    9    3      2.67      0.00
    9    9    3      5.56      0.00
   11    9    3     -0.75      0.00
   13    9    3     13.75      0.00
   15    9    3      9.15      0.00
   17    9    3     24.42      0.00
   19    9    3      7.03      0.00
   21    9    3     18.96      0.00
   23    9    3      1.39      0.00
   25    9    3      9.37      0.00
   27    9    3     -1.67      0.00
   29    9    3     -0.16      0.00
   31    9    3      1.00      0.00
   33    9    3      0.17      0.00
   35    9    3      0.26      0.00
   37    9    3      8.26      0.00
   39    9    3     -6.45      0.00
   41    9    3      6.06      0.00
   43    9    3      0.64      0.00
   45    9    3      8.36      0.00
   47    9    3     13.31      0.00
   49    9    3      4.41      0.00
   51    9    3      1.31      0.00
   53    9    3     -3.17      0.00
    0   10    3     14.79      0.00
    2   10    3      9.94      0.00
    4   10    3     13.11      0.00
    6   10    3      8.30      0.00
    8   10    3      0.11      0.00
   10   10    3     -4.29      0.00
   12   10    3     -2.22      0.00
   14   10    3      2.01      0.00
   16   10    3      8.64      0.00
   18   10    3      6.89      0.00
   20   10    3     -6.09      0.00
   22   10    3     -4.63      0.00
   24   10    3     -9.88      0.00
   26   10    3      0.93      0.00
   28   10    3     -1.61      0.00
   30   10    3      9.64      0.00
   32   10    3      1.15      0.00
   34   10    3     11.88      0.00
   36   10    3      2.94      0.00
   38   10    3     -5.63      0.00
   40   10    3      1.98      0.00
   42   10    3    -16.53      0.00
   44   10    3     12.96      0.00
   46   10    3    -17.31      0.00
   48   10    3      2.64      0.00
   50   10    3    -17.14      0.00
   52   10    3     -4.32      0.00
    1   11    3     -8.78      0.00
    3   11    3      1.30      0.00
    5   11    3      2.88      0.00
    7   11    3      1.87      0.00
    9   11    3      3.47      0.00
   11   11    3     -7.89      0.00
   13   11    3      8.55      0.00
   15   11    3      3.19      0.00
   17   11    3      7.86      0.00
   19   11    3      1.89      0.00
   21   11    3     -1.30      0.00
   23   11    3      0.31      0.00
   25   11    3      3.56      0.00
   27   11    3      4.61      0.00
   29   11    3      8.24      0.00
   31   11    3     -0.91      0.00
   33   11    3      3.73      0.00
   35   11    3     -0.88      0.00
   37   11    3     -2.22      0.00
   39   11    3     -3.38      0.00
   41   11    3    -10.64      0.00
   43   11    3    -11.51      0.00
   45   11    3     -1.86      0.00
   47   11    3      2.39      0.00
   49   11    3      7.23      0.00
   51   11    3      4.12      0.00
    0   12    3      4.92      0.00
    2   12    3     22.66      0.00
    4   12    3     -5.09      0.00
    6   12    3      7.01      0.00
    8   12    3     -6.69      0.00
   10   12    3      3.31      0.00
   12   12    3     -0.26      0.00
   14   12    3     -2.44      0.00
   16   12    3      0.27      0.00
   18   12    3     -0.52      0.00
   20   12    3      4.65      0.00
   22   12    3      7.50      0.00
   24   12    3      3.15      0.00
   26   12    3      3.63      0.00
   28   12    3     -2.39      0.00
   30   12    3     -2.22      0.00
   32   12    3     -0.83      0.00
   34   12    3     -0.96      0.00
   36   12    3      1.02      0.00
   38   12    3     -1.79      0.00
   40   12    3      0.33      0.00
   42   12    3     -0.82      0.00
   44   12    3     -0.38      0.00
   46   12    3     -0.32      0.00
   48   12    3     -4.81      0.00
    1   13    3     -9.47      0.00
    3   13    3     -7.22      0.00
    5   13    3     -0.47      0.00
    7   13    3     -7.34      0.00
    9   13    3     -5.63      0.00
   11   13    3    -10.82      0.00
   13   13    3     -5.10      0.00
   15   13    3      1.31      0.00
   17   13    3     -2.20      0.00
   19   13    3      1.76      0.00
   21   13    3     -7.43      0.00
   23   13    3     -1.16      0.00
   25   13    3     -3.50      0.00
   27   13    3      1.03      0.00
   29   13    3     -4.63      0.00
   31   13    3     -2.73      0.00
   33   13    3    -11.54      0.00
   35   13    3     -0.23      0.00
   37   13    3     -6.81      0.00
   39   13    3      3.79      0.00
   41   13    3     -2.45      0.00
   43   13    3     -0.27      0.00
   45   13    3      0.14      0.00
   47   13    3      0.03      0.00
    0   14    3     23.89      0.00
    2   14    3     11.27      0.00
    4   14    3      4.78      0.00
    6   14    3    -10.48      0.00
    8   14    3     -1.41      0.00
   10   14    3     -3.69      0.00
   12   14    3      2.67      0.00
   14   14    3     -2.32      0.00
   16   14    3     -7.65      0.00
   18   14    3     -3.46      0.00
   20   14    3     -5.33      0.00
   22   14    3     -2.25      0.00
   24   14    3     -1.14      0.00
   26   14    3     -0.57      0.00
   28   14    3      1.11      0.00
   30   14    3      5.00      0.00
   32   14    3     -4.15      0.00
   34   14    3      3.53      0.00
   36   14    3     -7.19      0.00
   38   14    3      1.09      0.00
   40   14    3     -3.37      0.00
   42   14    3     -2.59      0.00
   44   14    3     -6.49      0.00
   46   14    3     -6.11      0.00
    1   15    3      0.17      0.00
    3   15    3      4.06      0.00
    5   15    3     -4.99      0.00
    7   15    3      1.87      0.00
    9   15    3     -9.14      0.00
   11   15    3     -3.70      0.00
   13   15    3    -11.58      0.00
   15   15    3     -2.37      0.00
   17   15    3     -0.78      0.00
   19   15    3     -1.55      0.00
   21   15    3      3.48      0.00
   23   15    3     -4.94      0.00
   25   15    3     -1.59      0.00
   27   15    3      0.40      0.00
   29   15    3     -7.05      0.00
   31   15    3     -0.13      0.00
   33   15    3     -7.36      0.00
   35   15    3     -5.78      0.00
   37   15    3     -0.32      0.00
   39   15    3     -5.72      0.00
   41   15    3     -0.51      0.00
   43   15    3     -2.93      0.00
    0   16    3     -3.69      0.00
    2   16    3      1.65      0.00
    4   16    3     -3.49      0.00
    6   16    3     -3.34      0.00
    8   16    3     -2.42      0.00
   10   16    3     -4.88      0.00
   12   16    3     -6.38      0.00
   14   16    3     -4.00      0.00
   16   16    3     -5.03      0.00
   18   16    3     -0.47      0.00
   20   16    3     -2.11      0.00
   22   16    3     -6.05      0.00
   24   16    3     -3.84      0.00
   26   16    3     -4.96      0.00
   28   16    3     -7.43      0.00
   30   16    3     -4.31      0.00
   32   16    3    -20.19      0.00
   34   16    3     -5.33      0.00
   36   16    3    -20.49      0.00
   38   16    3      2.82      0.00
   40   16    3    -13.90      0.00
    1   17    3     -0.42      0.00
    3   17    3     -3.65      0.00
    5   17    3     -9.61      0.00
    7   17    3     -4.54      0.00
    9   17    3      1.69      0.00
   11   17    3      3.55      0.00
   13   17    3      3.09      0.00
   15   17    3     -2.38      0.00
   17   17    3     -3.44      0.00
   19   17    3     -3.01      0.00
   21   17    3     -3.59      0.00
   23   17    3      5.60      0.00
   25   17    3     -2.84      0.00
   27   17    3      3.36      0.00
   29   17    3     -1.30      0.00
   31   17    3     -6.63      0.00
   33   17    3      6.58      0.00
   35   17    3     -3.32      0.00
   37   17    3      1.74      0.00
    0   18    3      5.87      0.00
    2   18    3     17.63      0.00
    4   18    3      0.58      0.00
    6   18    3      1.09      0.00
    8   18    3     -0.49      0.00
   10   18    3      0.86      0.00
   12   18    3     -5.60      0.00
   14   18    3     -3.59      0.00
   16   18    3     -8.21      0.00
   18   18    3     -4.88      0.00
   20   18    3      1.93      0.00
   22   18    3     -3.21      0.00
   24   18    3      4.55      0.00
   26   18    3     -5.02      0.00
   28   18    3      4.11      0.00
   30   18    3     -9.38      0.00
   32   18    3     -1.35      0.00
   34   18    3    -10.98      0.00
    1   19    3     19.56      0.00
    3   19    3     10.31      0.00
    5   19    3      6.92      0.00
    7   19    3     -0.71      0.00
    9   19    3      0.76      0.00
   11   19    3     -3.11      0.00
   13   19    3     -2.56      0.00
   15   19    3      3.10      0.00
   17   19    3      3.04      0.00
   19   19    3     13.61      0.00
   21   19    3      3.06      0.00
   23   19    3      9.97      0.00
   25   19    3      5.52      0.00
   27   19    3      6.43      0.00
   29   19    3      6.65      0.00
   31   19    3      2.02      0.00
    0   20    3     -1.28      0.00
    2   20    3    -22.31      0.00
    4   20    3      0.20      0.00
    6   20    3    -13.08      0.00
    8   20    3      2.49      0.00
   10   20    3     -6.17      0.00
   12   20    3      2.21      0.00
   14   20    3      1.80      0.00
   16   20    3      3.93      0.00
   18   20    3      8.95      0.00
   20   20    3      5.62      0.00
   22   20    3      9.14      0.00
   24   20    3      3.25      0.00
   26   20    3     12.01      0.00
    1   21    3     12.92      0.00
    3   21    3      2.27      0.00
    5   21    3     -6.76      0.00
    7   21    3     -3.04      0.00
    9   21    3      3.90      0.00
   11   21    3      4.20      0.00
   13   21    3     -7.95      0.00
   15   21    3    -16.71      0.00
   17   21    3    -14.59      0.00
   19   21    3    -13.30      0.00
   21   21    3     -1.26      0.00
    0   22    3      4.17      0.00
    2   22    3    -16.73      0.00
    4   22    3     -9.60      0.00
    6   22    3    -18.08      0.00
    8   22    3    -26.98      0.00
   10   22    3     -3.02      0.00
   12   22    3     -9.22      0.00
   14   22    3     13.57      0.00
    2    0    4   -408.52      0.00
    4    0    4     80.67      0.00
    6    0    4   -187.46      0.00
    8    0    4    -24.87      0.00
   10    0    4    -22.48      0.00
   12    0    4    -17.09      0.00
   14    0    4    -32.18      0.00
   16    0    4    -11.73      0.00
   18    0    4    -37.91      0.00
   20    0    4      4.67      0.00
   22    0    4     -6.20      0.00
   24    0    4     -3.40      0.00
   26    0    4    -17.78      0.00
   28    0    4     -2.79      0.00
   30    0    4      1.92      0.00
   32    0    4     10.14      0.00
   34    0    4      3.68      0.00
   36    0    4     -5.09      0.00
   38    0    4      5.40      0.00
   40    0    4      0.47      0.00
   42    0    4     19.28      0.00
   44    0    4      3.77      0.00
   46    0    4     19.13      0.00
   48    0    4      9.08      0.00
   50    0    4      3.14      0.00
   52    0    4      1.43      0.00
   54    0    4    -15.51      0.00
   56    0    4      1.51      0.00
   58    0    4     -5.82      0.00
    1    1    4    -40.95      0.00
    5    1    4    122.07      0.00
    7    1    4     39.80      0.00
   11    1    4    -36.70      0.00
   13    1    4    -71.17      0.00
   15    1    4    -43.77      0.00
   17    1    4    -18.06      0.00
   19    1    4      3.52      0.00
   21    1    4      2.49      0.00
   23    1    4    -11.37      0.00
   25    1    4     -8.22      0.00
   27    1    4    -15.80      0.00
   29    1    4     -3.10      0.00
   31    1    4      1.22      0.00
   33    1    4      5.21      0.00
   35    1    4      4.66      0.00
   37    1    4      5.78      0.00
   39    1    4     -1.84      0.00
   41    1    4      1.18      0.00
   43    1    4      3.77      0.00
   45    1    4      2.51      0.00
   47    1    4      3.07      0.00
   49    1    4      5.57      0.00
   51    1    4    -10.64      0.00
   53    1    4     14.62      0.00
   55    1    4    -12.42      0.00
   57    1    4      8.69      0.00
    0    2    4    -44.82      0.00
    2    2    4    -46.21      0.00
    4    2    4    -67.22      0.00
    6    2    4    -47.59      0.00
    8    2    4    -49.21      0.00
   10    2    4    -10.55      0.00
   12    2    4     -5.26      0.00
   14    2    4    -24.37      0.00
   16    2    4    -28.38      0.00
   18    2    4    -29.16      0.00
   20    2    4    -19.66      0.00
   22    2    4      4.31      0.00
   24    2    4    -17.28      0.00
   26    2    4    -18.18      0.00
   28    2    4    -26.35      0.00
   30    2    4    -11.25      0.00
   32    2    4     -6.21      0.00
   34    2    4      2.65      0.00
   36    2    4     -2.14      0.00
   38    2    4      1.14      0.00
   40    2    4      0.74      0.00
   42    2    4      5.30      0.00
   44    2    4      0.75      0.00
   46    2    4     10.05      0.00
   48    2    4     -1.67      0.00
   50    2    4      8.89      0.00
   52    2    4    -13.46      0.00
   54    2    4      0.25      0.00
   56    2    4    -10.27      0.00
    1    3    4    -61.61      0.00
    3    3    4     20.94      0.00
    5    3    4     51.68      0.00
    7    3    4     92.52      0.00
    9    3    4     19.12      0.00
   11    3    4    -22.02      0.00
   13    3    4    -63.12      0.00
   15    3    4    -22.34      0.00
   17    3    4    -15.04      0.00
   19    3    4     30.96      0.00
   21    3    4      0.73      0.00
   23    3    4      8.46      0.00
   25    3    4    -19.81      0.00
   27    3    4     -5.81      0.00
   29    3    4      0.31      0.00
   31    3    4      8.85      0.00
   33    3    4     11.53      0.00
   35    3    4     10.28      0.00
   37    3    4     -4.35      0.00
   39    3    4      7.70      0.00
   41    3    4     -4.25      0.00
   43    3    4      9.00      0.00
   45    3    4     -0.34      0.00
   47    3    4      7.32      0.00
   49    3    4      0.39      0.00
   51    3    4    -16.38      0.00
   53    3    4      7.70      0.00
   55    3    4    -41.87      0.00
   57    3    4     24.11      0.00
    0    4    4    -10.82      0.00
    2    4    4    106.45      0.00
    4    4    4     19.87      0.00
    6    4    4     46.27      0.00
    8    4    4     48.27      0.00
   10    4    4     -1.98      0.00
   12    4    4     18.17      0.00
   14    4    4     -2.77      0.00
   16    4    4    -27.33      0.00
   18    4    4     13.57      0.00
   20    4    4    -23.77      0.00
   22    4    4     12.96      0.00
   24    4    4     -5.48      0.00
   26    4    4     -0.84      0.00
   28    4    4      1.51      0.00
   30    4    4      8.90      0.00
   32    4    4      1.06      0.00
   34    4    4     12.81      0.00
   36    4    4     -4.21      0.00
   38    4    4      0.27      0.00
   40    4    4     -1.51      0.00
   42    4    4    -10.43      0.00
   44    4    4      4.83      0.00
   46    4    4     -2.17      0.00
   48    4    4      5.79      0.00
   50    4    4     10.90      0.00
   52    4    4      1.24      0.00
   54    4    4     10.95      0.00
   56    4    4      8.69      0.00
    1    5    4    -12.36      0.00
    3    5    4     -4.55      0.00
    5    5    4    -43.81      0.00
    7    5    4    -15.10      0.00
    9    5    4    -42.59      0.00
   11    5    4      8.99      0.00
   13    5    4    -12.17      0.00
   15    5    4     24.61      0.00
   17    5    4      8.66      0.00
   19    5    4     15.30      0.00
   21    5    4      9.29      0.00
   23    5    4      3.35      0.00
   25    5    4    -23.93      0.00
   27    5    4      1.11      0.00
   29    5    4    -30.63      0.00
   31    5    4     13.18      0.00
   33    5    4    -21.18      0.00
   35    5    4     -5.27      0.00
   37    5    4    -11.30      0.00
   39    5    4     -5.01      0.00
   41    5    4      4.61      0.00
   43    5    4      4.74      0.00
   45    5    4     -1.76      0.00
   47    5    4      6.29      0.00
   49    5    4     -2.00      0.00
   51    5    4     -1.62      0.00
   53    5    4    -20.94      0.00
   55    5    4    -21.75      0.00
    0    6    4      6.53      0.00
    2    6    4    -27.71      0.00
    4    6    4    -11.15      0.00
    6    6    4     -8.61      0.00
    8    6    4    -23.04      0.00
   10    6    4      6.47      0.00
   12    6    4    -21.26      0.00
   14    6    4     -3.78      0.00
   16    6    4    -11.57      0.00
   18    6    4     -3.73      0.00
   20    6    4      6.98      0.00
   22    6    4     -7.14      0.00
   24    6    4      4.51      0.00
   26    6    4    -14.85      0.00
   28    6    4      5.48      0.00
   30    6    4    -10.29      0.00
   32    6    4      4.25      0.00
   34    6    4     -9.94      0.00
   36    6    4     -2.52      0.00
   38    6    4     -6.49      0.00
   40    6    4      7.22      0.00
   42    6    4      1.42      0.00
   44    6    4     14.13      0.00
   46    6    4     -1.73      0.00
   48    6    4      6.85      0.00
   50    6    4     -6.78      0.00
   52    6    4      7.24      0.00
   54    6    4     -4.35      0.00
   56    6    4      7.23      0.00
    1    7    4     26.96      0.00
    3    7    4     17.82      0.00
    5    7    4      7.66      0.00
    7    7    4      5.88      0.00
    9    7    4     -3.17      0.00
   11    7    4     26.15      0.00
   13    7    4     20.68      0.00
   15    7    4     40.86      0.00
   17    7    4     17.50      0.00
   19    7    4     21.94      0.00
   21    7    4      4.79      0.00
   23    7    4      2.60      0.00
   25    7    4     -1.79      0.00
   27    7    4      1.24      0.00
   29    7    4      4.39      0.00
   31    7    4      7.50      0.00
   33    7    4      7.92      0.00
   35    7    4     -7.93      0.00
   37    7    4      6.03      0.00
   39    7    4     -5.40      0.00
   41    7    4     14.00      0.00
   43    7    4     -6.00      0.00
   45    7    4      6.45      0.00
   47    7    4     -9.58      0.00
   49    7    4      8.49      0.00
   51    7    4     -1.89      0.00
   53    7    4      3.49      0.00
    0    8    4     40.61      0.00
    2    8    4     21.23      0.00
    4    8    4     13.49      0.00
    6    8    4      9.62      0.00
    8    8    4      4.61      0.00
   10    8    4     27.70      0.00
   12    8    4     13.74      0.00
   14    8    4     14.97      0.00
   16    8    4     15.23      0.00
   18    8    4      7.30      0.00
   20    8    4     17.79      0.00
   22    8    4      6.02      0.00
   24    8    4      2.05      0.00
   26    8    4     -1.45      0.00
   28    8    4     -1.35      0.00
   30    8    4     -3.52      0.00
   32    8    4     12.43      0.00
   34    8    4     -2.46      0.00
   36    8    4     23.29      0.00
   38    8    4      7.25      0.00
   40    8    4     17.09      0.00
   42    8    4     18.42      0.00
   44    8    4      5.02      0.00
   46    8    4     21.68      0.00
   48    8    4     11.11      0.00
   50    8    4     34.10      0.00
   52    8    4     23.28      0.00
    1    9    4     12.54      0.00
    3    9    4     25.57      0.00
    5    9    4     -1.25      0.00
    7    9    4     11.82      0.00
    9    9    4     21.64      0.00
   11    9    4      3.06      0.00
   13    9    4     29.50      0.00
   15    9    4     -4.41      0.00
   17    9    4      4.31      0.00
   19    9    4      7.85      0.00
   21    9    4      4.28      0.00
   23    9    4     25.82      0.00
   25    9    4      5.76      0.00
   27    9    4      8.00      0.00
   29    9    4      6.73      0.00
   31    9    4     -8.43      0.00
   33    9    4     -0.70      0.00
   35    9    4     -7.01      0.00
   37    9    4    -14.55      0.00
   39    9    4      6.12      0.00
   41    9    4    -11.87      0.00
   43    9    4      0.26      0.00
   45    9    4     -4.14      0.00
   47    9    4      3.40      0.00
   49    9    4     12.33      0.00
   51    9    4     16.35      0.00
    0   10    4     12.58      0.00
    2   10    4     -4.39      0.00
    4   10    4     11.94      0.00
    6   10    4     -9.76      0.00
    8   10    4     26.45      0.00
   10   10    4      3.07      0.00
   12   10    4     23.23      0.00
   14   10    4      2.08      0.00
   16   10    4     10.92      0.00
   18   10    4      6.74      0.00
   20   10    4     14.73      0.00
   22   10    4     11.26      0.00
   24   10    4     14.66      0.00
   26   10    4      9.96      0.00
   28   10    4      9.54      0.00
   30   10    4      4.63      0.00
   32   10    4      7.45      0.00
   34   10    4      1.77      0.00
   36   10    4      9.72      0.00
   38   10    4      1.91      0.00
   40   10    4     10.54      0.00
   42   10    4      6.10      0.00
   44   10    4      0.35      0.00
   46   10    4     -1.15      0.00
   48   10    4    -10.07      0.00
   50   10    4      6.00      0.00
   52   10    4      4.24      0.00
    1   11    4     22.26      0.00
    3   11    4      5.23      0.00
    5   11    4     28.34      0.00
    7   11    4      6.41      0.00
    9   11    4     26.83      0.00
   11   11    4     18.56      0.00
   13   11    4     22.01      0.00
   15   11    4      8.40      0.00
   17   11    4     15.61      0.00
   19   11    4      5.36      0.00
   21   11    4     15.10      0.00
   23   11    4      8.55      0.00
   25   11    4      6.49      0.00
   27   11    4      5.09      0.00
   29   11    4      3.63      0.00
   31   11    4      4.69      0.00
   33   11    4      0.13      0.00
   35   11    4      1.24      0.00
   37   11    4      7.02      0.00
   39   11    4     10.51      0.00
   41   11    4     10.13      0.00
   43   11    4      5.14      0.00
   45   11    4      3.00      0.00
   47   11    4     -5.21      0.00
   49   11    4      7.83      0.00
    0   12    4     27.13      0.00
    2   12    4      4.26      0.00
    4   12    4     24.10      0.00
    6   12    4      9.26      0.00
    8   12    4     21.91      0.00
   10   12    4     17.47      0.00
   12   12    4      9.41      0.00
   14   12    4     14.88      0.00
   16   12    4      6.18      0.00
   18   12    4     17.69      0.00
   20   12    4     10.51      0.00
   22   12    4      8.68      0.00
   24   12    4      0.76      0.00
   26   12    4     -7.49      0.00
   28   12    4     -6.44      0.00
   30   12    4     -7.43      0.00
   32   12    4     -8.45      0.00
   34   12    4     -1.15      0.00
   36   12    4    -11.65      0.00
   38   12    4     -4.50      0.00
   40   12    4     -0.31      0.00
   42   12    4     -0.73      0.00
   44   12    4      8.71      0.00
   46   12    4     -4.81      0.00
   48   12    4      2.43      0.00
    1   13    4    -13.90      0.00
    3   13    4     -1.82      0.00
    5   13    4     -2.76      0.00
    7   13    4     -0.01      0.00
    9   13    4     -3.12      0.00
   11   13    4    -12.92      0.00
   13   13    4     -2.98      0.00
   15   13    4     -4.99      0.00
   17   13    4     -1.22      0.00
   19   13    4      0.48      0.00
   21   13    4     -3.17      0.00
   23   13    4      0.04      0.00
   25   13    4     -4.19      0.00
   27   13    4      1.75      0.00
   29   13    4      2.64      0.00
   31   13    4      4.65      0.00
   33   13    4      5.12      0.00
   35   13    4      1.86      0.00
   37   13    4     -1.22      0.00
   39   13    4     -2.60      0.00
   41   13    4      1.50      0.00
   43   13    4     -4.79      0.00
   45   13    4      3.59      0.00
   47   13    4     -1.02      0.00
    0   14    4      0.37      0.00
    2   14    4     -0.15      0.00
    4   14    4     -5.64      0.00
    6   14    4      0.46      0.00
    8   14    4     -4.73      0.00
   10   14    4      9.90      0.00
   12   14    4     -0.39      0.00
   14   14    4      1.51      0.00
   16   14    4     -7.81      0.00
   18   14    4     -9.03      0.00
   20   14    4     -4.97      0.00
   22   14    4      0.33      0.00
   24   14    4     -3.97      0.00
   26   14    4      1.72      0.00
   28   14    4    -12.90      0.00
   30   14    4     -1.29      0.00
   32   14    4     -5.16      0.00
   34   14    4     -3.07      0.00
   36   14    4     -1.69      0.00
   38   14    4     -9.26      0.00
   40   14    4     -3.27      0.00
   42   14    4     -4.06      0.00
   44   14    4      1.63      0.00
    1   15    4    -11.36      0.00
    3   15    4    -10.49      0.00
    5   15    4      1.57      0.00
    7   15    4     -3.08      0.00
    9   15    4     -1.88      0.00
   11   15    4     -3.91      0.00
   13   15    4     -2.21      0.00
   15   15    4     -1.83      0.00
   17   15    4     -4.62      0.00
   19   15    4      2.95      0.00
   21   15    4     -5.99      0.00
   23   15    4      2.99      0.00
   25   15    4     -7.05      0.00
   27   15    4     -9.73      0.00
   29   15    4     -6.21      0.00
   31   15    4     -6.33      0.00
   33   15    4      0.51      0.00
   35   15    4     -0.29      0.00
   37   15    4     -4.26      0.00
   39   15    4      0.10      0.00
   41   15    4     -8.38      0.00
   43   15    4      4.17      0.00
    0   16    4     -0.72      0.00
    2   16    4     -5.71      0.00
    4   16    4      9.09      0.00
    6   16    4     -3.34      0.00
    8   16    4      7.79      0.00
   10   16    4     -7.64      0.00
   12   16    4      3.39      0.00
   14   16    4     -2.36      0.00
   16   16    4      3.89      0.00
   18   16    4     -1.42      0.00
   20   16    4     -0.14      0.00
   22   16    4      1.76      0.00
   24   16    4     -1.33      0.00
   26   16    4      0.96      0.00
   28   16    4     -0.04      0.00
   30   16    4     -0.24      0.00
   32   16    4     -3.65      0.00
   34   16    4     -2.90      0.00
   36   16    4    -12.02      0.00
   38   16    4     -4.46      0.00
   40   16    4     -4.26      0.00
    1   17    4    -12.17      0.00
    3   17    4     -0.90      0.00
    5   17    4     -9.74      0.00
    7   17    4     -0.39      0.00
    9   17    4     -1.89      0.00
   11   17    4     -1.23      0.00
   13   17    4      2.75      0.00
   15   17    4      2.87      0.00
   17   17    4     -4.28      0.00
   19   17    4     -2.39      0.00
   21   17    4     -8.11      0.00
   23   17    4     -2.80      0.00
   25   17    4     -7.53      0.00
   27   17    4     -4.75      0.00
   29   17    4     -4.39      0.00
   31   17    4     -4.31      0.00
   33   17    4      0.33      0.00
   35   17    4     -5.11      0.00
   37   17    4     -4.67      0.00
    0   18    4      1.45      0.00
    2   18    4     -4.03      0.00
    4   18    4      8.85      0.00
    6   18    4     -0.05      0.00
    8   18    4      3.52      0.00
   10   18    4     -4.72      0.00
   12   18    4     -1.98      0.00
   14   18    4      3.10      0.00
   16   18    4     -3.91      0.00
   18   18    4      4.66      0.00
   20   18    4     -3.70      0.00
   22   18    4     -0.22      0.00
   24   18    4     -4.83      0.00
   26   18    4    -11.97      0.00
   28   18    4     -6.34      0.00
   30   18    4     -8.15      0.00
   32   18    4     -4.27      0.00
   34   18    4     -0.11      0.00
    1   19    4      3.85      0.00
    3   19    4      4.71      0.00
    5   19    4     -1.46      0.00
    7   19    4     -2.04      0.00
    9   19    4     -1.65      0.00
   11   19    4     -3.21      0.00
   13   19    4      7.84      0.00
   15   19    4      3.42      0.00
   17   19    4      6.23      0.00
   19   19    4      3.18      0.00
   21   19    4      3.28      0.00
   23   19    4     -0.07      0.00
   25   19    4      0.27      0.00
   27   19    4     -5.53      0.00
   29   19    4     -5.77      0.00
   31   19    4     -2.85      0.00
    0   20    4      0.03      0.00
    2   20    4    -14.25      0.00
    4   20    4      9.20      0.00
    6   20    4     -8.59      0.00
    8   20    4      1.16      0.00
   10   20    4    -17.86      0.00
   12   20    4     -4.38      0.00
   14   20    4    -13.78      0.00
   16   20    4     -0.98      0.00
   18   20    4    -10.03      0.00
   20   20    4      6.34      0.00
   22   20    4      1.96      0.00
   24   20    4     11.90      0.00
   26   20    4      5.22      0.00
    1   21    4     -4.90      0.00
    3   21    4    -10.31      0.00
    5   21    4     -7.94      0.00
    7   21    4    -13.23      0.00
    9   21    4     -7.79      0.00
   11   21    4     -8.26      0.00
   13   21    4    -11.23      0.00
   15   21    4     -8.47      0.00
   17   21    4     -9.70      0.00
   19   21    4     -5.40      0.00
   21   21    4     -0.42      0.00
    0   22    4     -6.21      0.00
    2   22    4    -11.99      0.00
    4   22    4     11.44      0.00
    6   22    4    -14.83      0.00
    8   22    4     -4.42      0.00
   10   22    4    -52.43      0.00
   12   22    4    -15.35      0.00
   14   22    4    -37.65      0.00
    1    1    5    170.74      0.00
    3    1    5     58.82      0.00
    5    1    5    136.32      0.00
    7    1    5     -8.81      0.00
    9    1    5     87.28      0.00
   11    1    5     55.36      0.00
   13    1    5     94.73      0.00
   15    1    5     68.49      0.00
   17    1    5     67.26      0.00
   19    1    5     11.03      0.00
   21    1    5     20.96      0.00
   23    1    5     16.13      0.00
   25    1    5     36.82      0.00
   27    1    5     42.13      0.00
   29    1    5     29.16      0.00
   31    1    5     11.78      0.00
   33    1    5     12.78      0.00
   35    1    5     10.82      0.00
   37    1    5     25.74      0.00
   39    1    5      9.67      0.00
   41    1    5     18.86      0.00
   43    1    5      1.29      0.00
   45    1    5     16.23      0.00
   47    1    5     10.72      0.00
   49    1    5     16.28      0.00
   51    1    5     26.76      0.00
   53    1    5     14.26      0.00
   55    1    5     29.39      0.00
   57    1    5     -2.55      0.00
    0    2    5     49.82      0.00
    2    2    5   -114.98      0.00
    4    2    5    -44.83      0.00
    6    2    5   -126.64      0.00
    8    2    5    -79.99      0.00
   10    2    5    -21.96      0.00
   12    2    5      0.05      0.00
   14    2    5     31.06      0.00
   16    2    5    -14.22      0.00
   18    2    5    -11.33      0.00
   20    2    5    -33.26      0.00
   22    2    5    -16.20      0.00
   24    2    5     -5.82      0.00
   26    2    5      9.67      0.00
   28    2    5     -6.96      0.00
   30    2    5      8.66      0.00
   32    2    5    -28.61      0.00
   34    2    5      0.01      0.00
   36    2    5    -28.45      0.00
   38    2    5      9.08      0.00
   40    2    5    -16.69      0.00
   42    2    5     10.14      0.00
   44    2    5    -13.69      0.00
   46    2    5      2.13      0.00
   48    2    5     -1.84      0.00
   50    2    5     -5.20      0.00
   52    2    5      2.17      0.00
   54    2    5     -1.07      0.00
   56    2    5     -7.87      0.00
    1    3    5     50.27      0.00
    5    3    5     12.73      0.00
    7    3    5     77.94      0.00
    9    3    5     -9.49      0.00
   11    3    5     30.88      0.00
   13    3    5      4.02      0.00
   15    3    5     13.93      0.00
   17    3    5     25.11      0.00
   19    3    5     10.10      0.00
   21    3    5      9.00      0.00
   23    3    5     13.78      0.00
   25    3    5     17.71      0.00
   27    3    5     27.06      0.00
   29    3    5     20.09      0.00
   31    3    5     14.15      0.00
   33    3    5      2.59      0.00
   35    3    5     13.06      0.00
   37    3    5      1.12      0.00
   39    3    5      8.19      0.00
   41    3    5      0.24      0.00
   43    3    5     -3.94      0.00
   45    3    5      5.23      0.00
   47    3    5     -8.45      0.00
   49    3    5      5.56      0.00
   51    3    5      1.75      0.00
   53    3    5      4.36      0.00
   55    3    5     16.11      0.00
   57    3    5     -5.28      0.00
    0    4    5     -2.05      0.00
    2    4    5     -1.29      0.00
    4    4    5     -1.20      0.00
    6    4    5    -49.60      0.00
    8    4    5      6.89      0.00
   10    4    5    -28.38      0.00
   12    4    5      6.76      0.00
   14    4    5    -10.19      0.00
   16    4    5    -15.30      0.00
   18    4    5    -28.02      0.00
   20    4    5    -27.91      0.00
   22    4    5    -14.08      0.00
   24    4    5     -6.20      0.00
   26    4    5      0.59      0.00
   28    4    5     -0.12      0.00
   30    4    5     -9.16      0.00
   32    4    5    -10.52      0.00
   34    4    5     -2.51      0.00
   36    4    5     -3.89      0.00
   38    4    5     -1.63      0.00
   40    4    5     -4.77      0.00
   42    4    5    -10.07      0.00
   44    4    5     -6.14      0.00
   46    4    5     -5.94      0.00
   48    4    5      2.69      0.00
   50    4    5     -4.13      0.00
   52    4    5     17.58      0.00
   54    4    5     -3.67      0.00
   56    4    5     22.43      0.00
    1    5    5    -49.86      0.00
    3    5    5    -26.94      0.00
    5    5    5    -45.49      0.00
    7    5    5    -11.57      0.00
    9    5    5    -11.03      0.00
   11    5    5     -9.93      0.00
   13    5    5     19.35      0.00
   15    5    5     -0.64      0.00
   17    5    5     15.00      0.00
   19    5    5     13.46      0.00
   21    5    5      1.92      0.00
   23    5    5     17.11      0.00
   25    5    5      3.36      0.00
   27    5    5     -2.62      0.00
   29    5    5      4.34      0.00
   31    5    5    -13.64      0.00
   33    5    5      2.86      0.00
   35    5    5      4.81      0.00
   37    5    5     -7.23      0.00
   39    5    5     17.30      0.00
   41    5    5    -12.26      0.00
   43    5    5     11.90      0.00
   45    5    5     -3.37      0.00
   47    5    5      1.78      0.00
   49    5    5      4.18      0.00
   51    5    5     -2.35      0.00
   53    5    5     12.04      0.00
   55    5    5     -5.10      0.00
    0    6    5     -2.94      0.00
    2    6    5    -19.36      0.00
    4    6    5      4.15      0.00
    6    6    5     29.44      0.00
    8    6    5     -7.31      0.00
   10    6    5      7.49      0.00
   12    6    5    -21.67      0.00
   14    6    5    -24.97      0.00
   16    6    5      0.11      0.00
   18    6    5    -17.50      0.00
   20    6    5      8.44      0.00
   22    6    5      0.19      0.00
   24    6    5      2.22      0.00
   26    6    5     12.44      0.00
   28    6    5    -10.73      0.00
   30    6    5     -8.88      0.00
   32    6    5     -7.26      0.00
   34    6    5    -12.63      0.00
   36    6    5     11.31      0.00
   38    6    5     -2.87      0.00
   40    6    5     -5.71      0.00
   42    6    5     -4.32      0.00
   44    6    5    -17.64      0.00
   46    6    5     -1.14      0.00
   48    6    5    -22.77      0.00
   50    6    5     -9.61      0.00
   52    6    5    -31.21      0.00
   54    6    5    -12.78      0.00
    1    7    5    -15.33      0.00
    3    7    5    -25.35      0.00
    5    7    5      2.18      0.00
    7    7    5    -19.84      0.00
    9    7    5    -25.09      0.00
   11    7    5    -11.23      0.00
   13    7    5    -34.43      0.00
   15    7    5      0.11      0.00
   17    7    5    -26.30      0.00
   19    7    5    -13.10      0.00
   21    7    5    -22.14      0.00
   23    7    5    -15.22      0.00
   25    7    5    -15.90      0.00
   27    7    5     -4.22      0.00
   29    7    5    -15.40      0.00
   31    7    5      1.81      0.00
   33    7    5    -13.77      0.00
   35    7    5     -3.43      0.00
   37    7    5     -8.65      0.00
   39    7    5     -5.76      0.00
   41    7    5     -4.50      0.00
   43    7    5     -0.16      0.00
   45    7    5      0.81      0.00
   47    7    5      4.35      0.00
   49    7    5     13.94      0.00
   51    7    5      5.10      0.00
   53    7    5     22.08      0.00
   55    7    5      6.36      0.00
    0    8    5    -40.82      0.00
    2    8    5      1.23      0.00
    4    8    5    -15.22      0.00
    6    8    5     -7.35      0.00
    8    8    5      4.23      0.00
   10    8    5    -21.91      0.00
   12    8    5    -17.41      0.00
   14    8    5    -18.33      0.00
   16    8    5    -11.49      0.00
   18    8    5     -9.03      0.00
   20    8    5      2.16      0.00
   22    8    5    -20.34      0.00
   24    8    5      1.29      0.00
   26    8    5    -19.94      0.00
   28    8    5      1.24      0.00
   30    8    5    -12.36      0.00
   32    8    5     -7.22      0.00
   34    8    5      2.33      0.00
   36    8    5     -5.59      0.00
   38    8    5      0.36      0.00
   40    8    5      3.53      0.00
   42    8    5    -14.49      0.00
   44    8    5      2.00      0.00
   46    8    5    -27.44      0.00
   48    8    5    -26.20      0.00
   50    8    5    -61.06      0.00
   54    8    5    -60.14      0.00
    1    9    5    -23.78      0.00
    3    9    5     -8.66      0.00
    5    9    5     -6.26      0.00
    7    9    5     -2.13      0.00
    9    9    5     -4.25      0.00
   11    9    5     -8.89      0.00
   13    9    5      4.11      0.00
   15    9    5      1.07      0.00
   17    9    5      5.14      0.00
   19    9    5     -8.24      0.00
   21    9    5     -3.54      0.00
   23    9    5    -14.88      0.00
   25    9    5     -4.91      0.00
   27    9    5     -5.89      0.00
   29    9    5     -4.76      0.00
   31    9    5      3.28      0.00
   33    9    5     -7.67      0.00
   35    9    5     -2.86      0.00
   37    9    5     -2.17      0.00
   39    9    5     -7.58      0.00
   41    9    5      9.62      0.00
   43    9    5     -5.29      0.00
   45    9    5     11.46      0.00
   47    9    5     -3.66      0.00
   49    9    5     -1.39      0.00
   51    9    5     -7.64      0.00
   53    9    5     -7.83      0.00
    0   10    5      7.31      0.00
    2   10    5     11.62      0.00
    4   10    5     14.29      0.00
    6   10    5     13.68      0.00
    8   10    5      9.03      0.00
   10   10    5     -4.69      0.00
   12   10    5      2.16      0.00
   14   10    5      2.67      0.00
   16   10    5     14.77      0.00
   18   10    5     17.25      0.00
   20   10    5     -2.40      0.00
   22   10    5     -1.10      0.00
   24   10    5    -11.12      0.00
   26   10    5     -3.35      0.00
   28   10    5     -0.64      0.00
   30   10    5      5.43      0.00
   32   10    5      2.84      0.00
   34   10    5     11.80      0.00
   36   10    5      5.45      0.00
   38   10    5     -0.19      0.00
   40   10    5      3.70      0.00
   42   10    5    -13.26      0.00
   44   10    5     14.27      0.00
   46   10    5    -13.30      0.00
   48   10    5      7.49      0.00
   50   10    5    -12.03      0.00
    1   11    5     -1.69      0.00
    3   11    5     -0.60      0.00
    5   11    5      1.10      0.00
    7   11    5     -6.13      0.00
    9   11    5      4.11      0.00
   11   11    5     -4.98      0.00
   13   11    5      8.95      0.00
   15   11    5     -3.58      0.00
   17   11    5     -7.15      0.00
   19   11    5    -10.22      0.00
   21   11    5    -13.63      0.00
   23   11    5     -1.62      0.00
   25   11    5     -2.85      0.00
   27   11    5      0.15      0.00
   29   11    5      3.74      0.00
   31   11    5     -7.34      0.00
   33   11    5      4.25      0.00
   35   11    5     -1.77      0.00
   37   11    5      0.49      0.00
   39   11    5      1.94      0.00
   41   11    5    -11.87      0.00
   43   11    5     -3.19      0.00
   45   11    5     -4.18      0.00
   47   11    5      8.22      0.00
   49   11    5      6.13      0.00
    0   12    5    -11.71      0.00
    2   12    5      6.71      0.00
    4   12    5     -8.44      0.00
    6   12    5      9.24      0.00
    8   12    5      1.84      0.00
   10   12    5     11.52      0.00
   12   12    5      6.91      0.00
   14   12    5      7.31      0.00
   16   12    5     10.66      0.00
   18   12    5      3.52      0.00
   20   12    5      7.49      0.00
   22   12    5      5.07      0.00
   24   12    5      4.29      0.00
   26   12    5      8.86      0.00
   28   12    5     -2.56      0.00
   30   12    5      0.47      0.00
   32   12    5     -2.04      0.00
   34   12    5      3.72      0.00
   36   12    5      4.41      0.00
   38   12    5     -0.53      0.00
   40   12    5     -5.81      0.00
   42   12    5     -3.68      0.00
   44   12    5     -8.02      0.00
   46   12    5      2.26      0.00
   48   12    5     -7.09      0.00
    1   13    5     -1.92      0.00
    3   13    5     -8.74      0.00
    5   13    5      0.14      0.00
    7   13    5    -15.24      0.00
    9   13    5     -4.27      0.00
   11   13    5     -9.77      0.00
   13   13    5     -0.70      0.00
   15   13    5      0.28      0.00
   17   13    5      0.74      0.00
   19   13    5     -3.64      0.00
   21   13    5     -3.83      0.00
   23   13    5     -7.41      0.00
   25   13    5     -1.81      0.00
   27   13    5     -2.90      0.00
   29   13    5     -2.43      0.00
   31   13    5     -7.59      0.00
   33   13    5    -11.66      0.00
   35   13    5     -6.15      0.00
   37   13    5     -3.76      0.00
   39   13    5      5.46      0.00
   41   13    5     -1.31      0.00
   43   13    5      2.42      0.00
   45   13    5     -3.90      0.00
   47   13    5     -0.68      0.00
    0   14    5     14.02      0.00
    2   14    5      6.01      0.00
    4   14    5      8.13      0.00
    6   14    5     -0.44      0.00
    8   14    5      7.67      0.00
   10   14    5      0.53      0.00
   12   14    5      4.02      0.00
   14   14    5      3.32      0.00
   16   14    5     -0.25      0.00
   18   14    5      5.98      0.00
   20   14    5     -4.96      0.00
   22   14    5     -0.84      0.00
   24   14    5     -2.76      0.00
   26   14    5      0.30      0.00
   28   14    5     -1.67      0.00
   30   14    5     -7.28      0.00
   32   14    5    -13.03      0.00
   34   14    5     -6.94      0.00
   36   14    5     -5.23      0.00
   38   14    5      2.09      0.00
   40   14    5      1.27      0.00
   42   14    5     -3.25      0.00
   44   14    5     -5.40      0.00
    1   15    5     -7.85      0.00
    3   15    5     -0.25      0.00
    5   15    5     -5.36      0.00
    7   15    5      5.75      0.00
    9   15    5     -7.53      0.00
   11   15    5      1.62      0.00
   13   15    5     -9.00      0.00
   15   15    5      6.62      0.00
   17   15    5      2.87      0.00
   19   15    5      7.04      0.00
   21   15    5      0.96      0.00
   23   15    5     -3.97      0.00
   25   15    5     -4.03      0.00
   27   15    5      2.21      0.00
   29   15    5     -1.67      0.00
   31   15    5      5.08      0.00
   33   15    5     -3.78      0.00
   35   15    5      4.07      0.00
   37   15    5      2.19      0.00
   39   15    5      4.39      0.00
   41   15    5      2.04      0.00
   43   15    5     -2.48      0.00
    0   16    5     -3.62      0.00
    2   16    5      1.43      0.00
    4   16    5     -8.45      0.00
    6   16    5     -1.94      0.00
    8   16    5     -2.28      0.00
   10   16    5      5.91      0.00
   12   16    5      3.78      0.00
   14   16    5      6.08      0.00
   16   16    5      3.04      0.00
   18   16    5      6.74      0.00
   20   16    5      3.12      0.00
   22   16    5      3.68      0.00
   24   16    5      3.01      0.00
   26   16    5      1.87      0.00
   28   16    5     -3.98      0.00
   30   16    5     -2.02      0.00
   32   16    5    -15.38      0.00
   34   16    5      0.69      0.00
   36   16    5    -14.19      0.00
   38   16    5      8.10      0.00
   40   16    5     -8.39      0.00
    1   17    5     -7.05      0.00
    3   17    5     -4.12      0.00
    5   17    5    -14.66      0.00
    7   17    5     -3.55      0.00
    9   17    5     -2.65      0.00
   11   17    5     -1.34      0.00
   13   17    5      1.38      0.00
   15   17    5     -3.72      0.00
   17   17    5     -3.94      0.00
   19   17    5      0.26      0.00
   21   17    5     -9.74      0.00
   23   17    5      6.14      0.00
   25   17    5     -6.84      0.00
   27   17    5      6.42      0.00
   29   17    5     -0.51      0.00
   31   17    5     -5.00      0.00
   33   17    5      0.19      0.00
   35   17    5     -5.34      0.00
   37   17    5     -0.95      0.00
    0   18    5     -6.30      0.00
    2   18    5      5.70      0.00
    4   18    5      3.66      0.00
    6   18    5      8.79      0.00
    8   18    5     12.90      0.00
   10   18    5      9.92      0.00
   12   18    5      4.35      0.00
   14   18    5      6.46      0.00
   16   18    5      5.08      0.00
   18   18    5      4.05      0.00
   20   18    5      6.79      0.00
   22   18    5     -3.81      0.00
   24   18    5      0.59      0.00
   26   18    5     -7.97      0.00
   28   18    5     -1.62      0.00
   30   18    5    -11.74      0.00
   32   18    5     -7.92      0.00
   34   18    5    -12.41      0.00
    1   19    5     12.06      0.00
    3   19    5     12.29      0.00
    5   19    5      9.54      0.00
    7   19    5      9.11      0.00
    9   19    5      3.07      0.00
   11   19    5      1.83      0.00
   13   19    5     -3.40      0.00
   15   19    5      7.11      0.00
   17   19    5     -0.42      0.00
   19   19    5      9.40      0.00
   21   19    5     -6.40      0.00
   23   19    5      4.43      0.00
   25   19    5     -1.85      0.00
   27   19    5      8.99      0.00
   29   19    5      1.23      0.00
   31   19    5      2.95      0.00
    0   20    5      2.92      0.00
    2   20    5    -19.66      0.00
    4   20    5      8.51      0.00
    6   20    5     -8.80      0.00
    8   20    5     12.86      0.00
   10   20    5     -0.25      0.00
   12   20    5      6.56      0.00
   14   20    5     10.78      0.00
   16   20    5      5.36      0.00
   18   20    5     17.07      0.00
   20   20    5      7.07      0.00
   22   20    5     14.01      0.00
   24   20    5      4.02      0.00
   26   20    5     16.41      0.00
    1   21    5      6.41      0.00
    3   21    5      2.90      0.00
    5   21    5    -11.77      0.00
    7   21    5      0.95      0.00
    9   21    5      6.69      0.00
   11   21    5     14.33      0.00
   13   21    5     18.31      0.00
   15   21    5      8.75      0.00
   17   21    5     11.36      0.00
   19   21    5      4.73      0.00
   21   21    5      1.50      0.00
    0   22    5     -0.53      0.00
    2   22    5    -31.06      0.00
    4   22    5     -4.41      0.00
    6   22    5    -18.10      0.00
    8   22    5    -18.21      0.00
   10   22    5     -9.28      0.00
   12   22    5    -21.07      0.00
    0    0    6     -7.51      0.00
    6    0    6     49.25      0.00
    8    0    6     68.96      0.00
   10    0    6     31.95      0.00
   12    0    6     -8.33      0.00
   14    0    6    -35.61      0.00
   16    0    6     -6.80      0.00
   18    0    6     21.85      0.00
   20    0    6     40.96      0.00
   22    0    6     37.10      0.00
   24    0    6     12.81      0.00
   26    0    6    -14.44      0.00
   28    0    6      8.42      0.00
   30    0    6      6.20      0.00
   32    0    6     30.73      0.00
   34    0    6     19.18      0.00
   36    0    6     -1.02      0.00
   38    0    6     -1.23      0.00
   40    0    6     -7.39      0.00
   42    0    6      8.16      0.00
   44    0    6      5.70      0.00
   46    0    6      9.04      0.00
   48    0    6      1.25      0.00
   50    0    6      2.34      0.00
   52    0    6      1.99      0.00
   54    0    6     -4.64      0.00
   56    0    6     16.54      0.00
    1    1    6    -64.94      0.00
    3    1    6    -93.95      0.00
    5    1    6     -8.98      0.00
    7    1    6    -48.92      0.00
    9    1    6     15.64      0.00
   11    1    6    -12.63      0.00
   13    1    6      5.96      0.00
   15    1    6    -17.48      0.00
   17    1    6    -13.14      0.00
   19    1    6     -6.59      0.00
   21    1    6     -3.47      0.00
   23    1    6      0.38      0.00
   25    1    6      9.05      0.00
   27    1    6     -7.59      0.00
   29    1    6      3.47      0.00
   31    1    6     -4.27      0.00
   33    1    6      3.02      0.00
   35    1    6     -5.42      0.00
   37    1    6      1.98      0.00
   39    1    6     -7.74      0.00
   41    1    6      1.45      0.00
   43    1    6      3.05      0.00
   45    1    6     -0.77      0.00
   47    1    6      4.89      0.00
   49    1    6     -0.21      0.00
   51    1    6      3.70      0.00
   53    1    6     16.37      0.00
   55    1    6      4.97      0.00
   57    1    6     13.03      0.00
    2    2    6    -96.50      0.00
    4    2    6    -72.63      0.00
    6    2    6     -7.45      0.00
    8    2    6    -20.40      0.00
   10    2    6      3.39      0.00
   12    2    6    -12.01      0.00
   14    2    6    -29.12      0.00
   16    2    6     -0.56      0.00
   18    2    6      3.18      0.00
   20    2    6     11.33      0.00
   22    2    6     12.58      0.00
   24    2    6    -18.95      0.00
   26    2    6    -13.55      0.00
   28    2    6    -23.56      0.00
   30    2    6      0.23      0.00
   32    2    6      5.03      0.00
   34    2    6      1.58      0.00
   36    2    6      1.43      0.00
   38    2    6    -10.66      0.00
   40    2    6      0.93      0.00
   42    2    6      3.25      0.00
   44    2    6      4.45      0.00
   46    2    6      8.69      0.00
   48    2    6     -1.76      0.00
   50    2    6      9.74      0.00
   52    2    6     -7.02      0.00
   54    2    6      1.48      0.00
   56    2    6     -1.37      0.00
    1    3    6     32.02      0.00
    3    3    6     59.74      0.00
    5    3    6     33.24      0.00
    7    3    6     57.08      0.00
    9    3    6     29.82      0.00
   11    3    6     15.91      0.00
   13    3    6      0.55      0.00
   15    3    6      9.06      0.00
   17    3    6     -5.78      0.00
   19    3    6     27.20      0.00
   21    3    6     -1.56      0.00
   23    3    6     20.32      0.00
   25    3    6     -2.52      0.00
   27    3    6      6.76      0.00
   29    3    6      7.28      0.00
   31    3    6      3.37      0.00
   33    3    6     11.01      0.00
   35    3    6      9.59      0.00
   37    3    6      2.72      0.00
   39    3    6     13.71      0.00
   41    3    6     -0.25      0.00
   43    3    6     11.83      0.00
   45    3    6      3.26      0.00
   47    3    6      9.19      0.00
   49    3    6     10.10      0.00
   51    3    6      4.95      0.00
   53    3    6     24.41      0.00
   55    3    6     -9.96      0.00
   57    3    6     21.90      0.00
    0    4    6     14.86      0.00
    2    4    6     80.23      0.00
    4    4    6      9.91      0.00
    6    4    6     23.67      0.00
    8    4    6     15.54      0.00
   10    4    6     -3.40      0.00
   12    4    6      0.20      0.00
   14    4    6     -7.11      0.00
   16    4    6    -28.09      0.00
   18    4    6      0.37      0.00
   20    4    6    -22.81      0.00
   22    4    6     -2.87      0.00
   24    4    6     -0.62      0.00
   26    4    6     -3.06      0.00
   28    4    6     14.71      0.00
   30    4    6     14.99      0.00
   32    4    6      5.03      0.00
   34    4    6     16.39      0.00
   36    4    6     -9.91      0.00
   38    4    6      1.90      0.00
   40    4    6     -1.28      0.00
   42    4    6     -3.59      0.00
   44    4    6      2.53      0.00
   46    4    6      0.57      0.00
   48    4    6      0.28      0.00
   50    4    6      3.62      0.00
   52    4    6     -2.41      0.00
   54    4    6     -1.53      0.00
   56    4    6     -1.87      0.00
    1    5    6     39.70      0.00
    3    5    6     40.43      0.00
    5    5    6     10.33      0.00
    7    5    6     31.62      0.00
    9    5    6      6.05      0.00
   11    5    6     41.09      0.00
   13    5    6     12.23      0.00
   15    5    6     29.65      0.00
   17    5    6     23.48      0.00
   19    5    6     16.80      0.00
   21    5    6     20.11      0.00
   23    5    6     10.24      0.00
   25    5    6     -5.10      0.00
   27    5    6     15.11      0.00
   29    5    6     -4.32      0.00
   31    5    6     23.21      0.00
   33    5    6     -2.04      0.00
   35    5    6      5.27      0.00
   37    5    6     -5.14      0.00
   39    5    6     -4.54      0.00
   41    5    6      5.42      0.00
   43    5    6      4.98      0.00
   45    5    6     -0.04      0.00
   47    5    6     -0.03      0.00
   49    5    6    -15.71      0.00
   51    5    6      7.11      0.00
   53    5    6    -10.91      0.00
   55    5    6     17.48      0.00
    0    6    6     -7.23      0.00
    2    6    6    -17.47      0.00
    4    6    6    -15.56      0.00
    6    6    6    -20.91      0.00
    8    6    6    -11.78      0.00
   10    6    6    -12.88      0.00
   12    6    6    -13.46      0.00
   14    6    6    -13.33      0.00
   16    6    6    -19.34      0.00
   18    6    6     -6.36      0.00
   20    6    6    -11.86      0.00
   22    6    6     -8.82      0.00
   24    6    6      2.35      0.00
   26    6    6    -11.85      0.00
   28    6    6     10.30      0.00
   30    6    6    -10.60      0.00
   32    6    6     -0.61      0.00
   34    6    6     -5.72      0.00
   36    6    6     -5.94      0.00
   38    6    6      0.51      0.00
   40    6    6     -4.35      0.00
   42    6    6     -1.87      0.00
   44    6    6      2.21      0.00
   46    6    6      1.14      0.00
   48    6    6     12.04      0.00
   50    6    6      1.87      0.00
   52    6    6      1.95      0.00
   54    6    6     -1.08      0.00
    1    7    6     40.14      0.00
    3    7    6     24.97      0.00
    5    7    6     12.01      0.00
    7    7    6      8.99      0.00
    9    7    6      6.90      0.00
   11    7    6     29.05      0.00
   13    7    6     14.92      0.00
   15    7    6     27.92      0.00
   17    7    6      2.53      0.00
   19    7    6     14.06      0.00
   21    7    6      9.40      0.00
   23    7    6      8.00      0.00
   25    7    6     10.11      0.00
   27    7    6      5.60      0.00
   29    7    6      5.02      0.00
   31    7    6      8.04      0.00
   33    7    6      6.79      0.00
   35    7    6     -3.21      0.00
   37    7    6      1.58      0.00
   39    7    6     -6.28      0.00
   41    7    6      8.19      0.00
   43    7    6     -0.05      0.00
   45    7    6      5.27      0.00
   47    7    6     -3.21      0.00
   49    7    6      5.05      0.00
   51    7    6      7.32      0.00
   53    7    6     22.97      0.00
    0    8    6     21.61      0.00
    2    8    6      5.62      0.00
    4    8    6      3.60      0.00
    6    8    6      2.33      0.00
    8    8    6      3.11      0.00
   10    8    6     11.99      0.00
   12    8    6     15.24      0.00
   14    8    6     -2.87      0.00
   16    8    6     19.13      0.00
   18    8    6     -7.44      0.00
   20    8    6     24.02      0.00
   22    8    6      4.03      0.00
   24    8    6     11.42      0.00
   26    8    6      2.55      0.00
   28    8    6     -5.24      0.00
   30    8    6     -8.51      0.00
   32    8    6     12.57      0.00
   34    8    6     -0.95      0.00
   36    8    6     36.66      0.00
   38    8    6      9.11      0.00
   40    8    6     18.70      0.00
   42    8    6     10.84      0.00
   44    8    6     -4.42      0.00
   46    8    6     14.98      0.00
   48    8    6    -15.93      0.00
   50    8    6      5.82      0.00
   52    8    6    -32.74      0.00
    1    9    6      6.41      0.00
    3    9    6     12.79      0.00
    5    9    6    -19.25      0.00
    7    9    6     -8.22      0.00
    9    9    6      0.25      0.00
   11    9    6     -7.51      0.00
   13    9    6     16.82      0.00
   15    9    6    -12.26      0.00
   17    9    6     -5.58      0.00
   19    9    6     -6.17      0.00
   21    9    6     -6.05      0.00
   23    9    6     13.23      0.00
   25    9    6     -4.44      0.00
   27    9    6     -1.89      0.00
   29    9    6     -0.84      0.00
   31    9    6    -12.52      0.00
   33    9    6      6.30      0.00
   35    9    6     -3.49      0.00
   37    9    6     -6.13      0.00
   39    9    6     10.36      0.00
   41    9    6     -9.18      0.00
   43    9    6      8.47      0.00
   45    9    6     -3.70      0.00
   47    9    6      0.92      0.00
   49    9    6     12.32      0.00
   51    9    6     16.18      0.00
    0   10    6      0.85      0.00
    2   10    6     -3.35      0.00
    4   10    6      5.14      0.00
    6   10    6    -11.94      0.00
    8   10    6     15.71      0.00
   10   10    6     -7.82      0.00
   12   10    6      5.88      0.00
   14   10    6     -5.59      0.00
   16   10    6      1.93      0.00
   18   10    6      5.31      0.00
   20   10    6      8.92      0.00
   22   10    6      4.41      0.00
   24   10    6      1.36      0.00
   26   10    6     -5.26      0.00
   28   10    6     -1.07      0.00
   30   10    6     -5.23      0.00
   32   10    6     -1.56      0.00
   34   10    6     -4.87      0.00
   36   10    6     -4.71      0.00
   38   10    6     -2.34      0.00
   40   10    6      2.97      0.00
   42   10    6      6.27      0.00
   44   10    6     -3.19      0.00
   46   10    6      7.47      0.00
   48   10    6    -13.46      0.00
   50   10    6      5.53      0.00
    1   11    6     -1.23      0.00
    3   11    6     -9.64      0.00
    5   11    6      4.62      0.00
    7   11    6     -4.11      0.00
    9   11    6      8.38      0.00
   11   11    6     10.51      0.00
   13   11    6     11.68      0.00
   15   11    6      5.99      0.00
   17   11    6      6.91      0.00
   19   11    6      3.33      0.00
   21   11    6      4.86      0.00
   23   11    6      5.00      0.00
   25   11    6     -2.99      0.00
   27   11    6      1.75      0.00
   29   11    6     -0.99      0.00
   31   11    6      7.29      0.00
   33   11    6      0.40      0.00
   35   11    6      4.68      0.00
   37   11    6      4.69      0.00
   39   11    6     11.31      0.00
   41   11    6      8.62      0.00
   43   11    6      5.04      0.00
   45   11    6     -4.25      0.00
   47   11    6    -11.30      0.00
   49   11    6     -3.74      0.00
    0   12    6     10.70      0.00
    2   12    6    -13.30      0.00
    4   12    6     14.35      0.00
    6   12    6      5.77      0.00
    8   12    6     17.37      0.00
   10   12    6     12.11      0.00
   12   12    6     11.01      0.00
   14   12    6      9.04      0.00
   16   12    6     12.40      0.00
   18   12    6     13.64      0.00
   20   12    6     11.66      0.00
   22   12    6      4.20      0.00
   24   12    6      0.76      0.00
   26   12    6     -6.37      0.00
   28   12    6      1.64      0.00
   30   12    6      4.20      0.00
   32   12    6      7.05      0.00
   34   12    6      5.96      0.00
   36   12    6     -5.11      0.00
   38   12    6     -2.96      0.00
   40   12    6     -1.83      0.00
   42   12    6      2.76      0.00
   44   12    6     11.75      0.00
   46   12    6     -0.60      0.00
   48   12    6      9.41      0.00
    1   13    6     -4.98      0.00
    3   13    6     -6.13      0.00
    5   13    6     -9.13      0.00
    7   13    6    -16.31      0.00
    9   13    6     -6.36      0.00
   11   13    6    -14.92      0.00
   13   13    6     -6.01      0.00
   15   13    6    -12.52      0.00
   17   13    6    -15.07      0.00
   19   13    6    -11.19      0.00
   21   13    6     -7.20      0.00
   23   13    6     -7.95      0.00
   25   13    6     -8.16      0.00
   27   13    6     -8.34      0.00
   29   13    6     -4.38      0.00
   31   13    6      0.91      0.00
   33   13    6      0.06      0.00
   35   13    6     -1.34      0.00
   37   13    6     -6.66      0.00
   39   13    6     -2.84      0.00
   41   13    6      0.69      0.00
   43   13    6     -0.65      0.00
   45   13    6      2.31      0.00
   47   13    6      1.93      0.00
    0   14    6     -3.75      0.00
    2   14    6      2.47      0.00
    4   14    6     -6.77      0.00
    6   14    6      0.28      0.00
    8   14    6     -5.96      0.00
   10   14    6      6.72      0.00
   12   14    6     -4.41      0.00
   14   14    6      1.41      0.00
   16   14    6     -6.90      0.00
   18   14    6     -5.47      0.00
   20   14    6     -0.63      0.00
   22   14    6      4.55      0.00
   24   14    6      1.80      0.00
   26   14    6      5.19      0.00
   28   14    6     -5.24      0.00
   30   14    6      3.35      0.00
   32   14    6      5.98      0.00
   34   14    6      7.04      0.00
   36   14    6     10.18      0.00
   38   14    6     -3.70      0.00
   40   14    6     -0.04      0.00
   42   14    6     -6.56      0.00
   44   14    6     -1.70      0.00
    1   15    6    -19.26      0.00
    3   15    6    -19.45      0.00
    5   15    6     -7.11      0.00
    7   15    6    -12.23      0.00
    9   15    6     -8.16      0.00
   11   15    6    -12.10      0.00
   13   15    6     -5.18      0.00
   15   15    6     -9.31      0.00
   17   15    6     -4.36      0.00
   19   15    6     -0.07      0.00
   21   15    6     -9.07      0.00
   23   15    6     -0.16      0.00
   25   15    6    -15.52      0.00
   27   15    6     -7.73      0.00
   29   15    6     -4.32      0.00
   31   15    6      1.87      0.00
   33   15    6      6.98      0.00
   35   15    6      0.29      0.00
   37   15    6     -1.20      0.00
   39   15    6     -3.09      0.00
   41   15    6     -6.00      0.00
    0   16    6      2.98      0.00
    2   16    6     -1.17      0.00
    4   16    6      1.40      0.00
    6   16    6     -8.87      0.00
    8   16    6      3.76      0.00
   10   16    6     -5.94      0.00
   12   16    6      6.56      0.00
   14   16    6     -0.65      0.00
   16   16    6     -0.22      0.00
   18   16    6     -1.02      0.00
   20   16    6     -3.20      0.00
   22   16    6      1.15      0.00
   24   16    6      0.03      0.00
   26   16    6     -2.43      0.00
   28   16    6     -2.95      0.00
   30   16    6     -4.34      0.00
   32   16    6     -3.66      0.00
   34   16    6      2.58      0.00
   36   16    6     -3.46      0.00
   38   16    6      1.42      0.00
   40   16    6     -2.81      0.00
    1   17    6     -4.26      0.00
    3   17    6      0.65      0.00
    5   17    6     -4.79      0.00
    7   17    6     -3.80      0.00
    9   17    6     -6.83      0.00
   11   17    6     -7.63      0.00
   13   17    6     -8.01      0.00
   15   17    6     -6.71      0.00
   17   17    6     -9.01      0.00
   19   17    6    -10.17      0.00
   21   17    6     -7.15      0.00
   23   17    6     -7.37      0.00
   25   17    6     -4.47      0.00
   27   17    6     -3.10      0.00
   29   17    6     -1.47      0.00
   31   17    6     -4.41      0.00
   33   17    6     -5.18      0.00
   35   17    6     -6.10      0.00
   37   17    6     -9.01      0.00
    0   18    6     -2.58      0.00
    2   18    6     -7.14      0.00
    4   18    6     -3.06      0.00
    6   18    6     -9.72      0.00
    8   18    6      5.72      0.00
   10   18    6      1.92      0.00
   12   18    6      8.10      0.00
   14   18    6      2.64      0.00
   16   18    6     -2.87      0.00
   18   18    6      0.58      0.00
   20   18    6     -3.70      0.00
   22   18    6     -0.25      0.00
   24   18    6     -3.73      0.00
   26   18    6    -10.18      0.00
   28   18    6     -2.09      0.00
   30   18    6     -4.16      0.00
   32   18    6      6.11      0.00
   34   18    6      8.75      0.00
    1   19    6     -2.09      0.00
    3   19    6     -0.80      0.00
    5   19    6     -7.60      0.00
    7   19    6     -3.41      0.00
    9   19    6      4.99      0.00
   11   19    6      1.45      0.00
   13   19    6     15.43      0.00
   15   19    6      2.87      0.00
   17   19    6      7.24      0.00
   19   19    6      3.16      0.00
   21   19    6      3.21      0.00
   23   19    6      0.32      0.00
   25   19    6     -3.74      0.00
   27   19    6     -3.38      0.00
   29   19    6     -8.17      0.00
    0   20    6     12.68      0.00
    2   20    6      4.82      0.00
    4   20    6     11.63      0.00
    6   20    6     -0.44      0.00
    8   20    6     14.56      0.00
   10   20    6      0.23      0.00
   12   20    6     13.59      0.00
   14   20    6     -1.56      0.00
   16   20    6      6.17      0.00
   18   20    6     -1.75      0.00
   20   20    6     10.21      0.00
   22   20    6      3.53      0.00
   24   20    6     11.53      0.00
   26   20    6      3.07      0.00
    1   21    6     16.03      0.00
    3   21    6     12.68      0.00
    5   21    6     14.47      0.00
    7   21    6      2.19      0.00
    9   21    6      9.66      0.00
   11   21    6     -1.66      0.00
   13   21    6      7.24      0.00
   15   21    6      2.61      0.00
   17   21    6      3.71      0.00
   19   21    6      2.08      0.00
    0   22    6     -2.14      0.00
    2   22    6     -4.37      0.00
    4   22    6     19.85      0.00
    6   22    6     -1.14      0.00
    8   22    6     21.47      0.00
   10   22    6    -27.90      0.00
    1    1    7     39.77      0.00
    3    1    7     -5.89      0.00
    5    1    7      0.98      0.00
    7    1    7    -71.65      0.00
    9    1    7    -32.86      0.00
   11    1    7    -34.48      0.00
   13    1    7     29.54      0.00
   15    1    7      4.88      0.00
   17    1    7     20.88      0.00
   19    1    7    -38.64      0.00
   21    1    7    -18.50      0.00
   23    1    7    -18.69      0.00
   25    1    7      5.75      0.00
   27    1    7      9.09      0.00
   29    1    7      4.71      0.00
   31    1    7    -16.35      0.00
   33    1    7     -7.15      0.00
   35    1    7    -11.99      0.00
   37    1    7     11.24      0.00
   39    1    7     -3.11      0.00
   41    1    7      3.36      0.00
   43    1    7    -17.63      0.00
   45    1    7      3.53      0.00
   47    1    7     -5.72      0.00
   49    1    7     10.89      0.00
   51    1    7      8.66      0.00
   53    1    7     -3.19      0.00
   55    1    7     13.02      0.00
   57    1    7    -13.84      0.00
    0    2    7     28.35      0.00
    2    2    7      2.18      0.00
    4    2    7     41.20      0.00
    6    2    7     29.36      0.00
    8    2    7     22.50      0.00
   10    2    7     16.47      0.00
   12    2    7    -17.41      0.00
   14    2    7     27.47      0.00
   16    2    7    -14.58      0.00
   18    2    7     29.91      0.00
   20    2    7     -4.76      0.00
   22    2    7     -4.00      0.00
   24    2    7    -11.24      0.00
   26    2    7     -7.18      0.00
   28    2    7    -13.16      0.00
   30    2    7     11.25      0.00
   32    2    7    -12.21      0.00
   34    2    7     16.29      0.00
   36    2    7    -18.01      0.00
   38    2    7     13.72      0.00
   40    2    7    -15.95      0.00
   42    2    7     11.21      0.00
   44    2    7     -1.72      0.00
   46    2    7     11.44      0.00
   48    2    7     13.81      0.00
   50    2    7      0.13      0.00
   52    2    7      8.32      0.00
   54    2    7     -7.44      0.00
   56    2    7     -1.70      0.00
    1    3    7    -42.70      0.00
    3    3    7    -50.01      0.00
    5    3    7    -32.42      0.00
    7    3    7    -35.52      0.00
    9    3    7    -25.19      0.00
   11    3    7     -3.24      0.00
   13    3    7      2.63      0.00
   15    3    7     -5.47      0.00
   17    3    7    -11.87      0.00
   19    3    7    -24.81      0.00
   21    3    7     -7.67      0.00
   23    3    7     -2.95      0.00
   25    3    7     15.09      0.00
   27    3    7      2.21      0.00
   29    3    7     -0.63      0.00
   31    3    7     -5.02      0.00
   33    3    7    -15.39      0.00
   35    3    7      1.17      0.00
   37    3    7     -6.43      0.00
   39    3    7     -4.00      0.00
   41    3    7     -0.92      0.00
   43    3    7    -16.97      0.00
   45    3    7      5.58      0.00
   47    3    7     -8.56      0.00
   49    3    7      7.83      0.00
   51    3    7      5.46      0.00
   53    3    7      4.41      0.00
   55    3    7      9.81      0.00
    0    4    7      7.42      0.00
    2    4    7     12.99      0.00
    4    4    7     31.97      0.00
    6    4    7      4.45      0.00
    8    4    7     35.58      0.00
   10    4    7    -11.07      0.00
   12    4    7     13.16      0.00
   14    4    7    -15.34      0.00
   16    4    7      5.09      0.00
   18    4    7    -14.67      0.00
   20    4    7     -1.71      0.00
   22    4    7     -3.75      0.00
   24    4    7      2.76      0.00
   26    4    7     -3.53      0.00
   28    4    7      2.67      0.00
   30    4    7     -3.78      0.00
   32    4    7     -2.07      0.00
   34    4    7      3.94      0.00
   36    4    7     -1.24      0.00
   38    4    7      1.63      0.00
   40    4    7      2.80      0.00
   42    4    7     -2.64      0.00
   44    4    7      1.98      0.00
   46    4    7     -1.66      0.00
   48    4    7      1.31      0.00
   50    4    7     -3.57      0.00
   52    4    7     -0.31      0.00
   54    4    7    -14.99      0.00
   56    4    7      3.87      0.00
    1    5    7    -49.27      0.00
    3    5    7    -14.70      0.00
    5    5    7    -26.15      0.00
    7    5    7     -4.02      0.00
    9    5    7     -3.27      0.00
   11    5    7    -28.95      0.00
   13    5    7     11.29      0.00
   15    5    7    -22.00      0.00
   17    5    7     -1.70      0.00
   19    5    7     -2.46      0.00
   21    5    7    -16.98      0.00
   23    5    7     11.29      0.00
   25    5    7    -10.80      0.00
   27    5    7     -7.41      0.00
   29    5    7      2.55      0.00
   31    5    7    -15.50      0.00
   33    5    7      4.48      0.00
   35    5    7      7.22      0.00
   37    5    7    -14.63      0.00
   39    5    7     16.38      0.00
   41    5    7    -20.77      0.00
   43    5    7      7.02      0.00
   45    5    7     -2.84      0.00
   47    5    7     -0.29      0.00
   49    5    7     18.85      0.00
   51    5    7      4.96      0.00
   53    5    7     37.79      0.00
   55    5    7     -3.01      0.00
    0    6    7    -14.14      0.00
    2    6    7    -17.95      0.00
    4    6    7    -13.18      0.00
    6    6    7      5.04      0.00
    8    6    7    -22.93      0.00
   10    6    7     -8.27      0.00
   12    6    7    -19.59      0.00
   14    6    7    -17.12      0.00
   16    6    7      3.40      0.00
   18    6    7     -6.82      0.00
   20    6    7      6.70      0.00
   22    6    7      7.00      0.00
   24    6    7      2.80      0.00
   26    6    7     18.71      0.00
   28    6    7     -0.54      0.00
   30    6    7      4.16      0.00
   32    6    7     -2.96      0.00
   34    6    7     -7.86      0.00
   36    6    7     11.89      0.00
   38    6    7      3.32      0.00
   40    6    7      8.39      0.00
   42    6    7      1.96      0.00
   44    6    7     -7.63      0.00
   46    6    7     10.84      0.00
   48    6    7      6.21      0.00
   50    6    7     10.82      0.00
   52    6    7     -1.22      0.00
   54    6    7    -15.33      0.00
    1    7    7     13.73      0.00
    3    7    7      9.35      0.00
    5    7    7     19.62      0.00
    7    7    7     14.06      0.00
    9    7    7     -5.72      0.00
   11    7    7     13.19      0.00
   13    7    7    -11.49      0.00
   15    7    7     12.95      0.00
   17    7    7     -4.18      0.00
   19    7    7      6.91      0.00
   21    7    7    -10.17      0.00
   23    7    7      0.97      0.00
   25    7    7    -11.94      0.00
   27    7    7     11.64      0.00
   29    7    7     -1.14      0.00
   31    7    7     24.70      0.00
   33    7    7     -4.64      0.00
   35    7    7      4.28      0.00
   37    7    7    -11.09      0.00
   39    7    7     -6.08      0.00
   41    7    7      2.99      0.00
   43    7    7      6.12      0.00
   45    7    7     10.85      0.00
   47    7    7     -3.06      0.00
   49    7    7     26.16      0.00
   51    7    7      6.96      0.00
   53    7    7     44.48      0.00
    0    8    7    -38.78      0.00
    2    8    7    -14.06      0.00
    4    8    7    -14.97      0.00
    6    8    7    -11.33      0.00
    8    8    7     -4.63      0.00
   10    8    7    -22.63      0.00
   12    8    7    -24.42      0.00
   14    8    7    -13.41      0.00
   16    8    7     -6.73      0.00
   18    8    7     -0.42      0.00
   20    8    7      7.35      0.00
   22    8    7    -12.13      0.00
   24    8    7      6.30      0.00
   26    8    7     -6.92      0.00
   28    8    7     15.96      0.00
   30    8    7     -5.44      0.00
   32    8    7      1.41      0.00
   34    8    7     -5.86      0.00
   36    8    7     -3.93      0.00
   38    8    7      0.42      0.00
   40    8    7      3.61      0.00
   42    8    7    -12.76      0.00
   44    8    7      9.46      0.00
   46    8    7    -10.04      0.00
   48    8    7     18.13      0.00
   50    8    7    -19.61      0.00
   52    8    7     -0.33      0.00
    1    9    7      1.20      0.00
    3    9    7     10.88      0.00
    5    9    7      1.57      0.00
    7    9    7      6.16      0.00
    9    9    7     -0.19      0.00
   11    9    7     -1.82      0.00
   13    9    7      1.53      0.00
   15    9    7      5.45      0.00
   17    9    7      2.24      0.00
   19    9    7     -0.87      0.00
   21    9    7      4.07      0.00
   23    9    7      0.62      0.00
   25    9    7     13.04      0.00
   27    9    7     16.06      0.00
   29    9    7      8.57      0.00
   31    9    7     11.24      0.00
   33    9    7     -2.12      0.00
   35    9    7     -0.60      0.00
   37    9    7     -0.86      0.00
   39    9    7     -7.04      0.00
   41    9    7      9.92      0.00
   43    9    7    -11.42      0.00
   45    9    7      6.50      0.00
   47    9    7    -20.04      0.00
   49    9    7    -10.61      0.00
   51    9    7    -12.40      0.00
    0   10    7      1.68      0.00
    2   10    7     13.50      0.00
    4   10    7      8.01      0.00
    6   10    7      6.74      0.00
    8   10    7      9.42      0.00
   10   10    7    -10.31      0.00
   12   10    7      1.57      0.00
   14   10    7     -7.23      0.00
   16   10    7      1.42      0.00
   18   10    7     11.39      0.00
   20   10    7     -8.33      0.00
   22   10    7      5.57      0.00
   24   10    7     -6.90      0.00
   26   10    7     -3.57      0.00
   28   10    7      1.68      0.00
   30   10    7     -8.84      0.00
   32   10    7     -2.71      0.00
   34   10    7     -0.06      0.00
   36   10    7      0.22      0.00
   38   10    7      4.26      0.00
   40   10    7     -3.19      0.00
   42   10    7     -7.96      0.00
   44   10    7      6.68      0.00
   46   10    7     -1.33      0.00
   48   10    7     11.66      0.00
   50   10    7      1.22      0.00
    1   11    7     19.22      0.00
    3   11    7      9.94      0.00
    5   11    7      7.71      0.00
    7   11    7     -5.05      0.00
    9   11    7      4.90      0.00
   11   11    7      0.71      0.00
   13   11    7     12.36      0.00
   15   11    7      2.75      0.00
   17   11    7      0.92      0.00
   19   11    7     -1.74      0.00
   21   11    7     -3.23      0.00
   23   11    7     13.15      0.00
   25   11    7     10.56      0.00
   27   11    7     11.11      0.00
   29   11    7      7.89      0.00
   31   11    7     -2.41      0.00
   33   11    7     12.05      0.00
   35   11    7     11.83      0.00
   37   11    7      9.27      0.00
   39   11    7     10.24      0.00
   41   11    7    -10.12      0.00
   43   11    7      4.59      0.00
   45   11    7     -5.69      0.00
   47   11    7      4.05      0.00
   49   11    7     -0.98      0.00
    0   12    7     -8.15      0.00
    2   12    7     -4.76      0.00
    4   12    7     -4.37      0.00
    6   12    7      3.07      0.00
    8   12    7     -0.33      0.00
   10   12    7      4.19      0.00
   12   12    7     -3.47      0.00
   14   12    7     -1.71      0.00
   16   12    7      3.09      0.00
   18   12    7     -3.57      0.00
   20   12    7      2.23      0.00
   22   12    7     -3.75      0.00
   24   12    7     -3.74      0.00
   26   12    7      5.26      0.00
   28   12    7     -2.35      0.00
   30   12    7      3.56      0.00
   32   12    7     -2.78      0.00
   34   12    7      1.23      0.00
   36   12    7     -0.58      0.00
   38   12    7      1.79      0.00
   40   12    7     -5.17      0.00
   42   12    7      6.34      0.00
   44   12    7     -2.55      0.00
   46   12    7     14.45      0.00
   48   12    7      1.41      0.00
    1   13    7      2.14      0.00
    3   13    7     -1.81      0.00
    5   13    7      4.16      0.00
    7   13    7     -5.34      0.00
    9   13    7      4.66      0.00
   11   13    7      0.81      0.00
   13   13    7      9.19      0.00
   15   13    7      9.32      0.00
   17   13    7      9.34      0.00
   19   13    7      1.54      0.00
   21   13    7      4.32      0.00
   23   13    7     -3.39      0.00
   25   13    7     10.01      0.00
   27   13    7      2.27      0.00
   29   13    7      5.51      0.00
   31   13    7     -0.52      0.00
   33   13    7     -3.14      0.00
   35   13    7      6.66      0.00
   37   13    7      7.47      0.00
   39   13    7     15.51      0.00
   41   13    7      7.47      0.00
   43   13    7      8.55      0.00
   45   13    7     -4.96      0.00
    0   14    7     11.20      0.00
    2   14    7      1.59      0.00
    4   14    7     11.58      0.00
    6   14    7      0.30      0.00
    8   14    7      6.63      0.00
   10   14    7     -6.84      0.00
   12   14    7     -5.03      0.00
   14   14    7     -4.34      0.00
   16   14    7     -6.99      0.00
   18   14    7      0.95      0.00
   20   14    7    -10.04      0.00
   22   14    7     -3.18      0.00
   24   14    7     -3.15      0.00
   26   14    7      1.80      0.00
   28   14    7      3.51      0.00
   30   14    7     -6.48      0.00
   32   14    7     -5.38      0.00
   34   14    7     -8.86      0.00
   36   14    7      0.64      0.00
   38   14    7     -0.27      0.00
   40   14    7      4.45      0.00
   42   14    7     -2.31      0.00
   44   14    7      1.17      0.00
    1   15    7    -10.11      0.00
    3   15    7     -1.49      0.00
    5   15    7     -6.09      0.00
    7   15    7      5.50      0.00
    9   15    7     -3.34      0.00
   11   15    7      3.87      0.00
   13   15    7     -3.88      0.00
   15   15    7      4.81      0.00
   17   15    7     -2.99      0.00
   19   15    7      2.71      0.00
   21   15    7     -4.72      0.00
   23   15    7     -4.72      0.00
   25   15    7     -8.35      0.00
   27   15    7     -2.40      0.00
   29   15    7     -4.86      0.00
   31   15    7      2.51      0.00
   33   15    7     -6.35      0.00
   35   15    7     -0.69      0.00
   37   15    7     -7.97      0.00
   39   15    7      0.32      0.00
   41   15    7      2.15      0.00
    0   16    7    -10.48      0.00
    2   16    7     -6.43      0.00
    4   16    7    -16.71      0.00
    6   16    7     -8.55      0.00
    8   16    7    -10.78      0.00
   10   16    7      1.43      0.00
   12   16    7      0.00      0.00
   14   16    7     -0.25      0.00
   16   16    7     -5.15      0.00
   18   16    7     -3.65      0.00
   20   16    7     -5.07      0.00
   22   16    7      2.28      0.00
   24   16    7      4.11      0.00
   26   16    7      3.99      0.00
   28   16    7      1.10      0.00
   30   16    7     -0.49      0.00
   32   16    7     -4.15      0.00
   34   16    7      4.21      0.00
   36   16    7     -1.85      0.00
   38   16    7      9.00      0.00
   40   16    7     -0.21      0.00
    1   17    7    -12.68      0.00
    3   17    7     -3.36      0.00
    5   17    7     -5.55      0.00
    7   17    7     -2.95      0.00
    9   17    7    -13.17      0.00
   11   17    7    -16.48      0.00
   13   17    7    -11.15      0.00
   15   17    7     -9.00      0.00
   17   17    7     -3.18      0.00
   19   17    7      1.60      0.00
   21   17    7     -6.11      0.00
   23   17    7      8.11      0.00
   25   17    7     -4.51      0.00
   27   17    7      9.07      0.00
   29   17    7      2.53      0.00
   31   17    7      1.46      0.00
   33   17    7      1.36      0.00
   35   17    7     -3.09      0.00
   37   17    7      1.23      0.00
    0   18    7     -4.07      0.00
    2   18    7      0.99      0.00
    4   18    7      4.05      0.00
    6   18    7      3.63      0.00
    8   18    7      7.37      0.00
   10   18    7      1.22      0.00
   12   18    7      2.29      0.00
   14   18    7      0.38      0.00
   16   18    7      5.96      0.00
   18   18    7     -0.76      0.00
   20   18    7      4.90      0.00
   22   18    7     -2.17      0.00
   24   18    7     -0.53      0.00
   26   18    7     -3.86      0.00
   28   18    7     -2.76      0.00
   30   18    7     -3.53      0.00
   32   18    7      1.73      0.00
   34   18    7      5.96      0.00
    1   19    7    -13.23      0.00
    3   19    7     -3.32      0.00
    5   19    7      3.29      0.00
    7   19    7      4.91      0.00
    9   19    7     -1.80      0.00
   11   19    7     -2.88      0.00
   13   19    7     -5.83      0.00
   15   19    7     -0.06      0.00
   17   19    7     -7.78      0.00
   19   19    7     -2.76      0.00
   21   19    7    -11.38      0.00
   23   19    7      1.88      0.00
   25   19    7     -7.00      0.00
   27   19    7      6.22      0.00
   29   19    7     -6.67      0.00
    0   20    7      5.95      0.00
    2   20    7    -11.23      0.00
    4   20    7      4.81      0.00
    6   20    7    -14.73      0.00
    8   20    7      2.90      0.00
   10   20    7     -9.87      0.00
   12   20    7     -6.02      0.00
   14   20    7     -0.88      0.00
   16   20    7    -13.89      0.00
   18   20    7      1.01      0.00
   20   20    7    -14.09      0.00
   22   20    7     -0.54      0.00
   24   20    7    -10.86      0.00
    1   21    7      4.50      0.00
    3   21    7      9.34      0.00
    5   21    7     -1.52      0.00
    7   21    7      8.14      0.00
    9   21    7     14.74      0.00
   11   21    7      8.33      0.00
   13   21    7     24.27      0.00
   15   21    7      2.72      0.00
   17   21    7     10.28      0.00
   19   21    7      7.35      0.00
    0   22    7     22.50      0.00
    2   22    7    -13.75      0.00
    4   22    7     13.96      0.00
    6   22    7     -9.28      0.00
    8   22    7     14.31      0.00
   10   22    7     11.84      0.00
    2    0    8     34.51      0.00
    4    0    8      2.32      0.00
    6    0    8     20.82      0.00
    8    0    8     34.35      0.00
   10    0    8     32.06      0.00
   12    0    8     18.09      0.00
   14    0    8    -14.93      0.00
   16    0    8     -6.60      0.00
   18    0    8     13.95      0.00
   20    0    8     24.12      0.00
   22    0    8     30.89      0.00
   24    0    8     10.96      0.00
   26    0    8    -13.45      0.00
   28    0    8     11.28      0.00
   30    0    8     -0.16      0.00
   32    0    8     27.24      0.00
   34    0    8     17.71      0.00
   36    0    8     -0.59      0.00
   38    0    8     -0.26      0.00
   40    0    8     -2.22      0.00
   42    0    8      3.67      0.00
   44    0    8     12.33      0.00
   46    0    8     -5.81      0.00
   48    0    8     -5.04      0.00
   50    0    8     -4.85      0.00
   52    0    8     -3.87      0.00
   54    0    8      2.54      0.00
   56    0    8      6.37      0.00
    1    1    8     -3.55      0.00
    3    1    8    -26.10      0.00
    5    1    8    -13.04      0.00
    7    1    8    -47.15      0.00
    9    1    8     -1.52      0.00
   11    1    8    -35.22      0.00
   13    1    8     11.74      0.00
   15    1    8    -20.01      0.00
   17    1    8    -10.64      0.00
   19    1    8     -8.07      0.00
   21    1    8    -10.16      0.00
   23    1    8      0.37      0.00
   25    1    8     13.16      0.00
   27    1    8     -2.40      0.00
   29    1    8      9.59      0.00
   31    1    8    -14.99      0.00
   33    1    8      0.76      0.00
   35    1    8    -16.64      0.00
   37    1    8      2.92      0.00
   39    1    8     -6.22      0.00
   41    1    8     -2.63      0.00
   43    1    8     -2.86      0.00
   45    1    8    -13.05      0.00
   47    1    8     -2.12      0.00
   49    1    8     -9.94      0.00
   51    1    8      6.70      0.00
   53    1    8      7.29      0.00
   55    1    8     11.15      0.00
    0    2    8    -45.00      0.00
    2    2    8    -57.17      0.00
    4    2    8    -40.62      0.00
    6    2    8      0.64      0.00
    8    2    8     -8.39      0.00
   10    2    8     12.98      0.00
   12    2    8     -5.85      0.00
   14    2    8    -15.88      0.00
   16    2    8      8.49      0.00
   18    2    8     13.62      0.00
   20    2    8     19.79      0.00
   22    2    8      9.31      0.00
   24    2    8    -11.49      0.00
   26    2    8     -1.09      0.00
   28    2    8    -10.42      0.00
   30    2    8      8.84      0.00
   32    2    8      7.87      0.00
   34    2    8     -4.80      0.00
   36    2    8      3.70      0.00
   38    2    8    -18.32      0.00
   40    2    8      0.29      0.00
   42    2    8     -5.19      0.00
   44    2    8      1.17      0.00
   46    2    8     -0.57      0.00
   48    2    8     -5.33      0.00
   50    2    8      0.75      0.00
   52    2    8     -1.24      0.00
   54    2    8      0.71      0.00
   56    2    8      7.92      0.00
    1    3    8     16.68      0.00
    3    3    8     11.18      0.00
    5    3    8    -27.54      0.00
    7    3    8    -15.50      0.00
    9    3    8     -2.54      0.00
   11    3    8     12.45      0.00
   13    3    8     22.66      0.00
   15    3    8     22.43      0.00
   17    3    8     -3.54      0.00
   19    3    8      9.49      0.00
   21    3    8    -12.00      0.00
   23    3    8      5.05      0.00
   25    3    8      2.94      0.00
   27    3    8      2.41      0.00
   29    3    8      6.80      0.00
   31    3    8     -8.48      0.00
   33    3    8     -1.39      0.00
   35    3    8     -4.15      0.00
   37    3    8     -1.50      0.00
   39    3    8      6.20      0.00
   41    3    8     -4.83      0.00
   43    3    8      2.25      0.00
   45    3    8     -4.90      0.00
   47    3    8      2.69      0.00
   49    3    8      0.36      0.00
   51    3    8      3.19      0.00
   53    3    8      2.54      0.00
   55    3    8     -1.28      0.00
    0    4    8     27.79      0.00
    2    4    8     53.38      0.00
    4    4    8     24.58      0.00
    6    4    8     23.22      0.00
    8    4    8     25.98      0.00
   10    4    8      4.90      0.00
   12    4    8     -0.77      0.00
   14    4    8     -1.55      0.00
   16    4    8    -10.11      0.00
   18    4    8      8.30      0.00
   20    4    8     -0.53      0.00
   22    4    8    -10.84      0.00
   24    4    8      1.90      0.00
   26    4    8     -8.90      0.00
   28    4    8     14.86      0.00
   30    4    8     17.30      0.00
   32    4    8      3.43      0.00
   34    4    8     14.13      0.00
   36    4    8    -15.06      0.00
   38    4    8     -5.87      0.00
   40    4    8     -3.06      0.00
   42    4    8     -2.78      0.00
   44    4    8      7.42      0.00
   46    4    8     10.03      0.00
   48    4    8      2.99      0.00
   50    4    8      8.62      0.00
   52    4    8      7.02      0.00
   54    4    8      7.74      0.00
   56    4    8     12.51      0.00
    1    5    8    -28.53      0.00
    3    5    8    -29.70      0.00
    5    5    8    -34.40      0.00
    7    5    8    -22.83      0.00
    9    5    8    -27.80      0.00
   11    5    8     -7.61      0.00
   13    5    8    -22.40      0.00
   15    5    8    -18.62      0.00
   17    5    8    -14.11      0.00
   19    5    8    -28.67      0.00
   21    5    8    -11.25      0.00
   23    5    8    -20.17      0.00
   25    5    8    -16.48      0.00
   27    5    8     -7.84      0.00
   29    5    8    -12.99      0.00
   31    5    8     -0.03      0.00
   33    5    8    -10.83      0.00
   35    5    8     -2.58      0.00
   37    5    8    -10.57      0.00
   39    5    8    -13.17      0.00
   41    5    8     -3.47      0.00
   43    5    8     -7.57      0.00
   45    5    8     -2.55      0.00
   47    5    8      4.22      0.00
   49    5    8    -19.91      0.00
   51    5    8     18.38      0.00
   53    5    8    -17.31      0.00
   55    5    8     35.42      0.00
    0    6    8     13.75      0.00
    2    6    8     14.09      0.00
    4    6    8      7.59      0.00
    6    6    8     -0.46      0.00
    8    6    8     21.17      0.00
   10    6    8      7.02      0.00
   12    6    8     23.25      0.00
   14    6    8      5.08      0.00
   16    6    8     -3.78      0.00
   18    6    8      8.86      0.00
   20    6    8     -5.38      0.00
   22    6    8     10.64      0.00
   24    6    8     16.47      0.00
   26    6    8     -0.39      0.00
   28    6    8     13.10      0.00
   30    6    8     -3.24      0.00
   32    6    8     -6.84      0.00
   34    6    8      8.99      0.00
   36    6    8     -4.77      0.00
   38    6    8     16.17      0.00
   40    6    8     -2.28      0.00
   42    6    8      1.30      0.00
   44    6    8     -5.37      0.00
   46    6    8     -6.00      0.00
   48    6    8     -6.03      0.00
   50    6    8     -7.94      0.00
   52    6    8    -28.03      0.00
   54    6    8     -8.85      0.00
    1    7    8     13.15      0.00
    3    7    8      6.28      0.00
    5    7    8      6.70      0.00
    7    7    8     -0.33      0.00
    9    7    8      0.64      0.00
   11    7    8      3.18      0.00
   13    7    8    -10.77      0.00
   15    7    8     -1.64      0.00
   17    7    8    -21.37      0.00
   19    7    8     -5.43      0.00
   21    7    8      0.44      0.00
   23    7    8     -3.88      0.00
   25    7    8      5.86      0.00
   27    7    8    -12.06      0.00
   29    7    8     -3.90      0.00
   31    7    8     -3.01      0.00
   33    7    8      4.00      0.00
   35    7    8     -3.50      0.00
   37    7    8     -8.47      0.00
   39    7    8    -11.96      0.00
   41    7    8      1.08      0.00
   43    7    8      7.63      0.00
   45    7    8     14.11      0.00
   47    7    8      7.57      0.00
   49    7    8     10.72      0.00
   51    7    8     11.81      0.00
   53    7    8     42.29      0.00
    0    8    8      6.49      0.00
    2    8    8     -3.50      0.00
    4    8    8     -0.86      0.00
    6    8    8     -3.30      0.00
    8    8    8      1.52      0.00
   10    8    8     -1.39      0.00
   12    8    8     12.02      0.00
   14    8    8    -12.53      0.00
   16    8    8     11.49      0.00
   18    8    8    -14.55      0.00
   20    8    8     19.16      0.00
   22    8    8      7.05      0.00
   24    8    8     17.71      0.00
   26    8    8     14.34      0.00
   28    8    8      6.84      0.00
   30    8    8      4.39      0.00
   32    8    8     17.98      0.00
   34    8    8     -1.42      0.00
   36    8    8     31.23      0.00
   38    8    8      2.70      0.00
   40    8    8     15.98      0.00
   42    8    8      4.32      0.00
   44    8    8     -1.90      0.00
   46    8    8     17.77      0.00
   48    8    8     -2.70      0.00
   50    8    8     12.02      0.00
   52    8    8    -26.74      0.00
    1    9    8     -5.12      0.00
    3    9    8      3.38      0.00
    5    9    8    -20.18      0.00
    7    9    8     -7.78      0.00
    9    9    8     -9.36      0.00
   11    9    8    -11.74      0.00
   13    9    8      0.92      0.00
   15    9    8    -11.83      0.00
   17    9    8     -5.78      0.00
   19    9    8      0.23      0.00
   21    9    8     -4.05      0.00
   23    9    8     14.13      0.00
   25    9    8     -7.08      0.00
   27    9    8      6.09      0.00
   29    9    8      4.14      0.00
   31    9    8      6.72      0.00
   33    9    8     17.41      0.00
   35    9    8      6.13      0.00
   37    9    8      0.60      0.00
   39    9    8     14.49      0.00
   41    9    8     -0.87      0.00
   43    9    8     18.56      0.00
   45    9    8     -0.26      0.00
   47    9    8     -2.91      0.00
   49    9    8      6.23      0.00
   51    9    8      1.79      0.00
    0   10    8    -12.64      0.00
    2   10    8     -9.16      0.00
    4   10    8     -0.27      0.00
    6   10    8     -6.06      0.00
    8   10    8      3.35      0.00
   10   10    8     -9.35      0.00
   12   10    8     -9.01      0.00
   14   10    8     -6.11      0.00
   16   10    8     -2.26      0.00
   18   10    8      6.33      0.00
   20   10    8      4.47      0.00
   22   10    8     -0.94      0.00
   24   10    8    -13.19      0.00
   26   10    8    -14.79      0.00
   28   10    8     -6.38      0.00
   30   10    8     -4.09      0.00
   32   10    8     -2.83      0.00
   34   10    8     -4.37      0.00
   36   10    8    -10.06      0.00
   38   10    8      4.60      0.00
   40   10    8      5.55      0.00
   42   10    8     10.16      0.00
   44   10    8     -1.45      0.00
   46   10    8     14.89      0.00
   48   10    8     -3.09      0.00
   50   10    8     16.43      0.00
    1   11    8      7.47      0.00
    3   11    8      6.95      0.00
    5   11    8      7.40      0.00
    7   11    8      7.74      0.00
    9   11    8      3.57      0.00
   11   11    8      8.76      0.00
   13   11    8      4.29      0.00
   15   11    8      2.76      0.00
   17   11    8      3.49      0.00
   19   11    8     -0.45      0.00
   21   11    8      3.23      0.00
   23   11    8      6.28      0.00
   25   11    8     -1.77      0.00
   27   11    8     -0.53      0.00
   29   11    8     -6.50      0.00
   31   11    8    -11.03      0.00
   33   11    8     -5.74      0.00
   35   11    8    -15.52      0.00
   37   11    8     -3.34      0.00
   39   11    8     -4.31      0.00
   41   11    8      1.93      0.00
   43   11    8      0.03      0.00
   45   11    8     -6.97      0.00
   47   11    8    -11.65      0.00
   49   11    8     -9.85      0.00
    0   12    8     -2.48      0.00
    2   12    8    -20.06      0.00
    4   12    8      0.69      0.00
    6   12    8     -3.05      0.00
    8   12    8      6.41      0.00
   10   12    8      4.15      0.00
   12   12    8      8.05      0.00
   14   12    8      1.82      0.00
   16   12    8      8.30      0.00
   18   12    8      8.91      0.00
   20   12    8     12.65      0.00
   22   12    8      4.01      0.00
   24   12    8      4.23      0.00
   26   12    8     -3.29      0.00
   28   12    8      9.35      0.00
   30   12    8     13.48      0.00
   32   12    8     13.59      0.00
   34   12    8      3.70      0.00
   36   12    8     -0.27      0.00
   38   12    8     -2.56      0.00
   40   12    8      0.70      0.00
   42   12    8     -0.34      0.00
   44   12    8      3.48      0.00
   46   12    8     -3.98      0.00
    1   13    8      4.83      0.00
    3   13    8     -1.34      0.00
    5   13    8      2.57      0.00
    7   13    8     -9.00      0.00
    9   13    8      4.70      0.00
   11   13    8     -2.14      0.00
   13   13    8      2.99      0.00
   15   13    8      0.24      0.00
   17   13    8     -5.30      0.00
   19   13    8     -2.69      0.00
   21   13    8      4.97      0.00
   23   13    8      1.02      0.00
   25   13    8      8.52      0.00
   27   13    8     -0.06      0.00
   29   13    8      3.26      0.00
   31   13    8      4.91      0.00
   33   13    8      4.60      0.00
   35   13    8      5.67      0.00
   37   13    8     -3.29      0.00
   39   13    8     -0.52      0.00
   41   13    8     -4.64      0.00
   43   13    8      1.22      0.00
   45   13    8     -1.61      0.00
    0   14    8      0.06      0.00
    2   14    8     11.74      0.00
    4   14    8      2.28      0.00
    6   14    8      3.97      0.00
    8   14    8     -1.15      0.00
   10   14    8      0.06      0.00
   12   14    8     -9.40      0.00
   14   14    8     -0.48      0.00
   16   14    8     -3.44      0.00
   18   14    8      2.10      0.00
   20   14    8      7.22      0.00
   22   14    8      3.73      0.00
   24   14    8      1.45      0.00
   26   14    8      1.19      0.00
   28   14    8     -1.75      0.00
   30   14    8      2.72      0.00
   32   14    8      3.19      0.00
   34   14    8      1.24      0.00
   36   14    8      4.13      0.00
   38   14    8     -5.41      0.00
   40   14    8     -3.30      0.00
   42   14    8     -7.77      0.00
   44   14    8     -6.73      0.00
    1   15    8     -1.22      0.00
    3   15    8     -2.84      0.00
    5   15    8      1.02      0.00
    7   15    8     -3.91      0.00
    9   15    8      0.57      0.00
   11   15    8     -6.23      0.00
   13   15    8      5.70      0.00
   15   15    8     -1.69      0.00
   17   15    8      7.79      0.00
   19   15    8      7.28      0.00
   21   15    8     -0.95      0.00
   23   15    8      6.80      0.00
   25   15    8     -6.87      0.00
   27   15    8      3.24      0.00
   29   15    8      2.41      0.00
   31   15    8      8.37      0.00
   33   15    8      9.68      0.00
   35   15    8      4.16      0.00
   37   15    8      2.63      0.00
   39   15    8     -2.42      0.00
   41   15    8     -1.56      0.00
    0   16    8      0.02      0.00
    2   16    8     -2.58      0.00
    4   16    8     -4.35      0.00
    6   16    8     -7.44      0.00
    8   16    8      1.58      0.00
   10   16    8     -0.07      0.00
   12   16    8      8.38      0.00
   14   16    8      6.28      0.00
   16   16    8      1.52      0.00
   18   16    8      5.81      0.00
   20   16    8     -4.88      0.00
   22   16    8      2.78      0.00
   24   16    8      0.61      0.00
   26   16    8      3.17      0.00
   28   16    8      3.59      0.00
   30   16    8     -1.19      0.00
   32   16    8     -1.00      0.00
   34   16    8      4.22      0.00
   36   16    8      2.48      0.00
   38   16    8      8.13      0.00
    1   17    8      0.18      0.00
    3   17    8      1.55      0.00
    5   17    8     -3.92      0.00
    7   17    8     -4.92      0.00
    9   17    8    -12.64      0.00
   11   17    8    -10.77      0.00
   13   17    8    -11.61      0.00
   15   17    8     -4.85      0.00
   17   17    8      1.75      0.00
   19   17    8     -4.83      0.00
   21   17    8      2.16      0.00
   23   17    8    -10.03      0.00
   25   17    8     -1.91      0.00
   27   17    8     -3.44      0.00
   29   17    8     -0.26      0.00
   31   17    8     -2.57      0.00
   33   17    8     -6.82      0.00
   35   17    8     -4.11      0.00
    0   18    8     12.42      0.00
    2   18    8      5.35      0.00
    4   18    8     -1.40      0.00
    6   18    8     -7.76      0.00
    8   18    8      0.61      0.00
   10   18    8      0.93      0.00
   12   18    8      2.63      0.00
   14   18    8     -9.45      0.00
   16   18    8     -6.83      0.00
   18   18    8     -9.41      0.00
   20   18    8     -4.04      0.00
   22   18    8     -2.68      0.00
   24   18    8     -0.52      0.00
   26   18    8     -3.75      0.00
   28   18    8      5.96      0.00
   30   18    8      2.31      0.00
   32   18    8     10.03      0.00
    1   19    8    -13.99      0.00
    3   19    8    -10.42      0.00
    5   19    8    -13.17      0.00
    7   19    8     -5.61      0.00
    9   19    8     -0.11      0.00
   11   19    8     -1.61      0.00
   13   19    8      5.92      0.00
   15   19    8     -3.76      0.00
   17   19    8      1.52      0.00
   19   19    8     -0.75      0.00
   21   19    8      2.37      0.00
   23   19    8      8.06      0.00
   25   19    8      2.01      0.00
   27   19    8     15.98      0.00
   29   19    8      1.29      0.00
    0   20    8      1.92      0.00
    2   20    8      4.18      0.00
    4   20    8      0.93      0.00
    6   20    8     -6.17      0.00
    8   20    8      4.21      0.00
   10   20    8     -7.95      0.00
   12   20    8      5.84      0.00
   14   20    8      3.87      0.00
   16   20    8      7.17      0.00
   18   20    8      5.21      0.00
   20   20    8     -1.88      0.00
   22   20    8     -8.83      0.00
   24   20    8     -4.03      0.00
    1   21    8     -8.24      0.00
    3   21    8      1.83      0.00
    5   21    8     14.49      0.00
    7   21    8      4.56      0.00
    9   21    8     10.72      0.00
   11   21    8    -16.97      0.00
   13   21    8      3.22      0.00
   15   21    8    -13.16      0.00
   17   21    8     -0.26      0.00
    0   22    8     10.45      0.00
    2   22    8      4.37      0.00
    4   22    8     29.95      0.00
    6   22    8      9.30      0.00
    1    1    9    -52.48      0.00
    3    1    9    -46.67      0.00
    5    1    9    -13.88      0.00
    7    1    9    -40.38      0.00
    9    1    9    -30.89      0.00
   11    1    9    -45.68      0.00
   13    1    9    -14.19      0.00
   15    1    9    -21.17      0.00
   17    1    9      1.17      0.00
   19    1    9    -30.73      0.00
   21    1    9    -12.73      0.00
   23    1    9    -15.84      0.00
   25    1    9     -2.42      0.00
   27    1    9     -1.01      0.00
   29    1    9     -2.48      0.00
   31    1    9    -14.33      0.00
   33    1    9     -4.49      0.00
   35    1    9     -9.49      0.00
   37    1    9      4.42      0.00
   39    1    9     -6.61      0.00
   41    1    9     -5.41      0.00
   43    1    9    -16.51      0.00
   45    1    9     -1.32      0.00
   47    1    9     -9.85      0.00
   49    1    9      6.45      0.00
   51    1    9     -6.55      0.00
   53    1    9     -8.34      0.00
   55    1    9     -3.43      0.00
    0    2    9     20.72      0.00
    2    2    9     38.31      0.00
    4    2    9     32.63      0.00
    6    2    9     36.29      0.00
    8    2    9     22.94      0.00
   10    2    9     20.44      0.00
   12    2    9    -18.90      0.00
   14    2    9     22.45      0.00
   16    2    9    -20.50      0.00
   18    2    9     29.62      0.00
   20    2    9      6.25      0.00
   22    2    9      5.87      0.00
   24    2    9     -6.86      0.00
   26    2    9    -16.61      0.00
   28    2    9    -17.25      0.00
   30    2    9      4.67      0.00
   32    2    9      0.57      0.00
   34    2    9     24.26      0.00
   36    2    9     -8.95      0.00
   38    2    9     12.47      0.00
   40    2    9    -13.10      0.00
   42    2    9      6.67      0.00
   44    2    9      4.95      0.00
   46    2    9      1.08      0.00
   48    2    9      9.01      0.00
   50    2    9     -8.74      0.00
   52    2    9      3.85      0.00
   54    2    9    -11.25      0.00
   56    2    9     -5.26      0.00
    1    3    9    -16.91      0.00
    3    3    9    -31.03      0.00
    5    3    9     -8.91      0.00
    7    3    9    -28.63      0.00
    9    3    9     -6.26      0.00
   11    3    9     -7.68      0.00
   13    3    9      6.66      0.00
   15    3    9     -8.82      0.00
   17    3    9    -15.17      0.00
   19    3    9    -23.16      0.00
   21    3    9     -4.28      0.00
   23    3    9     -7.12      0.00
   25    3    9     18.87      0.00
   27    3    9     -2.94      0.00
   29    3    9     -1.66      0.00
   31    3    9     -1.85      0.00
   33    3    9     -9.68      0.00
   35    3    9      6.25      0.00
   37    3    9      2.07      0.00
   39    3    9     -2.12      0.00
   41    3    9      5.50      0.00
   43    3    9    -15.97      0.00
   45    3    9      6.25      0.00
   47    3    9     -2.47      0.00
   49    3    9      8.63      0.00
   51    3    9     14.76      0.00
   53    3    9      7.17      0.00
   55    3    9      6.63      0.00
    0    4    9    -18.90      0.00
    2    4    9    -21.18      0.00
    4    4    9     10.18      0.00
    6    4    9      1.83      0.00
    8    4    9     17.31      0.00
   10    4    9    -14.89      0.00
   12    4    9     -2.69      0.00
   14    4    9    -23.19      0.00
   16    4    9      7.02      0.00
   18    4    9     -7.75      0.00
   20    4    9      9.04      0.00
   22    4    9      1.71      0.00
   24    4    9      3.83      0.00
   26    4    9      3.06      0.00
   28    4    9      5.57      0.00
   30    4    9      7.85      0.00
   32    4    9      9.94      0.00
   34    4    9      4.35      0.00
   36    4    9      8.01      0.00
   38    4    9     -5.20      0.00
   40    4    9     11.31      0.00
   42    4    9      3.95      0.00
   44    4    9      9.20      0.00
   46    4    9      1.47      0.00
   48    4    9     -3.34      0.00
   50    4    9     -2.67      0.00
   52    4    9      5.22      0.00
   54    4    9     -5.90      0.00
    1    5    9     -5.86      0.00
    3    5    9     13.73      0.00
    5    5    9     -2.28      0.00
    7    5    9      9.44      0.00
    9    5    9     15.24      0.00
   11    5    9     -5.34      0.00
   13    5    9     29.16      0.00
   15    5    9      3.29      0.00
   17    5    9     12.28      0.00
   19    5    9      9.68      0.00
   21    5    9    -17.37      0.00
   23    5    9     11.10      0.00
   25    5    9    -11.87      0.00
   27    5    9      0.72      0.00
   29    5    9      8.67      0.00
   31    5    9     -6.12      0.00
   33    5    9      4.55      0.00
   35    5    9     10.57      0.00
   37    5    9    -14.31      0.00
   39    5    9     12.45      0.00
   41    5    9    -22.58      0.00
   43    5    9     -8.33      0.00
   45    5    9     -9.12      0.00
   47    5    9    -13.49      0.00
   49    5    9      7.20      0.00
   51    5    9    -11.67      0.00
   53    5    9      2.73      0.00
   55    5    9    -24.66      0.00
    0    6    9     15.04      0.00
    2    6    9      7.76      0.00
    4    6    9      1.72      0.00
    6    6    9      2.98      0.00
    8    6    9    -10.98      0.00
   10    6    9      3.99      0.00
   12    6    9     -3.60      0.00
   14    6    9      3.16      0.00
   16    6    9      7.43      0.00
   18    6    9      1.16      0.00
   20    6    9      4.48      0.00
   22    6    9      2.55      0.00
   24    6    9      1.01      0.00
   26    6    9     11.48      0.00
   28    6    9      6.17      0.00
   30    6    9      6.64      0.00
   32    6    9     -0.30      0.00
   34    6    9     -8.14      0.00
   36    6    9      2.43      0.00
   38    6    9     -6.19      0.00
   40    6    9      6.92      0.00
   42    6    9     -2.42      0.00
   44    6    9     -1.85      0.00
   46    6    9     10.35      0.00
   48    6    9     19.15      0.00
   50    6    9     24.97      0.00
   52    6    9     35.27      0.00
   54    6    9      6.81      0.00
    1    7    9     -0.95      0.00
    3    7    9      3.32      0.00
    5    7    9      7.10      0.00
    7    7    9     15.94      0.00
    9    7    9     -9.75      0.00
   11    7    9      3.67      0.00
   13    7    9     -9.14      0.00
   15    7    9      1.11      0.00
   17    7    9      5.53      0.00
   19    7    9      1.51      0.00
   21    7    9    -17.33      0.00
   23    7    9     -6.95      0.00
   25    7    9    -22.47      0.00
   27    7    9      5.02      0.00
   29    7    9     -5.01      0.00
   31    7    9     17.70      0.00
   33    7    9     -3.92      0.00
   35    7    9      7.58      0.00
   37    7    9     -3.97      0.00
   39    7    9     -2.48      0.00
   41    7    9      5.73      0.00
   43    7    9      3.33      0.00
   45    7    9      8.35      0.00
   47    7    9    -11.20      0.00
   49    7    9     13.10      0.00
   51    7    9    -10.63      0.00
   53    7    9     24.11      0.00
    0    8    9     -2.67      0.00
    2    8    9      2.47      0.00
    4    8    9      3.33      0.00
    6    8    9      3.35      0.00
    8    8    9     11.73      0.00
   10    8    9     15.18      0.00
   12    8    9      9.81      0.00
   14    8    9     22.18      0.00
   16    8    9      8.64      0.00
   18    8    9      7.90      0.00
   20    8    9      6.89      0.00
   22    8    9     -4.58      0.00
   24    8    9     14.28      0.00
   26    8    9      5.44      0.00
   28    8    9     17.82      0.00
   30    8    9     -4.23      0.00
   32    8    9      0.33      0.00
   34    8    9     -4.99      0.00
   36    8    9      4.98      0.00
   38    8    9      6.90      0.00
   40    8    9      6.45      0.00
   42    8    9    -10.48      0.00
   44    8    9     10.61      0.00
   46    8    9     -4.35      0.00
   48    8    9     38.24      0.00
   50    8    9     10.77      0.00
   52    8    9     30.46      0.00
    1    9    9      3.21      0.00
    3    9    9      4.88      0.00
    5    9    9     -6.86      0.00
    7    9    9     -3.64      0.00
    9    9    9     -4.75      0.00
   11    9    9     -1.80      0.00
   13    9    9     -2.18      0.00
   15    9    9      8.12      0.00
   17    9    9      0.47      0.00
   19    9    9      4.02      0.00
   21    9    9     10.04      0.00
   23    9    9      7.68      0.00
   25    9    9     17.22      0.00
   27    9    9     14.96      0.00
   29    9    9      2.05      0.00
   31    9    9      6.53      0.00
   33    9    9      1.82      0.00
   35    9    9      4.47      0.00
   37    9    9      3.47      0.00
   39    9    9     -6.08      0.00
   41    9    9      9.92      0.00
   43    9    9     -5.78      0.00
   45    9    9     15.19      0.00
   47    9    9     -8.36      0.00
   49    9    9     -1.54      0.00
   51    9    9     -1.56      0.00
    0   10    9      7.43      0.00
    2   10    9     17.98      0.00
    4   10    9      9.36      0.00
    6   10    9      2.87      0.00
    8   10    9     12.31      0.00
   10   10    9     -6.32      0.00
   12   10    9      8.59      0.00
   14   10    9     -3.39      0.00
   16   10    9     -2.31      0.00
   18   10    9      8.33      0.00
   20   10    9    -12.68      0.00
   22   10    9     10.39      0.00
   24   10    9     -6.43      0.00
   26   10    9     -2.45      0.00
   28   10    9      3.63      0.00
   30   10    9    -12.38      0.00
   32   10    9      3.62      0.00
   34   10    9      1.44      0.00
   36   10    9     -0.43      0.00
   38   10    9      7.84      0.00
   40   10    9     -9.48      0.00
   42   10    9      0.83      0.00
   44   10    9      1.34      0.00
   46   10    9      7.19      0.00
   48   10    9      6.95      0.00
   50   10    9      7.14      0.00
    1   11    9     12.96      0.00
    3   11    9      0.82      0.00
    5   11    9      0.92      0.00
    7   11    9    -11.47      0.00
    9   11    9     -4.97      0.00
   11   11    9     -5.93      0.00
   13   11    9      1.08      0.00
   15   11    9     -2.90      0.00
   17   11    9     -1.43      0.00
   19   11    9     -3.33      0.00
   21   11    9     -3.73      0.00
   23   11    9     10.36      0.00
   25   11    9      5.33      0.00
   27   11    9      2.78      0.00
   29   11    9     -4.62      0.00
   31   11    9     -6.93      0.00
   33   11    9      5.26      0.00
   35   11    9     12.81      0.00
   37   11    9      5.55      0.00
   39   11    9      7.60      0.00
   41   11    9     -7.97      0.00
   43   11    9      6.82      0.00
   45   11    9      0.36      0.00
   47   11    9      2.49      0.00
    0   12    9     -4.78      0.00
    2   12    9    -14.35      0.00
    4   12    9     -6.81      0.00
    6   12    9     -8.92      0.00
    8   12    9    -12.31      0.00
   10   12    9     -9.13      0.00
   12   12    9    -12.97      0.00
   14   12    9     -9.38      0.00
   16   12    9     -0.37      0.00
   18   12    9     -4.14      0.00
   20   12    9      0.58      0.00
   22   12    9     -4.23      0.00
   24   12    9     -7.70      0.00
   26   12    9      0.44      0.00
   28   12    9     -0.60      0.00
   30   12    9      1.71      0.00
   32   12    9     -2.45      0.00
   34   12    9     -3.33      0.00
   36   12    9     -8.95      0.00
   38   12    9      2.12      0.00
   40   12    9     -7.03      0.00
   42   12    9      8.22      0.00
   44   12    9     -4.16      0.00
   46   12    9      9.05      0.00
    1   13    9     -0.71      0.00
    3   13    9      2.02      0.00
    5   13    9      1.86      0.00
    7   13    9      2.19      0.00
    9   13    9      4.92      0.00
   11   13    9      2.82      0.00
   13   13    9      6.23      0.00
   15   13    9      6.35      0.00
   17   13    9      2.56      0.00
   19   13    9     -3.60      0.00
   21   13    9      4.10      0.00
   23   13    9     -2.28      0.00
   25   13    9     18.03      0.00
   27   13    9     -1.07      0.00
   29   13    9      3.41      0.00
   31   13    9     -3.99      0.00
   33   13    9     -1.36      0.00
   35   13    9     12.52      0.00
   37   13    9     12.48      0.00
   39   13    9     16.71      0.00
   41   13    9     15.01      0.00
   43   13    9     13.73      0.00
   45   13    9      4.42      0.00
    0   14    9     14.05      0.00
    2   14    9     -4.21      0.00
    4   14    9     12.84      0.00
    6   14    9     -4.71      0.00
    8   14    9      8.02      0.00
   10   14    9     -4.37      0.00
   12   14    9     -0.44      0.00
   14   14    9     -1.45      0.00
   16   14    9     -4.71      0.00
   18   14    9      0.74      0.00
   20   14    9     -4.19      0.00
   22   14    9     -2.46      0.00
   24   14    9     -1.31      0.00
   26   14    9     -0.24      0.00
   28   14    9      5.27      0.00
   30   14    9      0.84      0.00
   32   14    9      4.17      0.00
   34   14    9     -5.13      0.00
   36   14    9      5.07      0.00
   38   14    9     -1.12      0.00
   40   14    9      8.01      0.00
   42   14    9     -0.16      0.00
    1   15    9      8.03      0.00
    3   15    9     10.53      0.00
    5   15    9      3.74      0.00
    7   15    9      9.59      0.00
    9   15    9     10.47      0.00
   11   15    9      8.82      0.00
   13   15    9      9.84      0.00
   15   15    9      3.26      0.00
   17   15    9      1.25      0.00
   19   15    9      1.62      0.00
   21   15    9      0.99      0.00
   23   15    9      1.69      0.00
   25   15    9     -3.81      0.00
   27   15    9     -2.64      0.00
   29   15    9     -5.72      0.00
   31   15    9     -0.53      0.00
   33   15    9     -2.30      0.00
   35   15    9     -3.17      0.00
   37   15    9     -9.35      0.00
   39   15    9     -4.36      0.00
   41   15    9      0.35      0.00
    0   16    9    -17.27      0.00
    2   16    9    -11.30      0.00
    4   16    9    -13.96      0.00
    6   16    9     -6.14      0.00
    8   16    9     -4.14      0.00
   10   16    9      1.22      0.00
   12   16    9      0.08      0.00
   14   16    9     -2.17      0.00
   16   16    9     -8.66      0.00
   18   16    9     -6.24      0.00
   20   16    9     -8.13      0.00
   22   16    9     -2.22      0.00
   24   16    9     -2.42      0.00
   26   16    9     -6.30      0.00
   28   16    9     -5.57      0.00
   30   16    9    -11.10      0.00
   32   16    9     -6.54      0.00
   34   16    9     -9.17      0.00
   36   16    9     -5.33      0.00
   38   16    9     -5.25      0.00
    1   17    9     -7.40      0.00
    3   17    9     -5.66      0.00
    5   17    9     -0.50      0.00
    7   17    9     -6.32      0.00
    9   17    9    -10.97      0.00
   11   17    9    -13.37      0.00
   13   17    9     -8.28      0.00
   15   17    9     -4.09      0.00
   17   17    9      4.23      0.00
   19   17    9      3.74      0.00
   21   17    9      2.10      0.00
   23   17    9      5.47      0.00
   25   17    9     -2.01      0.00
   27   17    9      1.92      0.00
   29   17    9     -0.44      0.00
   31   17    9     -1.62      0.00
   33   17    9      0.32      0.00
   35   17    9     -4.69      0.00
    0   18    9      2.62      0.00
    2   18    9      3.52      0.00
    4   18    9      2.88      0.00
    6   18    9     -0.84      0.00
    8   18    9     -0.99      0.00
   10   18    9     -8.06      0.00
   12   18    9     -3.54      0.00
   14   18    9    -10.76      0.00
   16   18    9      0.85      0.00
   18   18    9     -4.51      0.00
   20   18    9      5.64      0.00
   22   18    9      6.64      0.00
   24   18    9      1.75      0.00
   26   18    9      0.25      0.00
   28   18    9     -5.23      0.00
   30   18    9     -6.46      0.00
   32   18    9      1.00      0.00
    1   19    9     -4.70      0.00
    3   19    9     -1.27      0.00
    5   19    9      0.72      0.00
    7   19    9     -0.78      0.00
    9   19    9     -2.01      0.00
   11   19    9     -4.59      0.00
   13   19    9     -3.07      0.00
   15   19    9     -1.70      0.00
   17   19    9     -1.03      0.00
   19   19    9      4.19      0.00
   21   19    9      2.81      0.00
   23   19    9     11.94      0.00
   25   19    9      2.52      0.00
   27   19    9      9.84      0.00
    0   20    9      4.92      0.00
    2   20    9     -4.57      0.00
    4   20    9     -4.58      0.00
    6   20    9    -16.64      0.00
    8   20    9     -6.19      0.00
   10   20    9     -9.89      0.00
   12   20    9     -6.99      0.00
   14   20    9     -4.61      0.00
   16   20    9    -14.39      0.00
   18   20    9      0.25      0.00
   20   20    9    -14.81      0.00
   22   20    9     -2.25      0.00
    1   21    9     -4.57      0.00
    3   21    9     -8.73      0.00
    5   21    9    -20.46      0.00
    7   21    9    -17.11      0.00
    9   21    9      0.44      0.00
   11   21    9    -18.63      0.00
   13   21    9     -5.88      0.00
   15   21    9    -40.11      0.00
   17   21    9    -29.47      0.00
    0   22    9     31.04      0.00
    2   22    9      1.31      0.00
    2    0   10     -3.15      0.00
    4    0   10     -9.68      0.00
    8    0   10     -3.43      0.00
   10    0   10     20.80      0.00
   12    0   10     16.72      0.00
   14    0   10      6.92      0.00
   16    0   10     -9.12      0.00
   18    0   10    -13.05      0.00
   20    0   10    -11.88      0.00
   22    0   10      2.65      0.00
   24    0   10      5.39      0.00
   26    0   10     -1.01      0.00
   28    0   10     15.37      0.00
   30    0   10     -0.27      0.00
   32    0   10      4.54      0.00
   34    0   10     -0.24      0.00
   36    0   10     -9.86      0.00
   38    0   10      0.21      0.00
   40    0   10      3.74      0.00
   42    0   10      3.10      0.00
   44    0   10     12.93      0.00
   46    0   10     -5.67      0.00
   48    0   10      2.40      0.00
   50    0   10      3.23      0.00
   52    0   10     -2.30      0.00
   54    0   10      9.92      0.00
    1    1   10    -36.61      0.00
    3    1   10    -34.33      0.00
    5    1   10    -19.42      0.00
    7    1   10    -36.84      0.00
    9    1   10     -4.05      0.00
   11    1   10    -38.26      0.00
   13    1   10      5.52      0.00
   15    1   10    -12.20      0.00
   17    1   10     -6.54      0.00
   19    1   10     -7.52      0.00
   21    1   10    -21.64      0.00
   23    1   10    -12.38      0.00
   25    1   10     -1.26      0.00
   27    1   10     -6.49      0.00
   29    1   10      9.34      0.00
   31    1   10    -19.95      0.00
   33    1   10      3.04      0.00
   35    1   10    -16.89      0.00
   37    1   10      4.19      0.00
   39    1   10     -0.43      0.00
   41    1   10     -7.21      0.00
   43    1   10     -1.95      0.00
   45    1   10    -11.17      0.00
   47    1   10      2.20      0.00
   49    1   10     -4.16      0.00
   51    1   10      5.18      0.00
   53    1   10     -3.37      0.00
   55    1   10      3.69      0.00
    0    2   10     22.92      0.00
    2    2   10    -11.78      0.00
    4    2   10     -6.42      0.00
    6    2   10    -15.76      0.00
    8    2   10    -16.33      0.00
   10    2   10     -4.16      0.00
   12    2   10     -1.62      0.00
   14    2   10    -10.63      0.00
   16    2   10     -0.13      0.00
   18    2   10    -10.10      0.00
   20    2   10      7.10      0.00
   22    2   10     -7.57      0.00
   24    2   10     -3.82      0.00
   26    2   10     -5.72      0.00
   28    2   10     -4.92      0.00
   30    2   10      1.24      0.00
   32    2   10      6.57      0.00
   34    2   10     -8.78      0.00
   36    2   10      2.61      0.00
   38    2   10    -15.83      0.00
   40    2   10     -1.72      0.00
   42    2   10    -11.82      0.00
   44    2   10     -2.74      0.00
   46    2   10     -7.92      0.00
   48    2   10     -1.52      0.00
   50    2   10     -3.30      0.00
   52    2   10      2.82      0.00
   54    2   10     -0.81      0.00
    1    3   10    -15.43      0.00
    3    3   10    -18.29      0.00
    5    3   10    -32.61      0.00
    7    3   10    -26.39      0.00
    9    3   10    -18.91      0.00
   11    3   10     -4.37      0.00
   13    3   10     -1.46      0.00
   15    3   10      5.50      0.00
   17    3   10    -12.39      0.00
   19    3   10     -7.57      0.00
   21    3   10    -10.91      0.00
   23    3   10     -8.14      0.00
   25    3   10      9.89      0.00
   27    3   10     -1.56      0.00
   29    3   10      6.45      0.00
   31    3   10    -10.67      0.00
   33    3   10     -7.34      0.00
   35    3   10     -6.08      0.00
   37    3   10      1.62      0.00
   39    3   10      3.48      0.00
   41    3   10     -3.61      0.00
   43    3   10     -2.04      0.00
   45    3   10     -8.08      0.00
   47    3   10      3.40      0.00
   49    3   10     -9.17      0.00
   51    3   10     -4.31      0.00
   53    3   10    -20.68      0.00
   55    3   10     -8.65      0.00
    0    4   10      7.69      0.00
    2    4   10     10.46      0.00
    4    4   10     15.23      0.00
    6    4   10      1.99      0.00
    8    4   10     15.69      0.00
   10    4   10     -1.89      0.00
   12    4   10     -1.06      0.00
   14    4   10      6.74      0.00
   16    4   10      3.42      0.00
   18    4   10     13.09      0.00
   20    4   10     21.46      0.00
   22    4   10     -0.69      0.00
   24    4   10     13.15      0.00
   26    4   10     -7.85      0.00
   28    4   10      3.61      0.00
   30    4   10     10.43      0.00
   32    4   10     -0.45      0.00
   34    4   10     12.83      0.00
   36    4   10     -9.40      0.00
   38    4   10     -4.55      0.00
   40    4   10      1.09      0.00
   42    4   10     -0.34      0.00
   44    4   10      6.68      0.00
   46    4   10      7.89      0.00
   48    4   10     -9.75      0.00
   50    4   10     -1.47      0.00
   52    4   10     -6.52      0.00
   54    4   10     -2.34      0.00
    1    5   10    -53.71      0.00
    3    5   10    -57.96      0.00
    5    5   10    -45.94      0.00
    7    5   10    -48.94      0.00
    9    5   10    -34.11      0.00
   11    5   10    -30.27      0.00
   13    5   10    -29.07      0.00
   15    5   10    -31.81      0.00
   17    5   10    -23.01      0.00
   19    5   10    -35.07      0.00
   21    5   10    -10.21      0.00
   23    5   10    -20.15      0.00
   25    5   10     -8.26      0.00
   27    5   10     -9.25      0.00
   29    5   10    -13.22      0.00
   31    5   10     -3.94      0.00
   33    5   10    -11.69      0.00
   35    5   10      1.22      0.00
   37    5   10     -4.98      0.00
   39    5   10    -12.26      0.00
   41    5   10     -5.78      0.00
   43    5   10    -14.92      0.00
   45    5   10      0.83      0.00
   47    5   10     22.32      0.00
   49    5   10     -3.48      0.00
   51    5   10     37.95      0.00
   53    5   10    -13.61      0.00
    0    6   10    -28.05      0.00
    2    6   10    -23.74      0.00
    4    6   10    -28.13      0.00
    6    6   10    -28.61      0.00
    8    6   10     -8.52      0.00
   10    6   10    -15.95      0.00
   12    6   10      9.12      0.00
   14    6   10    -13.12      0.00
   16    6   10    -16.12      0.00
   18    6   10     -6.73      0.00
   20    6   10    -14.93      0.00
   22    6   10      8.26      0.00
   24    6   10     10.77      0.00
   26    6   10     -5.15      0.00
   28    6   10      1.94      0.00
   30    6   10     -0.46      0.00
   32    6   10     -9.74      0.00
   34    6   10     13.00      0.00
   36    6   10    -12.07      0.00
   38    6   10      6.75      0.00
   40    6   10     -6.87      0.00
   42    6   10      3.70      0.00
   44    6   10     -4.02      0.00
   46    6   10     -9.28      0.00
   48    6   10    -22.47      0.00
   50    6   10    -13.69      0.00
   52    6   10    -29.74      0.00
    1    7   10      1.64      0.00
    3    7   10      6.41      0.00
    5    7   10     23.87      0.00
    7    7   10     14.65      0.00
    9    7   10     16.46      0.00
   11    7   10      1.70      0.00
   13    7   10     -6.00      0.00
   15    7   10      4.80      0.00
   17    7   10     -2.87      0.00
   19    7   10     11.30      0.00
   21    7   10     10.21      0.00
   23    7   10     -3.01      0.00
   25    7   10      6.85      0.00
   27    7   10    -12.61      0.00
   29    7   10      8.79      0.00
   31    7   10     -1.56      0.00
   33    7   10      9.06      0.00
   35    7   10     -5.55      0.00
   37    7   10     -8.63      0.00
   39    7   10    -11.41      0.00
   41    7   10     -3.60      0.00
   43    7   10      0.42      0.00
   45    7   10      8.72      0.00
   47    7   10     -4.86      0.00
   49    7   10     -1.00      0.00
   51    7   10    -22.81      0.00
   53    7   10      7.28      0.00
    0    8   10      5.59      0.00
    2    8   10      1.36      0.00
    4    8   10     -0.76      0.00
    6    8   10     -2.98      0.00
    8    8   10      3.51      0.00
   10    8   10     -0.13      0.00
   12    8   10     13.36      0.00
   14    8   10     -9.99      0.00
   16    8   10      1.55      0.00
   18    8   10    -16.75      0.00
   20    8   10      3.42      0.00
   22    8   10      1.96      0.00
   24    8   10      6.09      0.00
   26    8   10     11.35      0.00
   28    8   10      4.03      0.00
   30    8   10      5.07      0.00
   32    8   10      8.39      0.00
   34    8   10    -11.33      0.00
   36    8   10      8.21      0.00
   38    8   10    -14.65      0.00
   40    8   10      0.78      0.00
   42    8   10     -9.25      0.00
   44    8   10     -7.48      0.00
   46    8   10      4.24      0.00
   48    8   10      4.10      0.00
   50    8   10     13.82      0.00
   52    8   10     -0.36      0.00
    1    9   10    -18.81      0.00
    3    9   10     -2.53      0.00
    5    9   10     -8.96      0.00
    7    9   10      4.38      0.00
    9    9   10     -7.09      0.00
   11    9   10    -12.97      0.00
   13    9   10    -13.14      0.00
   15    9   10     -8.40      0.00
   17    9   10     -4.03      0.00
   19    9   10     15.51      0.00
   21    9   10      3.59      0.00
   23    9   10     30.26      0.00
   25    9   10      8.85      0.00
   27    9   10     40.42      0.00
   29    9   10     23.26      0.00
   31    9   10     32.60      0.00
   33    9   10     12.30      0.00
   35    9   10      5.33      0.00
   37    9   10     -6.94      0.00
   39    9   10      6.92      0.00
   41    9   10     -5.58      0.00
   43    9   10     13.47      0.00
   45    9   10      0.76      0.00
   47    9   10      5.07      0.00
   49    9   10     11.14      0.00
    0   10   10    -11.16      0.00
    2   10   10     -3.87      0.00
    4   10   10     -0.46      0.00
    6   10   10      7.40      0.00
    8   10   10      4.42      0.00
   10   10   10     11.16      0.00
   12   10   10     -2.64      0.00
   14   10   10      8.52      0.00
   16   10   10     -2.99      0.00
   18   10   10      4.66      0.00
   20   10   10     -4.58      0.00
   22   10   10     -3.15      0.00
   24   10   10    -14.34      0.00
   26   10   10     -4.42      0.00
   28   10   10      0.10      0.00
   30   10   10      7.01      0.00
   32   10   10      6.88      0.00
   34   10   10      6.23      0.00
   36   10   10      4.16      0.00
   38   10   10     11.00      0.00
   40   10   10     11.97      0.00
   42   10   10      6.77      0.00
   44   10   10     -0.08      0.00
   46   10   10      9.80      0.00
   48   10   10      0.62      0.00
    1   11   10      4.49      0.00
    3   11   10      7.33      0.00
    5   11   10      0.90      0.00
    7   11   10      9.65      0.00
    9   11   10      4.01      0.00
   11   11   10     11.64      0.00
   13   11   10      7.48      0.00
   15   11   10      2.27      0.00
   17   11   10      8.76      0.00
   19   11   10     -1.28      0.00
   21   11   10     10.12      0.00
   23   11   10      8.90      0.00
   25   11   10      4.40      0.00
   27   11   10      3.09      0.00
   29   11   10     -0.27      0.00
   31   11   10    -22.63      0.00
   33   11   10     -2.06      0.00
   35   11   10    -32.51      0.00
   37   11   10     -2.07      0.00
   39   11   10    -15.60      0.00
   41   11   10      0.07      0.00
   43   11   10     -2.51      0.00
   45   11   10      4.29      0.00
   47   11   10      4.77      0.00
    0   12   10      2.94      0.00
    2   12   10     -6.60      0.00
    4   12   10      0.93      0.00
    6   12   10     -0.69      0.00
    8   12   10     -1.01      0.00
   10   12   10     -1.84      0.00
   12   12   10     -3.94      0.00
   14   12   10     -8.55      0.00
   16   12   10     -4.70      0.00
   18   12   10     -0.92      0.00
   20   12   10      4.10      0.00
   22   12   10     -3.70      0.00
   24   12   10     -0.66      0.00
   26   12   10     -7.75      0.00
   28   12   10      4.79      0.00
   30   12   10      9.45      0.00
   32   12   10     10.05      0.00
   34   12   10     -0.16      0.00
   36   12   10      4.25      0.00
   38   12   10     -2.72      0.00
   40   12   10      6.22      0.00
   42   12   10      2.11      0.00
   44   12   10      4.14      0.00
   46   12   10     -2.40      0.00
    1   13   10     -4.60      0.00
    3   13   10     -8.93      0.00
    5   13   10      0.52      0.00
    7   13   10     -6.65      0.00
    9   13   10      1.86      0.00
   11   13   10     -0.26      0.00
   13   13   10     -1.18      0.00
   15   13   10     -0.09      0.00
   17   13   10     -3.31      0.00
   19   13   10     -2.37      0.00
   21   13   10      6.78      0.00
   23   13   10      0.95      0.00
   25   13   10     13.38      0.00
   27   13   10      2.67      0.00
   29   13   10      9.85      0.00
   31   13   10     10.07      0.00
   33   13   10     13.56      0.00
   35   13   10     15.85      0.00
   37   13   10      6.08      0.00
   39   13   10      3.79      0.00
   41   13   10     -7.71      0.00
   43   13   10      1.07      0.00
    0   14   10     -4.44      0.00
    2   14   10      5.87      0.00
    4   14   10      0.21      0.00
    6   14   10     -2.89      0.00
    8   14   10     -0.84      0.00
   10   14   10     -4.18      0.00
   12   14   10     -7.62      0.00
   14   14   10      1.61      0.00
   16   14   10     -2.82      0.00
   18   14   10      4.20      0.00
   20   14   10      5.28      0.00
   22   14   10      3.01      0.00
   24   14   10      0.87      0.00
   26   14   10      4.19      0.00
   28   14   10      3.85      0.00
   30   14   10      6.59      0.00
   32   14   10      3.83      0.00
   34   14   10     -0.97      0.00
   36   14   10      2.41      0.00
   38   14   10     -3.43      0.00
   40   14   10      2.39      0.00
   42   14   10     -0.71      0.00
    1   15   10     10.80      0.00
    3   15   10     10.44      0.00
    5   15   10      7.47      0.00
    7   15   10      1.49      0.00
    9   15   10      4.81      0.00
   11   15   10     -4.68      0.00
   13   15   10      7.68      0.00
   15   15   10      0.92      0.00
   17   15   10      6.64      0.00
   19   15   10      4.56      0.00
   21   15   10      0.42      0.00
   23   15   10      5.91      0.00
   25   15   10      2.43      0.00
   27   15   10      4.26      0.00
   29   15   10      0.70      0.00
   31   15   10      1.16      0.00
   33   15   10      0.23      0.00
   35   15   10      3.49      0.00
   37   15   10      1.97      0.00
   39   15   10     -1.46      0.00
    0   16   10      4.19      0.00
    2   16   10      0.19      0.00
    4   16   10      7.19      0.00
    6   16   10      8.70      0.00
    8   16   10      9.69      0.00
   10   16   10     10.94      0.00
   12   16   10     10.32      0.00
   14   16   10     13.66      0.00
   16   16   10      0.43      0.00
   18   16   10      9.93      0.00
   20   16   10    -11.21      0.00
   22   16   10      4.68      0.00
   24   16   10     -4.81      0.00
   26   16   10      5.11      0.00
   28   16   10      4.23      0.00
   30   16   10      0.09      0.00
   32   16   10     -1.30      0.00
   34   16   10      0.78      0.00
   36   16   10     -0.58      0.00
   38   16   10      8.57      0.00
    1   17   10      3.08      0.00
    3   17   10      5.41      0.00
    5   17   10     -2.16      0.00
    7   17   10      7.37      0.00
    9   17   10      4.16      0.00
   11   17   10     14.06      0.00
   13   17   10     18.25      0.00
   15   17   10     17.85      0.00
   17   17   10     26.01      0.00
   19   17   10      8.63      0.00
   21   17   10     15.35      0.00
   23   17   10     -3.39      0.00
   25   17   10      4.98      0.00
   27   17   10      2.20      0.00
   29   17   10      4.71      0.00
   31   17   10      4.06      0.00
   33   17   10      1.19      0.00
   35   17   10      1.36      0.00
    0   18   10      8.55      0.00
    2   18   10      3.84      0.00
    4   18   10      0.05      0.00
    6   18   10     -2.61      0.00
    8   18   10     -2.29      0.00
   10   18   10      3.98      0.00
   12   18   10      3.07      0.00
   14   18   10     -2.45      0.00
   16   18   10     -1.32      0.00
   18   18   10     -4.76      0.00
   20   18   10      4.58      0.00
   22   18   10      4.88      0.00
   24   18   10      7.08      0.00
   26   18   10     -0.48      0.00
   28   18   10      2.19      0.00
   30   18   10      0.33      0.00
    1   19   10      2.12      0.00
    3   19   10      4.27      0.00
    5   19   10      3.46      0.00
    7   19   10      7.82      0.00
    9   19   10      5.01      0.00
   11   19   10     13.37      0.00
   13   19   10     14.50      0.00
   15   19   10     17.06      0.00
   17   19   10     17.44      0.00
   19   19   10     11.39      0.00
   21   19   10     11.30      0.00
   23   19   10     21.06      0.00
   25   19   10     12.44      0.00
   27   19   10     32.40      0.00
    0   20   10    -17.07      0.00
    2   20   10     -1.52      0.00
    4   20   10     -0.35      0.00
    6   20   10      1.61      0.00
    8   20   10      0.63      0.00
   10   20   10     -8.96      0.00
   12   20   10      2.05      0.00
   14   20   10     18.88      0.00
   16   20   10     17.46      0.00
   18   20   10     22.40      0.00
   20   20   10      4.21      0.00
   22   20   10     -1.52      0.00
    1   21   10    -11.95      0.00
    3   21   10      1.75      0.00
    5   21   10     15.00      0.00
    7   21   10      9.21      0.00
    9   21   10     15.15      0.00
   11   21   10    -11.66      0.00
   13   21   10     17.11      0.00
   15   21   10     -4.80      0.00
    1    1   11    -30.96      0.00
    3    1   11    -24.92      0.00
    5    1   11     14.07      0.00
    7    1   11     -3.59      0.00
    9    1   11      4.82      0.00
   11    1   11    -21.91      0.00
   13    1   11    -15.29      0.00
   15    1   11    -11.38      0.00
   17    1   11     11.81      0.00
   19    1   11      5.73      0.00
   21    1   11     13.42      0.00
   23    1   11      4.46      0.00
   25    1   11      0.12      0.00
   27    1   11      2.84      0.00
   29    1   11     -2.94      0.00
   31    1   11      2.06      0.00
   33    1   11      1.09      0.00
   35    1   11      4.06      0.00
   37    1   11      0.55      0.00
   39    1   11      0.00      0.00
   41    1   11     -3.73      0.00
   43    1   11     -2.05      0.00
   45    1   11     -2.07      0.00
   47    1   11     -8.30      0.00
   49    1   11      1.24      0.00
   51    1   11     -4.33      0.00
   53    1   11      6.58      0.00
   55    1   11      6.65      0.00
    0    2   11     16.61      0.00
    2    2   11     29.22      0.00
    4    2   11     11.53      0.00
    6    2   11     15.32      0.00
    8    2   11      4.70      0.00
   10    2   11     18.20      0.00
   12    2   11    -16.00      0.00
   14    2   11     13.24      0.00
   16    2   11    -26.29      0.00
   18    2   11     10.34      0.00
   20    2   11      0.80      0.00
   22    2   11      8.61      0.00
   24    2   11      4.45      0.00
   26    2   11     -7.00      0.00
   28    2   11     -6.86      0.00
   30    2   11      1.78      0.00
   32    2   11     -2.43      0.00
   34    2   11     12.56      0.00
   36    2   11    -12.43      0.00
   38    2   11      6.29      0.00
   40    2   11     -5.81      0.00
   42    2   11      5.11      0.00
   44    2   11      5.39      0.00
   46    2   11     -8.84      0.00
   48    2   11     -1.89      0.00
   50    2   11     -9.46      0.00
   52    2   11      1.79      0.00
   54    2   11      0.63      0.00
    1    3   11     10.51      0.00
    3    3   11      7.43      0.00
    5    3   11     24.80      0.00
    7    3   11      6.22      0.00
    9    3   11     18.02      0.00
   11    3   11     -8.99      0.00
   13    3   11     11.17      0.00
   15    3   11     -1.30      0.00
   17    3   11      5.12      0.00
   19    3   11     -4.58      0.00
   21    3   11     -1.64      0.00
   23    3   11    -13.03      0.00
   25    3   11      8.84      0.00
   27    3   11      0.36      0.00
   29    3   11      1.11      0.00
   31    3   11      0.87      0.00
   33    3   11     -6.39      0.00
   35    3   11      0.47      0.00
   37    3   11      2.83      0.00
   39    3   11      2.13      0.00
   41    3   11      7.42      0.00
   43    3   11     -4.56      0.00
   45    3   11      6.04      0.00
   47    3   11     -0.40      0.00
   49    3   11      3.55      0.00
   51    3   11     10.25      0.00
   53    3   11      7.03      0.00
    0    4   11      0.53      0.00
    2    4   11     -6.37      0.00
    4    4   11      3.71      0.00
    6    4   11      1.05      0.00
    8    4   11     -3.32      0.00
   10    4   11    -10.11      0.00
   12    4   11    -12.13      0.00
   14    4   11    -17.99      0.00
   16    4   11     -0.91      0.00
   18    4   11     -7.03      0.00
   20    4   11      4.01      0.00
   22    4   11      1.89      0.00
   24    4   11     -2.97      0.00
   26    4   11      9.24      0.00
   28    4   11      4.87      0.00
   30    4   11     14.84      0.00
   32    4   11     16.36      0.00
   34    4   11     -3.69      0.00
   36    4   11     10.57      0.00
   38    4   11    -16.31      0.00
   40    4   11     10.70      0.00
   42    4   11      0.79      0.00
   44    4   11      6.03      0.00
   46    4   11      2.55      0.00
   48    4   11      2.79      0.00
   50    4   11      4.86      0.00
   52    4   11     21.62      0.00
   54    4   11      5.85      0.00
    1    5   11    -14.01      0.00
    3    5   11     -7.55      0.00
    5    5   11    -13.24      0.00
    7    5   11     -9.84      0.00
    9    5   11      0.77      0.00
   11    5   11    -10.70      0.00
   13    5   11     11.42      0.00
   15    5   11      2.50      0.00
   17    5   11      6.54      0.00
   19    5   11      6.82      0.00
   21    5   11    -16.72      0.00
   23    5   11      2.58      0.00
   25    5   11     -7.57      0.00
   27    5   11      4.37      0.00
   29    5   11     10.81      0.00
   31    5   11     -1.92      0.00
   33    5   11     -0.42      0.00
   35    5   11     10.01      0.00
   37    5   11     -0.78      0.00
   39    5   11     16.32      0.00
   41    5   11     -4.67      0.00
   43    5   11     -6.96      0.00
   45    5   11     -5.20      0.00
   47    5   11     -5.58      0.00
   49    5   11     -2.63      0.00
   51    5   11     -8.08      0.00
   53    5   11    -26.81      0.00
    0    6   11     27.35      0.00
    2    6   11      9.93      0.00
    4    6   11     10.10      0.00
    6    6   11     -2.97      0.00
    8    6   11     -4.26      0.00
   10    6   11     10.63      0.00
   12    6   11      5.44      0.00
   14    6   11     16.77      0.00
   16    6   11     10.99      0.00
   18    6   11      1.75      0.00
   20    6   11      6.72      0.00
   22    6   11     -0.17      0.00
   24    6   11      9.29      0.00
   26    6   11      6.14      0.00
   28    6   11     11.59      0.00
   30    6   11      2.67      0.00
   32    6   11      3.63      0.00
   34    6   11     -3.82      0.00
   36    6   11     -1.94      0.00
   38    6   11     -8.22      0.00
   40    6   11      2.85      0.00
   42    6   11     -4.07      0.00
   44    6   11     -1.83      0.00
   46    6   11      1.39      0.00
   48    6   11      5.11      0.00
   50    6   11     14.09      0.00
   52    6   11     28.26      0.00
    1    7   11     -3.56      0.00
    3    7   11      1.29      0.00
    5    7   11      3.72      0.00
    7    7   11      8.27      0.00
    9    7   11    -14.12      0.00
   11    7   11    -10.68      0.00
   13    7   11     -7.40      0.00
   15    7   11     -8.66      0.00
   17    7   11     17.42      0.00
   19    7   11     -0.59      0.00
   21    7   11     -6.68      0.00
   25    7   11    -18.82      0.00
   27    7   11     -2.56      0.00
   29    7   11     -6.27      0.00
   31    7   11      2.65      0.00
   33    7   11     -5.66      0.00
   35    7   11      5.15      0.00
   37    7   11      3.87      0.00
   39    7   11      2.40      0.00
   41    7   11     -0.72      0.00
   43    7   11     -5.76      0.00
   45    7   11     -6.07      0.00
   47    7   11     -3.11      0.00
   49    7   11      4.27      0.00
   51    7   11     -6.77      0.00
    0    8   11     -0.92      0.00
    2    8   11     -5.57      0.00
    4    8   11    -19.40      0.00
    6    8   11    -20.19      0.00
    8    8   11    -12.68      0.00
   10    8   11     14.08      0.00
   12    8   11     13.78      0.00
   14    8   11     21.87      0.00
   16    8   11     -2.83      0.00
   18    8   11    -11.69      0.00
   20    8   11     -9.74      0.00
   22    8   11    -14.31      0.00
   24    8   11      5.98      0.00
   26    8   11     -9.17      0.00
   28    8   11     -1.44      0.00
   30    8   11    -13.35      0.00
   32    8   11      0.00      0.00
   34    8   11      0.63      0.00
   36    8   11      7.78      0.00
   38    8   11      2.30      0.00
   40    8   11      1.28      0.00
   42    8   11    -11.20      0.00
   44    8   11      2.57      0.00
   46    8   11    -23.79      0.00
   48    8   11      7.68      0.00
   50    8   11    -13.62      0.00
    1    9   11     -6.70      0.00
    3    9   11     -0.58      0.00
    5    9   11      0.73      0.00
    7    9   11      2.41      0.00
    9    9   11      2.27      0.00
   11    9   11      0.23      0.00
   13    9   11      1.64      0.00
   15    9   11     13.03      0.00
   17    9   11      9.74      0.00
   19    9   11     12.79      0.00
   21    9   11     12.54      0.00
   23    9   11     -0.43      0.00
   25    9   11      1.31      0.00
   27    9   11      0.03      0.00
   29    9   11     -7.88      0.00
   31    9   11      4.45      0.00
   33    9   11     -3.62      0.00
   35    9   11      1.14      0.00
   37    9   11     -0.42      0.00
   39    9   11     -4.55      0.00
   41    9   11      9.42      0.00
   43    9   11     -1.87      0.00
   45    9   11     14.77      0.00
   47    9   11     -0.80      0.00
   49    9   11     -2.40      0.00
    0   10   11      5.76      0.00
    2   10   11     10.65      0.00
    4   10   11      3.20      0.00
    6   10   11     -7.22      0.00
    8   10   11      6.54      0.00
   10   10   11     -3.01      0.00
   12   10   11     12.24      0.00
   14   10   11      5.86      0.00
   16   10   11      2.69      0.00
   18   10   11      6.58      0.00
   20   10   11    -11.82      0.00
   22   10   11      6.52      0.00
   24   10   11    -14.48      0.00
   26   10   11     -8.87      0.00
   28   10   11     -6.35      0.00
   30   10   11    -10.57      0.00
   32   10   11     10.56      0.00
   34   10   11     10.59      0.00
   36   10   11      1.95      0.00
   38   10   11      5.53      0.00
   40   10   11    -14.08      0.00
   42   10   11     -0.16      0.00
   44   10   11    -10.62      0.00
   46   10   11     -2.58      0.00
   48   10   11    -11.96      0.00
    1   11   11      7.40      0.00
    3   11   11      0.60      0.00
    5   11   11      8.48      0.00
    7   11   11     -2.70      0.00
    9   11   11     -0.40      0.00
   11   11   11     -2.15      0.00
   13   11   11     -2.23      0.00
   15   11   11     -1.02      0.00
   17   11   11     -3.19      0.00
   19   11   11      0.58      0.00
   21   11   11     -2.97      0.00
   23   11   11     11.14      0.00
   25   11   11      5.31      0.00
   27   11   11      8.19      0.00
   29   11   11     -0.71      0.00
   31   11   11     -2.04      0.00
   33   11   11     -3.04      0.00
   35   11   11      4.61      0.00
   37   11   11      4.16      0.00
   39   11   11      7.31      0.00
   41   11   11      1.05      0.00
   43   11   11      3.09      0.00
   45   11   11      4.04      0.00
   47   11   11      3.11      0.00
    0   12   11     -9.67      0.00
    2   12   11    -12.82      0.00
    4   12   11     -8.52      0.00
    6   12   11     -7.14      0.00
    8   12   11    -12.93      0.00
   10   12   11    -14.26      0.00
   12   12   11    -10.47      0.00
   14   12   11    -11.45      0.00
   16   12   11      0.69      0.00
   18   12   11     -5.26      0.00
   20   12   11     -7.09      0.00
   22   12   11     -7.78      0.00
   24   12   11    -13.01      0.00
   26   12   11     -7.46      0.00
   28   12   11     -5.18      0.00
   30   12   11     -7.35      0.00
   32   12   11     -4.71      0.00
   34   12   11     -3.12      0.00
   36   12   11    -12.19      0.00
   38   12   11      2.33      0.00
   40   12   11    -12.30      0.00
   42   12   11     -0.09      0.00
   44   12   11    -13.25      0.00
   46   12   11     -8.41      0.00
    1   13   11     -6.92      0.00
    3   13   11     -1.58      0.00
    5   13   11     -4.96      0.00
    7   13   11     -0.28      0.00
    9   13   11     -1.01      0.00
   11   13   11     -1.23      0.00
   13   13   11     -0.52      0.00
   15   13   11      1.55      0.00
   17   13   11     -1.23      0.00
   19   13   11     -2.41      0.00
   21   13   11      7.63      0.00
   23   13   11     -1.61      0.00
   25   13   11     21.73      0.00
   27   13   11     -0.83      0.00
   29   13   11     12.30      0.00
   31   13   11     -1.12      0.00
   33   13   11      2.78      0.00
   35   13   11      5.92      0.00
   37   13   11      8.10      0.00
   39   13   11      3.98      0.00
   41   13   11      7.84      0.00
   43   13   11      0.41      0.00
    0   14   11     10.49      0.00
    2   14   11    -12.16      0.00
    4   14   11      6.54      0.00
    6   14   11    -11.66      0.00
    8   14   11      0.39      0.00
   10   14   11     -8.41      0.00
   12   14   11     -9.70      0.00
   14   14   11    -12.33      0.00
   16   14   11    -13.48      0.00
   18   14   11    -11.77      0.00
   20   14   11     -4.97      0.00
   22   14   11     -7.94      0.00
   24   14   11     -2.03      0.00
   26   14   11     -1.57      0.00
   28   14   11      2.31      0.00
   30   14   11      7.40      0.00
   32   14   11      8.81      0.00
   34   14   11      0.28      0.00
   36   14   11     10.04      0.00
   38   14   11     -1.16      0.00
   40   14   11     11.58      0.00
   42   14   11      3.46      0.00
    1   15   11      8.65      0.00
    3   15   11      7.59      0.00
    5   15   11      4.89      0.00
    7   15   11      3.73      0.00
    9   15   11      8.47      0.00
   11   15   11     -3.13      0.00
   13   15   11      5.95      0.00
   15   15   11     -8.70      0.00
   17   15   11      3.80      0.00
   19   15   11     -3.56      0.00
   21   15   11      2.78      0.00
   23   15   11     -0.36      0.00
   25   15   11     -3.08      0.00
   27   15   11      0.57      0.00
   29   15   11      0.79      0.00
   31   15   11      4.40      0.00
   33   15   11      9.69      0.00
   35   15   11      2.49      0.00
   37   15   11      1.06      0.00
   39   15   11     -3.65      0.00
    0   16   11     -8.04      0.00
    2   16   11     -1.51      0.00
    4   16   11     -0.22      0.00
    6   16   11      2.10      0.00
    8   16   11      4.84      0.00
   10   16   11     -1.32      0.00
   12   16   11     -5.55      0.00
   14   16   11     -7.38      0.00
   16   16   11    -16.03      0.00
   18   16   11     -9.18      0.00
   20   16   11    -14.40      0.00
   22   16   11     -7.22      0.00
   24   16   11     -8.46      0.00
   26   16   11     -8.94      0.00
   28   16   11     -4.10      0.00
   30   16   11     -8.96      0.00
   32   16   11      1.20      0.00
   34   16   11     -7.01      0.00
   36   16   11      1.56      0.00
    1   17   11      4.93      0.00
    3   17   11     -0.05      0.00
    5   17   11      9.48      0.00
    7   17   11      0.97      0.00
    9   17   11      4.69      0.00
   11   17   11      0.31      0.00
   13   17   11      4.07      0.00
   15   17   11      5.24      0.00
   17   17   11     12.50      0.00
   19   17   11      2.64      0.00
   21   17   11     -1.01      0.00
   23   17   11     -7.82      0.00
   25   17   11     -5.30      0.00
   27   17   11     -5.35      0.00
   29   17   11      2.75      0.00
   31   17   11     -2.95      0.00
   33   17   11      4.33      0.00
    0   18   11     -3.11      0.00
    2   18   11     -0.56      0.00
    4   18   11      3.13      0.00
    6   18   11      7.19      0.00
    8   18   11      6.76      0.00
   10   18   11      0.46      0.00
   12   18   11     -0.66      0.00
   14   18   11    -10.18      0.00
   16   18   11     -5.31      0.00
   18   18   11     -4.16      0.00
   20   18   11     -3.35      0.00
   22   18   11      6.94      0.00
   24   18   11     -6.03      0.00
   26   18   11     -2.64      0.00
   28   18   11     -8.36      0.00
   30   18   11    -12.08      0.00
    1   19   11     10.63      0.00
    3   19   11      9.11      0.00
    5   19   11      2.26      0.00
    7   19   11      3.01      0.00
    9   19   11      4.88      0.00
   11   19   11     -0.66      0.00
   13   19   11      3.57      0.00
   15   19   11      5.28      0.00
   17   19   11      9.45      0.00
   19   19   11     15.50      0.00
   21   19   11      8.26      0.00
   23   19   11     11.67      0.00
   25   19   11      8.23      0.00
    0   20   11     12.64      0.00
    2   20   11      9.73      0.00
    4   20   11      0.23      0.00
    6   20   11      0.35      0.00
    8   20   11      2.06      0.00
   10   20   11      8.66      0.00
   12   20   11      4.92      0.00
   14   20   11      2.75      0.00
   16   20   11     -3.16      0.00
   18   20   11     10.71      0.00
   20   20   11      3.67      0.00
    1   21   11     18.63      0.00
    3   21   11      5.72      0.00
    5   21   11     -2.30      0.00
    7   21   11     -0.84      0.00
    9   21   11     22.95      0.00
   11   21   11      7.59      0.00
    0    0   12     29.08      0.00
    2    0   12     14.54      0.00
    4    0   12     -5.10      0.00
    6    0   12    -11.69      0.00
    8    0   12    -30.33      0.00
   10    0   12     10.37      0.00
   12    0   12     -6.79      0.00
   14    0   12      9.49      0.00
   16    0   12     -8.97      0.00
   18    0   12    -18.82      0.00
   20    0   12    -18.01      0.00
   22    0   12     -8.74      0.00
   24    0   12      0.98      0.00
   26    0   12      6.10      0.00
   28    0   12      3.48      0.00
   30    0   12     -0.77      0.00
   32    0   12    -13.67      0.00
   34    0   12     -6.35      0.00
   36    0   12     -8.01      0.00
   38    0   12     -0.64      0.00
   40    0   12     -1.48      0.00
   42    0   12     -2.75      0.00
   44    0   12      2.10      0.00
   46    0   12      2.59      0.00
   48    0   12      7.10      0.00
   50    0   12      4.24      0.00
   52    0   12    -11.78      0.00
   54    0   12     -6.48      0.00
    1    1   12    -27.66      0.00
    3    1   12    -22.17      0.00
    5    1   12     -9.75      0.00
    7    1   12    -17.54      0.00
    9    1   12      7.14      0.00
   11    1   12    -17.45      0.00
   13    1   12      4.98      0.00
   15    1   12     -4.01      0.00
   17    1   12     -7.87      0.00
   19    1   12     -0.33      0.00
   21    1   12    -16.39      0.00
   23    1   12     -3.72      0.00
   25    1   12     -3.96      0.00
   27    1   12     -5.17      0.00
   29    1   12      6.15      0.00
   31    1   12    -12.54      0.00
   33    1   12      3.26      0.00
   35    1   12     -5.75      0.00
   37    1   12     -2.29      0.00
   39    1   12      2.18      0.00
   41    1   12     -9.42      0.00
   43    1   12      2.56      0.00
   45    1   12     -1.62      0.00
   47    1   12      9.66      0.00
   49    1   12      4.06      0.00
   51    1   12     10.07      0.00
   53    1   12     -2.52      0.00
    0    2   12     28.21      0.00
    2    2   12    -17.60      0.00
    4    2   12     -2.24      0.00
    6    2   12    -36.03      0.00
    8    2   12     -7.29      0.00
   10    2   12     -9.77      0.00
   12    2   12     17.12      0.00
   14    2   12     -7.89      0.00
   16    2   12      3.78      0.00
   18    2   12    -26.80      0.00
   20    2   12      3.37      0.00
   22    2   12    -18.71      0.00
   24    2   12      1.95      0.00
   26    2   12    -16.91      0.00
   28    2   12     -7.39      0.00
   30    2   12    -17.64      0.00
   32    2   12      0.63      0.00
   34    2   12     -7.99      0.00
   36    2   12      3.65      0.00
   38    2   12     -4.58      0.00
   40    2   12     -1.66      0.00
   42    2   12    -10.36      0.00
   44    2   12      0.16      0.00
   46    2   12     -5.71      0.00
   48    2   12      3.51      0.00
   50    2   12     -4.74      0.00
   52    2   12     -5.33      0.00
   54    2   12     -9.61      0.00
    1    3   12     19.66      0.00
    3    3   12     24.45      0.00
    5    3   12     22.86      0.00
    7    3   12     27.49      0.00
    9    3   12     14.11      0.00
   11    3   12     18.56      0.00
   13    3   12      6.82      0.00
   15    3   12     10.90      0.00
   17    3   12      3.20      0.00
   19    3   12     -0.26      0.00
   21    3   12      5.79      0.00
   23    3   12      1.09      0.00
   25    3   12     19.67      0.00
   27    3   12      7.01      0.00
   29    3   12     10.52      0.00
   31    3   12      3.25      0.00
   33    3   12      3.10      0.00
   35    3   12      9.34      0.00
   37    3   12      9.26      0.00
   39    3   12      2.36      0.00
   41    3   12     -4.38      0.00
   43    3   12     -4.97      0.00
   45    3   12     -8.47      0.00
   47    3   12      5.18      0.00
   49    3   12     -4.04      0.00
   51    3   12      6.09      0.00
   53    3   12     -1.87      0.00
    0    4   12     -1.20      0.00
    2    4   12     -8.72      0.00
    4    4   12     -4.44      0.00
    6    4   12    -17.15      0.00
    8    4   12     -3.57      0.00
   10    4   12     -7.16      0.00
   12    4   12    -10.54      0.00
   14    4   12     -5.16      0.00
   16    4   12    -11.65      0.00
   18    4   12     -4.76      0.00
   20    4   12     15.27      0.00
   22    4   12      1.76      0.00
   24    4   12     13.32      0.00
   26    4   12     -6.48      0.00
   28    4   12     -9.46      0.00
   30    4   12     -4.20      0.00
   32    4   12     -8.12      0.00
   34    4   12      4.46      0.00
   36    4   12     -6.47      0.00
   38    4   12     -1.53      0.00
   40    4   12      0.57      0.00
   42    4   12      4.23      0.00
   44    4   12      1.64      0.00
   46    4   12      5.61      0.00
   48    4   12    -18.89      0.00
   50    4   12     -6.51      0.00
   52    4   12    -18.79      0.00
    1    5   12     -8.52      0.00
    3    5   12    -13.12      0.00
    5    5   12      3.73      0.00
    7    5   12    -10.23      0.00
    9    5   12      7.63      0.00
   11    5   12     -5.17      0.00
   13    5   12      2.27      0.00
   15    5   12     -3.08      0.00
   17    5   12      6.35      0.00
   19    5   12     -3.92      0.00
   21    5   12     16.45      0.00
   23    5   12      1.94      0.00
   25    5   12      8.50      0.00
   27    5   12      3.85      0.00
   29    5   12     -9.20      0.00
   31    5   12      1.36      0.00
   33    5   12     -7.99      0.00
   35    5   12      3.58      0.00
   37    5   12     -0.65      0.00
   39    5   12     -7.41      0.00
   41    5   12      2.72      0.00
   43    5   12     -5.54      0.00
   45    5   12      8.37      0.00
   47    5   12     17.99      0.00
   49    5   12     -5.58      0.00
   51    5   12     23.98      0.00
   53    5   12     -9.04      0.00
    0    6   12    -17.11      0.00
    2    6   12     -9.02      0.00
    4    6   12    -21.56      0.00
    6    6   12    -13.46      0.00
    8    6   12     -9.70      0.00
   10    6   12     -8.82      0.00
   12    6   12      5.82      0.00
   14    6   12    -10.25      0.00
   16    6   12     -5.06      0.00
   18    6   12      0.54      0.00
   20    6   12     -5.55      0.00
   22    6   12     10.69      0.00
   24    6   12      6.92      0.00
   26    6   12     -1.73      0.00
   28    6   12     -0.28      0.00
   30    6   12      6.01      0.00
   32    6   12     -2.44      0.00
   34    6   12     13.63      0.00
   36    6   12     -8.39      0.00
   38    6   12     -1.83      0.00
   40    6   12     -7.28      0.00
   42    6   12     10.22      0.00
   44    6   12      3.48      0.00
   46    6   12      7.08      0.00
   48    6   12     -8.72      0.00
   50    6   12      3.66      0.00
   52    6   12     -0.29      0.00
    1    7   12    -15.14      0.00
    3    7   12     -5.80      0.00
    5    7   12     20.07      0.00
    7    7   12      9.39      0.00
    9    7   12     10.49      0.00
   11    7   12    -12.32      0.00
   13    7   12    -13.94      0.00
   15    7   12     -2.37      0.00
   17    7   12      2.88      0.00
   19    7   12     13.43      0.00
   21    7   12      6.69      0.00
   23    7   12     -1.14      0.00
   25    7   12      5.00      0.00
   27    7   12     -1.10      0.00
   29    7   12     16.62      0.00
   31    7   12     -1.36      0.00
   33    7   12      8.55      0.00
   35    7   12     -8.40      0.00
   37    7   12     -1.78      0.00
   39    7   12     -6.28      0.00
   41    7   12     -4.22      0.00
   43    7   12     -3.95      0.00
   45    7   12      7.01      0.00
   47    7   12     -2.91      0.00
   49    7   12     10.59      0.00
   51    7   12    -19.36      0.00
    0    8   12     16.31      0.00
    2    8   12     16.92      0.00
    4    8   12      2.68      0.00
    6    8   12      2.64      0.00
    8    8   12      8.25      0.00
   10    8   12      9.01      0.00
   12    8   12     21.99      0.00
   14    8   12      2.08      0.00
   16    8   12      3.53      0.00
   18    8   12    -10.42      0.00
   20    8   12     -5.38      0.00
   22    8   12      5.24      0.00
   24    8   12      4.02      0.00
   26    8   12     13.55      0.00
   28    8   12     -5.06      0.00
   30    8   12     -5.91      0.00
   32    8   12     -8.12      0.00
   34    8   12    -12.42      0.00
   36    8   12      0.22      0.00
   38    8   12    -11.11      0.00
   40    8   12     -0.03      0.00
   42    8   12     -3.15      0.00
   44    8   12     -2.45      0.00
   46    8   12     -1.62      0.00
   48    8   12     -2.24      0.00
   50    8   12     -1.68      0.00
    1    9   12    -22.80      0.00
    3    9   12     -5.80      0.00
    5    9   12      1.80      0.00
    7    9   12      6.02      0.00
    9    9   12     -8.12      0.00
   11    9   12    -19.72      0.00
   13    9   12    -24.82      0.00
   15    9   12     -8.31      0.00
   17    9   12     -8.44      0.00
   19    9   12     12.88      0.00
   21    9   12     -6.15      0.00
   23    9   12     19.56      0.00
   25    9   12      1.51      0.00
   27    9   12     37.68      0.00
   29    9   12      8.20      0.00
   31    9   12     18.72      0.00
   33    9   12    -17.81      0.00
   35    9   12    -11.88      0.00
   37    9   12    -22.42      0.00
   39    9   12     -8.27      0.00
   41    9   12    -17.76      0.00
   43    9   12     -2.19      0.00
   45    9   12     -7.62      0.00
   47    9   12      8.74      0.00
   49    9   12     11.67      0.00
    0   10   12      1.39      0.00
    2   10   12      6.07      0.00
    4   10   12     -6.22      0.00
    6   10   12      5.01      0.00
    8   10   12      0.29      0.00
   10   10   12     21.66      0.00
   12   10   12      6.25      0.00
   14   10   12     15.77      0.00
   16   10   12     -4.67      0.00
   18   10   12      0.52      0.00
   20   10   12     -8.00      0.00
   22   10   12      3.17      0.00
   24   10   12     -1.54      0.00
   26   10   12      9.49      0.00
   28   10   12      8.01      0.00
   30   10   12     10.25      0.00
   32   10   12     21.76      0.00
   34   10   12      9.90      0.00
   36   10   12     18.03      0.00
   38   10   12     -3.00      0.00
   40   10   12      6.16      0.00
   42   10   12     -5.20      0.00
   44   10   12     -0.05      0.00
   46   10   12     -1.42      0.00
   48   10   12     -5.85      0.00
    1   11   12      1.05      0.00
    3   11   12      8.98      0.00
    5   11   12      1.90      0.00
    7   11   12     16.09      0.00
    9   11   12     13.14      0.00
   11   11   12     16.67      0.00
   13   11   12     16.70      0.00
   15   11   12      5.74      0.00
   17   11   12     14.49      0.00
   19   11   12      1.39      0.00
   21   11   12      9.59      0.00
   23   11   12      6.52      0.00
   25   11   12      0.26      0.00
   27   11   12      5.51      0.00
   29   11   12      2.34      0.00
   31   11   12    -19.69      0.00
   33   11   12     -2.20      0.00
   35   11   12    -35.90      0.00
   37   11   12     -7.72      0.00
   39   11   12    -20.67      0.00
   41   11   12     -4.50      0.00
   43   11   12     -5.90      0.00
   45   11   12      8.84      0.00
    0   12   12      4.80      0.00
    2   12   12     -0.68      0.00
    4   12   12     -0.30      0.00
    6   12   12      0.02      0.00
    8   12   12     -2.81      0.00
   10   12   12      2.33      0.00
   12   12   12     -2.09      0.00
   14   12   12      0.91      0.00
   16   12   12      1.32      0.00
   18   12   12      2.56      0.00
   20   12   12      4.63      0.00
   22   12   12     -4.64      0.00
   24   12   12      0.42      0.00
   26   12   12    -10.51      0.00
   28   12   12     -3.44      0.00
   30   12   12     -1.43      0.00
   32   12   12      3.04      0.00
   34   12   12     -3.29      0.00
   36   12   12     -0.62      0.00
   38   12   12    -12.83      0.00
   40   12   12     -0.57      0.00
   42   12   12      2.59      0.00
   44   12   12     10.02      0.00
    1   13   12     -3.40      0.00
    3   13   12     -8.85      0.00
    5   13   12     -5.15      0.00
    7   13   12     -8.65      0.00
    9   13   12     -6.91      0.00
   11   13   12     -2.15      0.00
   13   13   12     -7.67      0.00
   15   13   12     -8.34      0.00
   17   13   12    -10.65      0.00
   19   13   12    -12.78      0.00
   21   13   12     -3.23      0.00
   23   13   12     -9.02      0.00
   25   13   12      3.45      0.00
   27   13   12     -5.25      0.00
   29   13   12      4.01      0.00
   31   13   12      2.95      0.00
   33   13   12      7.06      0.00
   35   13   12      9.77      0.00
   37   13   12      7.52      0.00
   39   13   12      5.48      0.00
   41   13   12     -4.63      0.00
   43   13   12      0.85      0.00
    0   14   12    -12.46      0.00
    2   14   12     -9.27      0.00
    4   14   12     -8.84      0.00
    6   14   12    -14.58      0.00
    8   14   12     -4.41      0.00
   10   14   12     -8.65      0.00
   12   14   12     -3.00      0.00
   14   14   12      1.81      0.00
   16   14   12     -3.71      0.00
   18   14   12     -1.02      0.00
   20   14   12     -4.76      0.00
   22   14   12      0.28      0.00
   24   14   12     -2.04      0.00
   26   14   12      6.46      0.00
   28   14   12      0.18      0.00
   30   14   12      3.12      0.00
   32   14   12      2.96      0.00
   34   14   12     -1.31      0.00
   36   14   12      7.18      0.00
   38   14   12     -3.41      0.00
   40   14   12      7.60      0.00
    1   15   12     -3.67      0.00
    3   15   12     -2.56      0.00
    5   15   12     -2.23      0.00
    7   15   12    -10.15      0.00
    9   15   12     -5.38      0.00
   11   15   12    -15.44      0.00
   13   15   12     -8.19      0.00
   15   15   12     -8.30      0.00
   17   15   12     -8.53      0.00
   19   15   12     -6.04      0.00
   21   15   12     -4.70      0.00
   23   15   12     -3.70      0.00
   25   15   12      4.42      0.00
   27   15   12      1.04      0.00
   29   15   12      2.28      0.00
   31   15   12     -0.37      0.00
   33   15   12     -4.48      0.00
   35   15   12      1.26      0.00
   37   15   12      1.07      0.00
    0   16   12      6.60      0.00
    2   16   12     -4.51      0.00
    4   16   12      2.09      0.00
    6   16   12     -0.68      0.00
    8   16   12     -5.38      0.00
   10   16   12     -1.17      0.00
   12   16   12     -8.45      0.00
   14   16   12     -5.67      0.00
   16   16   12    -22.86      0.00
   18   16   12     -7.28      0.00
   20   16   12    -25.75      0.00
   22   16   12      2.95      0.00
   24   16   12    -11.38      0.00
   26   16   12      0.05      0.00
   28   16   12     -5.22      0.00
   30   16   12     -7.80      0.00
   32   16   12     -6.59      0.00
   34   16   12     -4.92      0.00
   36   16   12     -5.90      0.00
    1   17   12      2.66      0.00
    3   17   12      2.66      0.00
    5   17   12     -7.78      0.00
    7   17   12      3.35      0.00
    9   17   12      3.07      0.00
   11   17   12      8.81      0.00
   13   17   12     14.20      0.00
   15   17   12     -2.94      0.00
   17   17   12      7.04      0.00
   19   17   12    -13.97      0.00
   21   17   12     -3.67      0.00
   23   17   12    -16.05      0.00
   25   17   12    -10.33      0.00
   27   17   12     -6.96      0.00
   29   17   12     -2.71      0.00
   31   17   12      0.43      0.00
   33   17   12      4.38      0.00
    0   18   12     -2.34      0.00
    2   18   12     -1.31      0.00
    4   18   12     -1.78      0.00
    6   18   12     -0.76      0.00
    8   18   12      0.12      0.00
   10   18   12      8.73      0.00
   12   18   12      2.60      0.00
   14   18   12      5.00      0.00
   16   18   12    -11.16      0.00
   18   18   12     -4.31      0.00
   20   18   12     -1.87      0.00
   22   18   12      9.16      0.00
   24   18   12      8.72      0.00
   26   18   12      1.51      0.00
   28   18   12     -4.13      0.00
    1   19   12      2.75      0.00
    3   19   12      2.84      0.00
    5   19   12      2.19      0.00
    7   19   12      0.66      0.00
    9   19   12     -8.43      0.00
   11   19   12      2.39      0.00
   13   19   12      0.13      0.00
   15   19   12     11.12      0.00
   17   19   12      8.92      0.00
   19   19   12     -0.50      0.00
   21   19   12     -5.92      0.00
   23   19   12     -0.30      0.00
    0   20   12    -19.06      0.00
    2   20   12     -1.68      0.00
    4   20   12      2.32      0.00
    6   20   12      9.46      0.00
    8   20   12      6.70      0.00
   10   20   12      3.92      0.00
   12   20   12      4.83      0.00
   14   20   12     21.69      0.00
   16   20   12      8.89      0.00
   18   20   12     17.25      0.00
    1   21   12    -15.89      0.00
    3   21   12     -8.88      0.00
    5   21   12     -5.44      0.00
    7   21   12     -7.48      0.00
    9   21   12     -3.78      0.00
    1    1   13    -46.86      0.00
    3    1   13    -37.59      0.00
    5    1   13     -4.87      0.00
    7    1   13    -17.32      0.00
    9    1   13    -12.23      0.00
   11    1   13    -27.51      0.00
   13    1   13    -24.07      0.00
   15    1   13    -10.48      0.00
   17    1   13      0.53      0.00
   19    1   13      2.05      0.00
   21    1   13      0.37      0.00
   23    1   13     -8.64      0.00
   25    1   13    -19.34      0.00
   27    1   13     -9.46      0.00
   29    1   13    -17.32      0.00
   31    1   13      1.64      0.00
   33    1   13    -15.61      0.00
   35    1   13     -5.53      0.00
   37    1   13    -17.84      0.00
   39    1   13     -3.52      0.00
   41    1   13     -5.13      0.00
   43    1   13      2.26      0.00
   45    1   13     -8.58      0.00
   47    1   13    -11.84      0.00
   49    1   13     -9.88      0.00
   51    1   13     -5.84      0.00
   53    1   13      2.79      0.00
    0    2   13    -19.27      0.00
    2    2   13      3.01      0.00
    4    2   13    -20.55      0.00
    6    2   13     -6.92      0.00
    8    2   13    -21.17      0.00
   10    2   13      0.17      0.00
   12    2   13    -23.48      0.00
   14    2   13      7.99      0.00
   16    2   13    -20.41      0.00
   18    2   13      7.88      0.00
   20    2   13     -5.25      0.00
   22    2   13      0.24      0.00
   24    2   13      1.22      0.00
   26    2   13     -5.53      0.00
   28    2   13     -1.43      0.00
   30    2   13      4.12      0.00
   32    2   13     -7.57      0.00
   34    2   13      3.63      0.00
   36    2   13    -11.19      0.00
   38    2   13     -0.26      0.00
   40    2   13     -2.59      0.00
   42    2   13     -1.93      0.00
   44    2   13     -3.96      0.00
   46    2   13    -11.02      0.00
   48    2   13    -11.59      0.00
   50    2   13    -11.05      0.00
   52    2   13    -10.71      0.00
    1    3   13     -8.07      0.00
    3    3   13     -6.23      0.00
    5    3   13     14.81      0.00
    7    3   13    -11.03      0.00
    9    3   13      3.80      0.00
   11    3   13    -30.63      0.00
   13    3   13     -0.29      0.00
   15    3   13     -9.18      0.00
   17    3   13      0.37      0.00
   19    3   13     -5.66      0.00
   21    3   13    -10.96      0.00
   23    3   13    -15.88      0.00
   25    3   13     -8.99      0.00
   27    3   13     -0.49      0.00
   29    3   13     -3.52      0.00
   31    3   13      0.28      0.00
   33    3   13     -5.10      0.00
   35    3   13     -8.78      0.00
   37    3   13     -3.02      0.00
   39    3   13      1.03      0.00
   41    3   13      0.34      0.00
   43    3   13     -1.89      0.00
   45    3   13      0.30      0.00
   47    3   13     -5.71      0.00
   49    3   13      0.78      0.00
   51    3   13      0.61      0.00
   53    3   13      3.23      0.00
    0    4   13     -5.09      0.00
    2    4   13     -0.26      0.00
    4    4   13    -14.98      0.00
    6    4   13     -4.80      0.00
    8    4   13    -18.02      0.00
   10    4   13     -6.00      0.00
   12    4   13    -10.25      0.00
   14    4   13    -11.71      0.00
   16    4   13     -5.54      0.00
   18    4   13     -9.21      0.00
   20    4   13     -5.69      0.00
   22    4   13     -6.12      0.00
   24    4   13    -16.15      0.00
   26    4   13     -3.89      0.00
   28    4   13     -7.76      0.00
   30    4   13     -1.31      0.00
   32    4   13      4.13      0.00
   34    4   13    -15.69      0.00
   36    4   13      3.31      0.00
   38    4   13    -17.81      0.00
   40    4   13      2.79      0.00
   42    4   13    -11.20      0.00
   44    4   13     -4.79      0.00
   46    4   13     -7.27      0.00
   48    4   13      3.12      0.00
   50    4   13     -6.02      0.00
   52    4   13      7.54      0.00
    1    5   13      5.67      0.00
    3    5   13      6.82      0.00
    5    5   13     13.82      0.00
    7    5   13      2.93      0.00
    9    5   13     11.38      0.00
   11    5   13      2.27      0.00
   13    5   13     15.31      0.00
   15    5   13     11.01      0.00
   17    5   13      9.06      0.00
   19    5   13      7.98      0.00
   21    5   13      0.16      0.00
   23    5   13      8.66      0.00
   25    5   13      8.23      0.00
   27    5   13      3.02      0.00
   29    5   13      5.45      0.00
   31    5   13     -9.32      0.00
   33    5   13     -6.30      0.00
   35    5   13     -0.11      0.00
   37    5   13      7.16      0.00
   39    5   13      9.53      0.00
   41    5   13      5.84      0.00
   43    5   13     -2.80      0.00
   45    5   13     -6.52      0.00
   47    5   13      4.08      0.00
   49    5   13     -9.68      0.00
   51    5   13      9.65      0.00
    0    6   13     -3.14      0.00
    2    6   13    -21.38      0.00
    4    6   13    -14.60      0.00
    6    6   13    -29.95      0.00
    8    6   13    -19.78      0.00
   10    6   13    -11.80      0.00
   12    6   13     -8.94      0.00
   14    6   13     -7.67      0.00
   16    6   13     -5.02      0.00
   18    6   13    -21.75      0.00
   20    6   13     -4.86      0.00
   22    6   13    -18.30      0.00
   24    6   13     -0.66      0.00
   26    6   13     -9.72      0.00
   28    6   13      6.02      0.00
   30    6   13     -6.02      0.00
   32    6   13      2.02      0.00
   34    6   13     -3.43      0.00
   36    6   13     -3.88      0.00
   38    6   13     -0.41      0.00
   40    6   13      0.99      0.00
   42    6   13     -2.53      0.00
   44    6   13     -5.91      0.00
   46    6   13     -1.49      0.00
   48    6   13     -6.86      0.00
   50    6   13      5.06      0.00
    1    7   13     11.38      0.00
    3    7   13     13.10      0.00
    5    7   13     15.29      0.00
    7    7   13     13.18      0.00
    9    7   13      3.24      0.00
   11    7   13      1.83      0.00
   13    7   13     12.04      0.00
   15    7   13      1.02      0.00
   17    7   13     30.05      0.00
   19    7   13     10.95      0.00
   21    7   13     18.92      0.00
   23    7   13      6.24      0.00
   25    7   13     -0.95      0.00
   27    7   13     -1.84      0.00
   29    7   13      4.82      0.00
   31    7   13      3.20      0.00
   33    7   13      3.36      0.00
   35    7   13      5.18      0.00
   37    7   13      3.74      0.00
   39    7   13      5.18      0.00
   41    7   13     -0.98      0.00
   43    7   13      2.24      0.00
   45    7   13     -6.52      0.00
   47    7   13     13.81      0.00
   49    7   13      2.26      0.00
   51    7   13     13.38      0.00
    0    8   13      5.97      0.00
    2    8   13      6.19      0.00
    4    8   13    -24.20      0.00
    6    8   13    -20.60      0.00
    8    8   13    -29.34      0.00
   10    8   13      1.85      0.00
   12    8   13     -0.17      0.00
   14    8   13      2.27      0.00
   16    8   13     -8.86      0.00
   18    8   13    -19.71      0.00
   20    8   13     -6.93      0.00
   22    8   13    -15.13      0.00
   24    8   13      1.98      0.00
   26    8   13    -20.16      0.00
   28    8   13     -6.71      0.00
   30    8   13    -15.14      0.00
   32    8   13      4.51      0.00
   34    8   13      0.45      0.00
   36    8   13      3.77      0.00
   38    8   13     -3.60      0.00
   40    8   13     -4.67      0.00
   42    8   13     -8.14      0.00
   44    8   13      0.61      0.00
   46    8   13    -24.18      0.00
   48    8   13     -4.29      0.00
   50    8   13    -24.50      0.00
    1    9   13    -15.15      0.00
    3    9   13     -3.66      0.00
    5    9   13      7.70      0.00
    7    9   13      8.92      0.00
    9    9   13      2.27      0.00
   11    9   13     -3.93      0.00
   13    9   13     -1.84      0.00
   15    9   13      5.98      0.00
   17    9   13     13.51      0.00
   19    9   13     12.60      0.00
   21    9   13     10.71      0.00
   23    9   13     -5.48      0.00
   25    9   13     -8.24      0.00
   27    9   13     -0.17      0.00
   29    9   13     -6.60      0.00
   31    9   13      9.49      0.00
   33    9   13     -5.89      0.00
   35    9   13     -0.34      0.00
   37    9   13      2.72      0.00
   39    9   13      1.22      0.00
   41    9   13      9.35      0.00
   43    9   13     -1.18      0.00
   45    9   13      4.94      0.00
   47    9   13      1.83      0.00
    0   10   13      6.77      0.00
    2   10   13     12.62      0.00
    4   10   13     -0.85      0.00
    6   10   13     -9.47      0.00
    8   10   13      3.08      0.00
   10   10   13      2.20      0.00
   12   10   13     12.81      0.00
   14   10   13      9.08      0.00
   16   10   13      4.68      0.00
   18   10   13      2.23      0.00
   20   10   13     -4.61      0.00
   22   10   13      5.05      0.00
   24   10   13    -12.82      0.00
   26   10   13     -7.95      0.00
   28   10   13    -16.52      0.00
   30   10   13    -12.56      0.00
   32   10   13      1.12      0.00
   34   10   13      8.93      0.00
   36   10   13      6.73      0.00
   38   10   13      7.24      0.00
   40   10   13     -4.67      0.00
   42   10   13     -0.50      0.00
   44   10   13    -11.88      0.00
   46   10   13     -1.14      0.00
    1   11   13      0.97      0.00
    3   11   13      1.45      0.00
    5   11   13     13.65      0.00
    7   11   13      3.68      0.00
    9   11   13      0.83      0.00
   11   11   13     -1.27      0.00
   13   11   13     -5.15      0.00
   15   11   13      5.39      0.00
   17   11   13     -0.91      0.00
   19   11   13      8.87      0.00
   21   11   13     -2.96      0.00
   23   11   13     11.42      0.00
   25   11   13      2.32      0.00
   27   11   13     13.49      0.00
   29   11   13      1.13      0.00
   31   11   13     -3.54      0.00
   33   11   13    -12.42      0.00
   35   11   13     -8.95      0.00
   37   11   13      3.91      0.00
   39   11   13      3.39      0.00
   41   11   13      5.80      0.00
   43   11   13     -2.22      0.00
   45   11   13      1.18      0.00
    0   12   13      2.95      0.00
    2   12   13     16.25      0.00
    4   12   13      7.13      0.00
    6   12   13     15.16      0.00
    8   12   13      9.37      0.00
   10   12   13     -1.42      0.00
   12   12   13      6.95      0.00
   14   12   13     -5.86      0.00
   16   12   13      7.62      0.00
   18   12   13      3.34      0.00
   20   12   13     -0.88      0.00
   22   12   13      3.19      0.00
   24   12   13     -4.69      0.00
   26   12   13     -1.08      0.00
   28   12   13     -1.18      0.00
   30   12   13     -4.11      0.00
   32   12   13     -1.32      0.00
   34   12   13      3.17      0.00
   36   12   13     -8.20      0.00
   38   12   13      5.90      0.00
   40   12   13    -10.03      0.00
   42   12   13      2.14      0.00
   44   12   13     -6.71      0.00
    1   13   13     -2.31      0.00
    3   13   13      2.38      0.00
    5   13   13     -1.23      0.00
    7   13   13      5.55      0.00
    9   13   13      7.49      0.00
   11   13   13      8.53      0.00
   13   13   13      9.85      0.00
   15   13   13      9.90      0.00
   17   13   13      8.32      0.00
   19   13   13      9.32      0.00
   21   13   13     11.93      0.00
   23   13   13     -2.67      0.00
   25   13   13     10.92      0.00
   27   13   13     -7.72      0.00
   29   13   13      8.54      0.00
   31   13   13     -2.87      0.00
   33   13   13     -0.79      0.00
   35   13   13     -2.63      0.00
   37   13   13      0.48      0.00
   39   13   13     -6.24      0.00
   41   13   13     -1.82      0.00
    0   14   13     15.43      0.00
    2   14   13     -1.05      0.00
    4   14   13     12.61      0.00
    6   14   13      3.58      0.00
    8   14   13      6.86      0.00
   10   14   13      7.29      0.00
   12   14   13     -0.48      0.00
   14   14   13      0.79      0.00
   16   14   13      2.81      0.00
   18   14   13     -2.41      0.00
   20   14   13      9.43      0.00
   22   14   13      0.25      0.00
   24   14   13      6.20      0.00
   26   14   13      4.75      0.00
   28   14   13     -0.15      0.00
   30   14   13      4.72      0.00
   32   14   13      4.19      0.00
   34   14   13     -6.62      0.00
   36   14   13      5.36      0.00
   38   14   13    -16.29      0.00
   40   14   13      1.59      0.00
    1   15   13     -1.78      0.00
    3   15   13     -2.38      0.00
    5   15   13     -0.60      0.00
    7   15   13     -4.16      0.00
    9   15   13     -3.69      0.00
   11   15   13    -12.33      0.00
   13   15   13     -3.65      0.00
   15   15   13    -12.24      0.00
   17   15   13      5.95      0.00
   19   15   13     -2.86      0.00
   21   15   13      6.10      0.00
   23   15   13      0.84      0.00
   25   15   13     -0.70      0.00
   27   15   13      7.12      0.00
   29   15   13      4.56      0.00
   31   15   13      8.34      0.00
   33   15   13      9.54      0.00
   35   15   13      2.14      0.00
   37   15   13      4.47      0.00
    0   16   13     -4.81      0.00
    2   16   13     -2.26      0.00
    4   16   13     -1.55      0.00
    6   16   13     -3.77      0.00
    8   16   13     -2.27      0.00
   10   16   13     -8.39      0.00
   12   16   13     -9.18      0.00
   14   16   13     -6.33      0.00
   16   16   13    -12.36      0.00
   18   16   13     -5.03      0.00
   20   16   13    -12.84      0.00
   22   16   13     -3.68      0.00
   24   16   13     -4.87      0.00
   26   16   13     -1.76      0.00
   28   16   13      2.22      0.00
   30   16   13     -5.81      0.00
   32   16   13      5.57      0.00
   34   16   13     -3.97      0.00
    1   17   13     -0.90      0.00
    3   17   13     -3.80      0.00
    5   17   13      4.23      0.00
    7   17   13     -5.39      0.00
    9   17   13     -5.09      0.00
   11   17   13    -14.24      0.00
   13   17   13     -9.16      0.00
   15   17   13     -8.97      0.00
   17   17   13      2.26      0.00
   19   17   13     -6.44      0.00
   21   17   13    -10.47      0.00
   23   17   13    -14.54      0.00
   25   17   13     -9.17      0.00
   27   17   13     -4.29      0.00
   29   17   13     10.06      0.00
   31   17   13      1.80      0.00
    0   18   13     -1.43      0.00
    2   18   13     -0.39      0.00
    4   18   13      4.57      0.00
    6   18   13     10.50      0.00
    8   18   13      8.17      0.00
   10   18   13      7.20      0.00
   12   18   13      1.04      0.00
   14   18   13     -1.67      0.00
   16   18   13    -11.01      0.00
   18   18   13     -3.13      0.00
   20   18   13    -18.26      0.00
   22   18   13      1.82      0.00
   24   18   13    -12.35      0.00
   26   18   13     -2.05      0.00
   28   18   13     -5.45      0.00
    1   19   13     -2.19      0.00
    3   19   13      2.80      0.00
    5   19   13     -5.08      0.00
    7   19   13      3.98      0.00
    9   19   13      6.17      0.00
   11   19   13     -0.57      0.00
   13   19   13      5.58      0.00
   15   19   13      3.30      0.00
   17   19   13      1.73      0.00
   19   19   13      4.94      0.00
   21   19   13    -10.91      0.00
   23   19   13     -8.05      0.00
    0   20   13      4.88      0.00
    2   20   13      9.06      0.00
    4   20   13     -4.03      0.00
    6   20   13      4.96      0.00
    8   20   13     -0.57      0.00
   10   20   13     12.45      0.00
   12   20   13     -0.12      0.00
   14   20   13     -2.96      0.00
   16   20   13    -15.37      0.00
    1   21   13     22.37      0.00
    3   21   13     12.02      0.00
    0    0   14      3.37      0.00
    2    0   14     30.95      0.00
    4    0   14    -31.65      0.00
    6    0   14      0.61      0.00
    8    0   14    -35.65      0.00
   10    0   14     19.77      0.00
   12    0   14     -0.58      0.00
   14    0   14     10.27      0.00
   16    0   14      9.08      0.00
   18    0   14     -6.52      0.00
   20    0   14      4.15      0.00
   22    0   14      2.10      0.00
   24    0   14      2.82      0.00
   26    0   14     11.60      0.00
   28    0   14     -9.28      0.00
   30    0   14      0.25      0.00
   32    0   14    -14.27      0.00
   34    0   14      1.05      0.00
   36    0   14      3.75      0.00
   38    0   14      1.69      0.00
   40    0   14     -4.25      0.00
   42    0   14      1.06      0.00
   44    0   14      0.87      0.00
   46    0   14     16.02      0.00
   48    0   14     11.52      0.00
   50    0   14      8.30      0.00
   52    0   14     -3.66      0.00
    1    1   14     -4.05      0.00
    3    1   14      0.01      0.00
    5    1   14     -4.30      0.00
    7    1   14     -7.55      0.00
    9    1   14      3.44      0.00
   11    1   14    -12.00      0.00
   13    1   14     -2.76      0.00
   15    1   14     -5.31      0.00
   17    1   14    -13.11      0.00
   19    1   14      4.88      0.00
   21    1   14     -9.90      0.00
   23    1   14      5.69      0.00
   25    1   14     -4.09      0.00
   27    1   14     -7.77      0.00
   29    1   14     -6.18      0.00
   31    1   14     -8.46      0.00
   33    1   14    -10.74      0.00
   35    1   14      3.59      0.00
   37    1   14    -11.95      0.00
   39    1   14      5.16      0.00
   41    1   14     -6.95      0.00
   43    1   14      4.16      0.00
   45    1   14     -3.36      0.00
   47    1   14      7.31      0.00
   49    1   14     -3.92      0.00
   51    1   14     13.10      0.00
   53    1   14     -4.74      0.00
    0    2   14     29.75      0.00
    2    2   14    -15.33      0.00
    4    2   14      8.26      0.00
    6    2   14    -31.35      0.00
    8    2   14      9.81      0.00
   10    2   14     -9.99      0.00
   12    2   14     19.46      0.00
   14    2   14     -9.38      0.00
   16    2   14     14.84      0.00
   18    2   14    -12.90      0.00
   20    2   14     17.72      0.00
   22    2   14     -3.04      0.00
   24    2   14     12.79      0.00
   26    2   14     -3.12      0.00
   28    2   14     -1.74      0.00
   30    2   14    -20.27      0.00
   32    2   14     -5.22      0.00
   34    2   14     -8.98      0.00
   36    2   14      3.43      0.00
   38    2   14      2.75      0.00
   40    2   14      2.92      0.00
   42    2   14      0.31      0.00
   44    2   14      7.20      0.00
   46    2   14      5.53      0.00
   48    2   14      1.50      0.00
   50    2   14      0.27      0.00
   52    2   14     -9.71      0.00
    1    3   14     22.53      0.00
    3    3   14     28.08      0.00
    5    3   14     22.40      0.00
    7    3   14     29.04      0.00
    9    3   14     12.53      0.00
   11    3   14     14.62      0.00
   13    3   14      8.20      0.00
   15    3   14      0.81      0.00
   17    3   14      1.59      0.00
   19    3   14     -7.34      0.00
   21    3   14     -4.11      0.00
   23    3   14     -1.09      0.00
   25    3   14      4.53      0.00
   27    3   14      5.75      0.00
   29    3   14      5.69      0.00
   31    3   14      9.78      0.00
   33    3   14      3.85      0.00
   35    3   14     10.66      0.00
   37    3   14      1.82      0.00
   39    3   14      1.71      0.00
   41    3   14     -1.51      0.00
   43    3   14      0.01      0.00
   45    3   14     -4.73      0.00
   47    3   14      1.90      0.00
   49    3   14      1.65      0.00
   51    3   14      7.95      0.00
    0    4   14     11.77      0.00
    2    4   14      2.37      0.00
    4    4   14      3.73      0.00
    6    4   14     -1.29      0.00
    8    4   14      7.95      0.00
   10    4   14      7.14      0.00
   12    4   14     -3.17      0.00
   14    4   14     -3.68      0.00
   16    4   14     -6.75      0.00
   18    4   14     -0.57      0.00
   20    4   14     11.74      0.00
   22    4   14      2.73      0.00
   24    4   14      6.62      0.00
   26    4   14      1.11      0.00
   28    4   14      0.94      0.00
   30    4   14      5.02      0.00
   32    4   14      7.27      0.00
   34    4   14      7.20      0.00
   36    4   14      0.43      0.00
   38    4   14      1.53      0.00
   40    4   14     -3.33      0.00
   42    4   14      5.93      0.00
   44    4   14     -1.70      0.00
   46    4   14      4.07      0.00
   48    4   14    -15.24      0.00
   50    4   14     -3.06      0.00
   52    4   14    -12.32      0.00
    1    5   14    -12.96      0.00
    3    5   14    -14.06      0.00
    5    5   14     -3.80      0.00
    7    5   14    -13.74      0.00
    9    5   14     -4.63      0.00
   11    5   14    -14.76      0.00
   13    5   14     -5.70      0.00
   15    5   14    -12.02      0.00
   17    5   14     -2.00      0.00
   19    5   14    -12.89      0.00
   21    5   14      7.76      0.00
   23    5   14     -0.70      0.00
   25    5   14      4.24      0.00
   27    5   14      5.78      0.00
   29    5   14     -9.89      0.00
   31    5   14      1.37      0.00
   33    5   14     -5.32      0.00
   35    5   14     -2.65      0.00
   37    5   14     -4.09      0.00
   39    5   14     -6.51      0.00
   41    5   14      6.08      0.00
   43    5   14     -0.78      0.00
   45    5   14      9.63      0.00
   47    5   14     -3.55      0.00
   49    5   14     -8.30      0.00
   51    5   14     -2.18      0.00
    0    6   14     -5.72      0.00
    2    6   14      8.70      0.00
    4    6   14     -4.47      0.00
    6    6   14     11.67      0.00
    8    6   14      5.06      0.00
   10    6   14      7.91      0.00
   12    6   14      8.03      0.00
   14    6   14      4.98      0.00
   16    6   14     12.68      0.00
   18    6   14     20.51      0.00
   20    6   14      8.20      0.00
   22    6   14     12.49      0.00
   24    6   14      2.06      0.00
   26    6   14      1.34      0.00
   28    6   14     -0.63      0.00
   30    6   14      6.52      0.00
   32    6   14     -3.00      0.00
   34    6   14      8.58      0.00
   36    6   14      0.45      0.00
   38    6   14      3.60      0.00
   40    6   14     -1.36      0.00
   42    6   14      9.42      0.00
   44    6   14     -4.02      0.00
   46    6   14      8.87      0.00
   48    6   14     -3.71      0.00
   50    6   14     -0.47      0.00
    1    7   14     -2.13      0.00
    3    7   14     -0.99      0.00
    5    7   14     18.79      0.00
    7    7   14      2.73      0.00
    9    7   14      9.49      0.00
   11    7   14     -7.00      0.00
   13    7   14     -3.07      0.00
   15    7   14     -0.86      0.00
   17    7   14      2.23      0.00
   19    7   14      4.07      0.00
   21    7   14      2.29      0.00
   23    7   14      7.03      0.00
   25    7   14      2.79      0.00
   27    7   14      3.91      0.00
   29    7   14      2.59      0.00
   31    7   14     -5.96      0.00
   33    7   14      4.44      0.00
   35    7   14     -4.18      0.00
   37    7   14      5.22      0.00
   39    7   14      1.06      0.00
   41    7   14      0.05      0.00
   43    7   14      0.67      0.00
   45    7   14      3.28      0.00
   47    7   14     -3.81      0.00
   49    7   14     11.33      0.00
    0    8   14     -5.03      0.00
    2    8   14      2.23      0.00
    4    8   14    -13.32      0.00
    6    8   14    -10.48      0.00
    8    8   14     -7.49      0.00
   10    8   14    -12.30      0.00
   12    8   14      3.13      0.00
   14    8   14    -14.04      0.00
   16    8   14     -7.44      0.00
   18    8   14    -15.68      0.00
   20    8   14    -15.03      0.00
   22    8   14      1.02      0.00
   24    8   14      0.12      0.00
   26    8   14     14.36      0.00
   28    8   14     -2.27      0.00
   30    8   14     -1.62      0.00
   32    8   14     -8.34      0.00
   34    8   14     -5.20      0.00
   36    8   14     -1.04      0.00
   38    8   14     -0.68      0.00
   40    8   14      2.00      0.00
   42    8   14      5.95      0.00
   44    8   14     -0.05      0.00
   46    8   14      1.38      0.00
   48    8   14     -6.28      0.00
    1    9   14    -16.16      0.00
    3    9   14     -7.23      0.00
    5    9   14      5.07      0.00
    7    9   14     -0.61      0.00
    9    9   14     -5.94      0.00
   11    9   14    -16.27      0.00
   13    9   14    -21.03      0.00
   15    9   14     -5.41      0.00
   17    9   14    -11.12      0.00
   19    9   14      4.26      0.00
   21    9   14    -10.63      0.00
   23    9   14      2.42      0.00
   25    9   14    -11.46      0.00
   27    9   14     10.56      0.00
   29    9   14     -7.83      0.00
   31    9   14      7.05      0.00
   33    9   14    -15.78      0.00
   35    9   14     -5.44      0.00
   37    9   14    -13.40      0.00
   39    9   14     -0.74      0.00
   41    9   14     -3.10      0.00
   43    9   14      5.57      0.00
   45    9   14     -3.04      0.00
   47    9   14      7.55      0.00
    0   10   14    -14.71      0.00
    2   10   14    -13.03      0.00
    4   10   14    -31.37      0.00
    6   10   14    -23.29      0.00
    8   10   14    -27.27      0.00
   10   10   14     -7.45      0.00
   12   10   14    -10.36      0.00
   14   10   14    -11.06      0.00
   16   10   14    -18.51      0.00
   18   10   14    -19.65      0.00
   20   10   14    -18.32      0.00
   22   10   14     -8.81      0.00
   24   10   14    -10.03      0.00
   26   10   14    -10.08      0.00
   28   10   14     -2.17      0.00
   30   10   14    -11.81      0.00
   32   10   14     21.76      0.00
   34   10   14     -7.99      0.00
   36   10   14     14.80      0.00
   38   10   14    -18.12      0.00
   40   10   14     -3.62      0.00
   42   10   14    -11.11      0.00
   44   10   14     -5.38      0.00
   46   10   14    -11.46      0.00
    1   11   14     -7.69      0.00
    3   11   14      6.86      0.00
    5   11   14     -0.09      0.00
    7   11   14     15.31      0.00
    9   11   14     10.76      0.00
   11   11   14      9.79      0.00
   15   11   14      5.88      0.00
   17   11   14     11.04      0.00
   19   11   14      2.16      0.00
   21   11   14      1.84      0.00
   23   11   14      9.21      0.00
   25   11   14     -0.12      0.00
   27   11   14     17.27      0.00
   29   11   14      7.75      0.00
   31   11   14      5.78      0.00
   33   11   14      6.29      0.00
   35   11   14     -9.74      0.00
   37   11   14     -3.43      0.00
   39   11   14     -4.88      0.00
   41   11   14      0.68      0.00
   43   11   14     -0.40      0.00
   45   11   14      4.53      0.00
    0   12   14      2.09      0.00
    2   12   14      0.36      0.00
    4   12   14     -5.57      0.00
    6   12   14     -8.66      0.00
    8   12   14     -9.66      0.00
   10   12   14     -4.40      0.00
   12   12   14     -5.14      0.00
   14   12   14     -0.71      0.00
   16   12   14     -3.57      0.00
   18   12   14     -5.22      0.00
   20   12   14     -2.08      0.00
   22   12   14     -8.58      0.00
   24   12   14      0.49      0.00
   26   12   14    -11.58      0.00
   28   12   14     -6.08      0.00
   30   12   14     -7.26      0.00
   32   12   14     -2.53      0.00
   34   12   14     -5.24      0.00
   36   12   14     -5.55      0.00
   38   12   14    -13.55      0.00
   40   12   14     -5.30      0.00
   42   12   14      0.70      0.00
    1   13   14      1.96      0.00
    3   13   14     -2.25      0.00
    5   13   14     -2.23      0.00
    7   13   14     -3.95      0.00
    9   13   14     -4.12      0.00
   11   13   14      4.95      0.00
   13   13   14      2.37      0.00
   15   13   14      2.74      0.00
   17   13   14      0.06      0.00
   19   13   14     -5.37      0.00
   21   13   14     -0.29      0.00
   23   13   14     -6.14      0.00
   25   13   14      1.15      0.00
   27   13   14     -6.03      0.00
   29   13   14     -0.21      0.00
   31   13   14     -3.42      0.00
   33   13   14     -2.15      0.00
   35   13   14     -1.82      0.00
   37   13   14      3.16      0.00
   39   13   14      2.89      0.00
   41   13   14     -0.85      0.00
    0   14   14     -6.79      0.00
    2   14   14     -9.72      0.00
    4   14   14     -2.33      0.00
    6   14   14    -10.68      0.00
    8   14   14      1.15      0.00
   10   14   14    -10.89      0.00
   12   14   14      2.34      0.00
   14   14   14     -1.19      0.00
   16   14   14      2.81      0.00
   18   14   14     -2.17      0.00
   20   14   14     -4.47      0.00
   22   14   14     -3.50      0.00
   24   14   14     -6.29      0.00
   26   14   14      3.68      0.00
   28   14   14     -5.78      0.00
   30   14   14      0.84      0.00
   32   14   14      2.82      0.00
   34   14   14     -2.26      0.00
   36   14   14     12.37      0.00
   38   14   14     -2.39      0.00
    1   15   14     -3.24      0.00
    3   15   14     -4.91      0.00
    5   15   14      1.94      0.00
    7   15   14     -6.58      0.00
    9   15   14      3.86      0.00
   11   15   14     -1.37      0.00
   13   15   14      0.77      0.00
   15   15   14      6.93      0.00
   17   15   14      0.78      0.00
   19   15   14      5.71      0.00
   21   15   14      4.74      0.00
   23   15   14     -1.93      0.00
   25   15   14      4.15      0.00
   27   15   14      0.07      0.00
   29   15   14      3.46      0.00
   31   15   14      2.74      0.00
   33   15   14     -3.93      0.00
   35   15   14     -2.29      0.00
    0   16   14      9.52      0.00
    2   16   14     -3.46      0.00
    4   16   14     -0.59      0.00
    6   16   14     -3.64      0.00
    8   16   14     -6.85      0.00
   10   16   14      1.15      0.00
   12   16   14     -2.99      0.00
   14   16   14     -3.21      0.00
   16   16   14    -10.89      0.00
   18   16   14     -0.89      0.00
   20   16   14     -8.41      0.00
   22   16   14     16.27      0.00
   24   16   14      6.43      0.00
   26   16   14     11.16      0.00
   28   16   14      6.36      0.00
   30   16   14     -3.00      0.00
   32   16   14      0.51      0.00
   34   16   14     -3.18      0.00
    1   17   14      0.41      0.00
    3   17   14     -2.14      0.00
    5   17   14     -8.15      0.00
    7   17   14     -5.41      0.00
    9   17   14     -8.32      0.00
   11   17   14    -10.02      0.00
   13   17   14     -4.89      0.00
   15   17   14    -19.82      0.00
   17   17   14     -2.65      0.00
   19   17   14    -12.18      0.00
   21   17   14     -2.32      0.00
   23   17   14     -6.29      0.00
   25   17   14    -11.62      0.00
   27   17   14     -5.25      0.00
   29   17   14     -4.68      0.00
    0   18   14     -5.34      0.00
    2   18   14      0.27      0.00
    4   18   14     -2.77      0.00
    6   18   14     -2.81      0.00
    8   18   14     -0.57      0.00
   10   18   14      1.43      0.00
   12   18   14     -4.40      0.00
   14   18   14      5.67      0.00
   16   18   14    -17.07      0.00
   18   18   14      5.28      0.00
   20   18   14     -6.88      0.00
   22   18   14     16.45      0.00
   24   18   14     12.19      0.00
   26   18   14     12.46      0.00
    1   19   14     -2.41      0.00
    3   19   14     -0.41      0.00
    5   19   14     -1.36      0.00
    7   19   14     -1.90      0.00
    9   19   14    -11.94      0.00
   11   19   14     -8.50      0.00
   13   19   14    -13.96      0.00
   15   19   14     -5.27      0.00
   17   19   14     -2.03      0.00
   19   19   14     -4.54      0.00
   21   19   14     -6.58      0.00
    0   20   14      0.23      0.00
    2   20   14      6.70      0.00
    4   20   14      9.40      0.00
    6   20   14     11.03      0.00
    8   20   14     15.56      0.00
   10   20   14     16.06      0.00
   12   20   14     11.12      0.00
   14   20   14     18.75      0.00
    1    1   15    -15.86      0.00
    3    1   15     -5.08      0.00
    5    1   15     10.09      0.00
    7    1   15      6.83      0.00
    9    1   15     -5.57      0.00
   11    1   15      1.37      0.00
   13    1   15    -10.95      0.00
   15    1   15     11.83      0.00
   17    1   15      3.14      0.00
   19    1   15      6.71      0.00
   21    1   15      3.92      0.00
   23    1   15     -1.91      0.00
   25    1   15     -8.47      0.00
   27    1   15      2.65      0.00
   29    1   15     -7.95      0.00
   31    1   15      9.48      0.00
   33    1   15    -13.69      0.00
   35    1   15     -5.99      0.00
   37    1   15    -14.45      0.00
   39    1   15     -2.79      0.00
   41    1   15      1.00      0.00
   43    1   15      3.50      0.00
   45    1   15      0.67      0.00
   47    1   15      2.70      0.00
   49    1   15      2.45      0.00
   51    1   15      4.78      0.00
    0    2   15    -45.41      0.00
    2    2   15    -10.57      0.00
    4    2   15    -39.07      0.00
    6    2   15    -15.09      0.00
    8    2   15    -27.25      0.00
   10    2   15     -3.73      0.00
   12    2   15    -19.86      0.00
   14    2   15     11.16      0.00
   16    2   15    -11.22      0.00
   18    2   15     11.51      0.00
   20    2   15     -6.24      0.00
   22    2   15     -7.69      0.00
   24    2   15     -4.82      0.00
   26    2   15    -11.57      0.00
   28    2   15     -7.06      0.00
   30    2   15      2.45      0.00
   32    2   15    -10.92      0.00
   34    2   15      2.76      0.00
   36    2   15     -5.40      0.00
   38    2   15     -7.85      0.00
   40    2   15     -6.61      0.00
   42    2   15     -6.05      0.00
   44    2   15     -3.09      0.00
   46    2   15      5.14      0.00
   48    2   15     -0.31      0.00
   50    2   15     -3.29      0.00
   52    2   15     -8.86      0.00
    1    3   15      3.25      0.00
    3    3   15     -0.11      0.00
    5    3   15     12.32      0.00
    7    3   15    -15.02      0.00
    9    3   15      5.73      0.00
   11    3   15    -18.93      0.00
   13    3   15      8.49      0.00
   15    3   15      1.93      0.00
   17    3   15      1.29      0.00
   19    3   15      3.90      0.00
   21    3   15     -0.65      0.00
   23    3   15      3.65      0.00
   25    3   15     -3.44      0.00
   27    3   15      5.37      0.00
   29    3   15     -7.98      0.00
   31    3   15      0.65      0.00
   33    3   15     -0.23      0.00
   35    3   15     -2.78      0.00
   37    3   15      4.27      0.00
   39    3   15      2.09      0.00
   41    3   15     -3.86      0.00
   43    3   15     -7.07      0.00
   45    3   15     -2.48      0.00
   47    3   15     -3.69      0.00
   49    3   15      7.59      0.00
   51    3   15      2.63      0.00
    0    4   15    -30.31      0.00
    2    4   15    -10.81      0.00
    4    4   15    -32.66      0.00
    6    4   15    -11.86      0.00
    8    4   15    -20.91      0.00
   10    4   15    -14.02      0.00
   12    4   15     -7.09      0.00
   14    4   15    -13.48      0.00
   16    4   15      0.44      0.00
   18    4   15     -0.53      0.00
   20    4   15      0.23      0.00
   22    4   15      0.79      0.00
   24    4   15     -7.41      0.00
   26    4   15     -3.93      0.00
   28    4   15     -4.00      0.00
   30    4   15     -9.40      0.00
   32    4   15     -0.80      0.00
   34    4   15     -8.98      0.00
   36    4   15      1.48      0.00
   38    4   15     -7.12      0.00
   40    4   15      0.45      0.00
   42    4   15     -9.11      0.00
   44    4   15      5.10      0.00
   46    4   15     -2.12      0.00
   48    4   15      7.60      0.00
   50    4   15     -9.21      0.00
    1    5   15     17.70      0.00
    3    5   15      9.80      0.00
    5    5   15     15.19      0.00
    7    5   15     -2.84      0.00
    9    5   15      6.52      0.00
   11    5   15      2.52      0.00
   13    5   15     13.43      0.00
   15    5   15      6.64      0.00
   17    5   15      2.37      0.00
   19    5   15     -2.33      0.00
   21    5   15     -0.86      0.00
   23    5   15      4.93      0.00
   25    5   15     10.49      0.00
   27    5   15     -0.98      0.00
   29    5   15      3.97      0.00
   31    5   15    -11.40      0.00
   33    5   15     -0.75      0.00
   35    5   15     -4.39      0.00
   37    5   15     10.16      0.00
   39    5   15      3.07      0.00
   41    5   15      5.71      0.00
   43    5   15      1.89      0.00
   45    5   15     -9.31      0.00
   47    5   15      6.58      0.00
   49    5   15    -10.09      0.00
    0    6   15      3.71      0.00
    2    6   15     -2.78      0.00
    4    6   15      4.77      0.00
    6    6   15     -3.14      0.00
    8    6   15      7.61      0.00
   10    6   15     -6.10      0.00
   12    6   15      1.01      0.00
   14    6   15    -17.88      0.00
   16    6   15      8.92      0.00
   18    6   15    -13.45      0.00
   20    6   15     11.61      0.00
   22    6   15    -12.69      0.00
   24    6   15      1.30      0.00
   26    6   15     -6.46      0.00
   28    6   15     13.56      0.00
   30    6   15      0.77      0.00
   32    6   15     11.77      0.00
   34    6   15      1.50      0.00
   36    6   15      3.52      0.00
   38    6   15      6.68      0.00
   40    6   15      5.10      0.00
   42    6   15      3.28      0.00
   44    6   15      3.55      0.00
   46    6   15      8.29      0.00
   48    6   15     -0.20      0.00
   50    6   15     11.20      0.00
    1    7   15      0.68      0.00
    3    7   15     -0.89      0.00
    5    7   15     -6.80      0.00
    7    7   15     -4.27      0.00
    9    7   15     -2.91      0.00
   11    7   15     -0.09      0.00
   13    7   15      7.44      0.00
   15    7   15     -6.01      0.00
   17    7   15      5.53      0.00
   19    7   15     -3.50      0.00
   21    7   15      6.71      0.00
   23    7   15      5.13      0.00
   25    7   15      7.32      0.00
   27    7   15     -0.14      0.00
   29    7   15     10.03      0.00
   31    7   15      3.39      0.00
   33    7   15      7.11      0.00
   35    7   15      7.31      0.00
   37    7   15     -0.18      0.00
   39    7   15      4.00      0.00
   41    7   15      1.66      0.00
   43    7   15      6.88      0.00
   45    7   15     -3.20      0.00
   47    7   15      8.61      0.00
   49    7   15    -10.03      0.00
    0    8   15     -2.86      0.00
    2    8   15      9.50      0.00
    4    8   15    -13.24      0.00
    6    8   15      3.50      0.00
    8    8   15    -16.20      0.00
   10    8   15      3.79      0.00
   12    8   15     -5.66      0.00
   14    8   15     -2.64      0.00
   16    8   15      8.36      0.00
   18    8   15     -1.54      0.00
   20    8   15     12.26      0.00
   22    8   15     -5.20      0.00
   24    8   15      9.93      0.00
   26    8   15     -7.24      0.00
   28    8   15      9.68      0.00
   30    8   15     -5.73      0.00
   32    8   15      4.38      0.00
   34    8   15     -1.09      0.00
   36    8   15      3.75      0.00
   38    8   15      2.46      0.00
   40    8   15     -2.33      0.00
   42    8   15     -2.30      0.00
   44    8   15      5.97      0.00
   46    8   15     -0.40      0.00
   48    8   15     16.00      0.00
    1    9   15      2.16      0.00
    3    9   15      3.13      0.00
    5    9   15      4.87      0.00
    7    9   15      4.34      0.00
    9    9   15     -7.55      0.00
   11    9   15     -7.41      0.00
   13    9   15     -9.66      0.00
   15    9   15     -8.93      0.00
   17    9   15      2.47      0.00
   19    9   15     -5.54      0.00
   21    9   15     -1.06      0.00
   23    9   15     -6.53      0.00
   25    9   15    -10.02      0.00
   27    9   15      3.17      0.00
   29    9   15    -12.21      0.00
   31    9   15      2.59      0.00
   33    9   15     -5.54      0.00
   35    9   15     -0.31      0.00
   37    9   15      9.62      0.00
   39    9   15      0.49      0.00
   41    9   15      1.73      0.00
   43    9   15     -3.54      0.00
   45    9   15     -7.97      0.00
   47    9   15     -0.49      0.00
    0   10   15     -6.76      0.00
    2   10   15      9.76      0.00
    4   10   15     -7.64      0.00
    6   10   15     -6.68      0.00
    8   10   15      1.27      0.00
   10   10   15     -3.18      0.00
   12   10   15      3.28      0.00
   14   10   15     -0.69      0.00
   16   10   15      4.10      0.00
   18   10   15      3.73      0.00
   20   10   15      7.74      0.00
   22   10   15     11.79      0.00
   24   10   15      4.43      0.00
   26   10   15     12.78      0.00
   28   10   15      1.19      0.00
   30   10   15      1.66      0.00
   32   10   15      2.19      0.00
   34   10   15      6.50      0.00
   36   10   15     13.83      0.00
   38   10   15      8.28      0.00
   40   10   15      7.78      0.00
   42   10   15     -1.44      0.00
   44   10   15     -3.87      0.00
    1   11   15    -16.31      0.00
    3   11   15    -11.52      0.00
    5   11   15     -2.04      0.00
    7   11   15     -2.20      0.00
    9   11   15     -8.42      0.00
   11   11   15     -7.84      0.00
   13   11   15    -15.66      0.00
   15   11   15     -0.55      0.00
   17   11   15     -4.84      0.00
   19   11   15      4.08      0.00
   21   11   15    -11.44      0.00
   23   11   15      0.29      0.00
   25   11   15    -13.07      0.00
   27   11   15      4.28      0.00
   29   11   15     -8.13      0.00
   31   11   15     -7.11      0.00
   33   11   15     -9.15      0.00
   35   11   15    -10.57      0.00
   37   11   15      5.00      0.00
   39   11   15     -2.72      0.00
   41   11   15      4.66      0.00
   43   11   15     -0.73      0.00
    0   12   15     -7.39      0.00
    2   12   15     13.62      0.00
    4   12   15     -7.07      0.00
    6   12   15      1.54      0.00
    8   12   15      0.76      0.00
   10   12   15    -13.28      0.00
   12   12   15     -3.25      0.00
   14   12   15    -20.79      0.00
   16   12   15     -7.15      0.00
   18   12   15     -1.62      0.00
   20   12   15     -2.45      0.00
   22   12   15      8.60      0.00
   24   12   15     -1.35      0.00
   26   12   15      4.59      0.00
   28   12   15      1.16      0.00
   30   12   15     -0.93      0.00
   32   12   15     -1.37      0.00
   34   12   15      0.77      0.00
   36   12   15     -7.69      0.00
   38   12   15      2.94      0.00
   40   12   15    -10.60      0.00
   42   12   15      2.24      0.00
    1   13   15     -4.05      0.00
    3   13   15      2.41      0.00
    5   13   15     -0.63      0.00
    7   13   15     10.12      0.00
    9   13   15     10.33      0.00
   11   13   15      6.45      0.00
   13   13   15      6.72      0.00
   15   13   15     -0.33      0.00
   17   13   15     -0.80      0.00
   19   13   15      1.86      0.00
   21   13   15      0.06      0.00
   23   13   15     -3.89      0.00
   25   13   15      1.21      0.00
   27   13   15     -5.40      0.00
   29   13   15     -1.17      0.00
   31   13   15      2.19      0.00
   33   13   15     -3.06      0.00
   35   13   15      7.25      0.00
   37   13   15      3.45      0.00
   39   13   15      2.03      0.00
    0   14   15      2.41      0.00
    2   14   15     -2.33      0.00
    4   14   15      1.82      0.00
    6   14   15      3.57      0.00
    8   14   15     -0.45      0.00
   10   14   15      8.86      0.00
   12   14   15     -0.90      0.00
   14   14   15      5.17      0.00
   16   14   15      6.10      0.00
   18   14   15     -2.62      0.00
   20   14   15      4.66      0.00
   22   14   15     -5.77      0.00
   24   14   15     -1.90      0.00
   26   14   15     -3.27      0.00
   28   14   15     -8.62      0.00
   30   14   15     -8.10      0.00
   32   14   15     -2.20      0.00
   34   14   15    -14.69      0.00
   36   14   15      4.45      0.00
   38   14   15    -23.47      0.00
    1   15   15      6.57      0.00
    3   15   15      4.62      0.00
    5   15   15      5.49      0.00
    7   15   15      6.77      0.00
    9   15   15      3.91      0.00
   11   15   15      8.47      0.00
   13   15   15      3.06      0.00
   15   15   15      4.82      0.00
   17   15   15      8.11      0.00
   19   15   15      4.19      0.00
   21   15   15      7.98      0.00
   23   15   15      1.94      0.00
   25   15   15     -3.15      0.00
   27   15   15      2.13      0.00
   29   15   15     -8.00      0.00
   31   15   15      1.44      0.00
   33   15   15     -5.14      0.00
   35   15   15     -2.96      0.00
    0   16   15     -1.46      0.00
    2   16   15     -4.40      0.00
    4   16   15     -2.43      0.00
    6   16   15     -3.47      0.00
    8   16   15     -2.44      0.00
   10   16   15     -2.78      0.00
   12   16   15      1.21      0.00
   14   16   15      2.57      0.00
   16   16   15      2.82      0.00
   18   16   15      2.28      0.00
   20   16   15     -1.59      0.00
   22   16   15      0.96      0.00
   24   16   15      1.11      0.00
   26   16   15     -1.43      0.00
   28   16   15      1.41      0.00
   30   16   15    -10.99      0.00
   32   16   15      2.15      0.00
    1   17   15     -4.02      0.00
    3   17   15     -5.25      0.00
    5   17   15     -2.85      0.00
    7   17   15     -6.17      0.00
    9   17   15     -5.38      0.00
   11   17   15     -8.98      0.00
   13   17   15     -1.66      0.00
   15   17   15     -4.53      0.00
   17   17   15      7.44      0.00
   19   17   15      2.10      0.00
   21   17   15     -4.00      0.00
   23   17   15     -2.97      0.00
   25   17   15    -12.52      0.00
   27   17   15     -3.98      0.00
   29   17   15      3.01      0.00
    0   18   15      4.53      0.00
    2   18   15      2.46      0.00
    4   18   15     -1.34      0.00
    6   18   15     -1.21      0.00
    8   18   15    -10.32      0.00
   10   18   15     -3.84      0.00
   12   18   15     -8.10      0.00
   14   18   15      0.89      0.00
   16   18   15     -9.95      0.00
   18   18   15     -0.16      0.00
   20   18   15    -17.93      0.00
   22   18   15      1.65      0.00
   24   18   15     -4.75      0.00
    1   19   15    -14.85      0.00
    3   19   15     -5.96      0.00
    5   19   15    -13.54      0.00
    7   19   15     -0.61      0.00
    9   19   15      1.59      0.00
   11   19   15     -1.94      0.00
   13   19   15      8.62      0.00
   15   19   15      2.64      0.00
   17   19   15      3.16      0.00
   19   19   15      6.11      0.00
    0   20   15    -13.20      0.00
    2   20   15     -0.88      0.00
    4   20   15    -11.86      0.00
    6   20   15      2.39      0.00
    8   20   15     -1.81      0.00
   10   20   15     12.61      0.00
    0    0   16    -20.22      0.00
    2    0   16     18.74      0.00
    4    0   16    -36.69      0.00
    6    0   16     11.75      0.00
    8    0   16    -23.75      0.00
   10    0   16     16.94      0.00
   12    0   16      2.95      0.00
   14    0   16    -12.78      0.00
   16    0   16      3.04      0.00
   18    0   16    -22.77      0.00
   20    0   16      1.32      0.00
   22    0   16      2.01      0.00
   24    0   16     -0.50      0.00
   26    0   16      9.16      0.00
   28    0   16    -16.07      0.00
   30    0   16     -5.09      0.00
   32    0   16    -13.91      0.00
   36    0   16     -0.21      0.00
   38    0   16     -3.69      0.00
   42    0   16      1.79      0.00
   44    0   16     -6.77      0.00
   46    0   16      2.72      0.00
   48    0   16     -7.30      0.00
   50    0   16      0.82      0.00
    1    1   16    -17.92      0.00
    3    1   16    -10.82      0.00
    5    1   16    -11.45      0.00
    7    1   16     -9.27      0.00
    9    1   16     -0.71      0.00
   11    1   16     -6.72      0.00
   13    1   16     -1.84      0.00
   15    1   16      1.58      0.00
   17    1   16     -9.63      0.00
   19    1   16      5.07      0.00
   21    1   16     -9.63      0.00
   23    1   16      1.29      0.00
   25    1   16     -3.70      0.00
   27    1   16     -6.92      0.00
   29    1   16     -7.14      0.00
   31    1   16     -4.13      0.00
   35    1   16      1.25      0.00
   41    1   16     -4.08      0.00
   47    1   16      9.55      0.00
   49    1   16    -10.30      0.00
   51    1   16     16.02      0.00
    0    2   16     19.98      0.00
    2    2   16     -4.88      0.00
    4    2   16     14.92      0.00
    6    2   16    -10.12      0.00
    8    2   16     15.83      0.00
   10    2   16      0.78      0.00
   12    2   16     10.47      0.00
   14    2   16      0.04      0.00
   16    2   16     12.59      0.00
   18    2   16      1.04      0.00
   20    2   16     13.09      0.00
   22    2   16      5.16      0.00
   24    2   16     -1.16      0.00
   26    2   16      4.17      0.00
   28    2   16     -5.75      0.00
   30    2   16     -6.93      0.00
   32    2   16      0.63      0.00
   34    2   16     -4.89      0.00
   36    2   16      4.81      0.00
   38    2   16      2.13      0.00
   40    2   16      5.59      0.00
   42    2   16      5.33      0.00
   44    2   16     -5.57      0.00
   46    2   16     -3.76      0.00
   48    2   16    -26.79      0.00
   50    2   16     -5.55      0.00
    1    3   16     17.03      0.00
    3    3   16     19.81      0.00
    5    3   16      9.89      0.00
    7    3   16     14.63      0.00
    9    3   16      6.64      0.00
   11    3   16      8.55      0.00
   13    3   16     15.67      0.00
   15    3   16      2.51      0.00
   17    3   16     11.10      0.00
   19    3   16      4.62      0.00
   21    3   16      4.13      0.00
   23    3   16     12.80      0.00
   25    3   16      4.59      0.00
   27    3   16      9.77      0.00
   29    3   16      5.21      0.00
   31    3   16      4.06      0.00
   33    3   16     -9.06      0.00
   35    3   16     -4.28      0.00
   37    3   16    -11.77      0.00
   39    3   16      4.13      0.00
   41    3   16      3.14      0.00
   43    3   16      6.53      0.00
   45    3   16     -0.23      0.00
   47    3   16      3.67      0.00
   49    3   16      8.68      0.00
   51    3   16      8.71      0.00
    0    4   16      6.34      0.00
    2    4   16     -9.95      0.00
    4    4   16      6.18      0.00
    6    4   16     -3.88      0.00
    8    4   16      7.61      0.00
   10    4   16     -2.20      0.00
   12    4   16     -5.00      0.00
   14    4   16     -8.95      0.00
   16    4   16     -6.89      0.00
   18    4   16     -2.79      0.00
   20    4   16     -0.88      0.00
   22    4   16     -5.67      0.00
   24    4   16    -10.69      0.00
   26    4   16     -8.36      0.00
   28    4   16     -4.14      0.00
   30    4   16      1.70      0.00
   32    4   16      8.89      0.00
   34    4   16      0.30      0.00
   36    4   16     -5.73      0.00
   38    4   16     -6.94      0.00
   40    4   16     -8.74      0.00
   42    4   16      2.85      0.00
   44    4   16      4.15      0.00
   46    4   16     -1.24      0.00
   48    4   16     -6.31      0.00
   50    4   16     -8.58      0.00
    1    5   16      2.71      0.00
    3    5   16      2.89      0.00
    5    5   16     -6.18      0.00
    7    5   16     -4.25      0.00
    9    5   16     -8.48      0.00
   11    5   16     -1.14      0.00
   13    5   16      6.86      0.00
   15    5   16     -4.15      0.00
   17    5   16      3.61      0.00
   19    5   16    -13.69      0.00
   21    5   16      6.31      0.00
   23    5   16      1.45      0.00
   25    5   16      2.26      0.00
   27    5   16      7.72      0.00
   29    5   16     -8.00      0.00
   31    5   16      1.78      0.00
   33    5   16     -2.04      0.00
   35    5   16     -2.93      0.00
   37    5   16     -1.12      0.00
   39    5   16     -2.96      0.00
   41    5   16     -1.88      0.00
   43    5   16    -14.30      0.00
   45    5   16      1.96      0.00
   47    5   16    -12.57      0.00
   49    5   16     12.71      0.00
    0    6   16    -16.62      0.00
    2    6   16     -6.82      0.00
    4    6   16     -5.66      0.00
    6    6   16      5.57      0.00
    8    6   16      1.83      0.00
   10    6   16      0.38      0.00
   12    6   16     -4.18      0.00
   14    6   16      1.05      0.00
   16    6   16      1.53      0.00
   18    6   16     16.65      0.00
   20    6   16      5.71      0.00
   22    6   16      9.08      0.00
   24    6   16     -0.84      0.00
   26    6   16     -3.10      0.00
   28    6   16     -4.99      0.00
   30    6   16      3.86      0.00
   32    6   16     -5.83      0.00
   34    6   16      2.65      0.00
   36    6   16     -4.63      0.00
   38    6   16     -6.18      0.00
   40    6   16     -5.20      0.00
   42    6   16      0.70      0.00
   44    6   16     -1.80      0.00
   46    6   16      9.33      0.00
   48    6   16      2.39      0.00
    1    7   16     13.89      0.00
    3    7   16      0.59      0.00
    5    7   16      8.18      0.00
    7    7   16    -13.38      0.00
    9    7   16      6.18      0.00
   11    7   16      5.39      0.00
   13    7   16     14.61      0.00
   15    7   16      9.05      0.00
   17    7   16      3.60      0.00
   19    7   16     -0.06      0.00
   21    7   16      5.65      0.00
   23    7   16     11.86      0.00
   25    7   16     -0.01      0.00
   27    7   16     -1.36      0.00
   29    7   16    -10.09      0.00
   31    7   16     -6.90      0.00
   33    7   16     -1.65      0.00
   35    7   16     -2.57      0.00
   37    7   16      0.16      0.00
   39    7   16      5.09      0.00
   41    7   16      3.98      0.00
   43    7   16      6.80      0.00
   45    7   16      0.53      0.00
   47    7   16     -8.33      0.00
    0    8   16     -7.26      0.00
    2    8   16      7.62      0.00
    4    8   16      3.02      0.00
    6    8   16      8.53      0.00
    8    8   16      7.99      0.00
   10    8   16     -9.92      0.00
   12    8   16      1.36      0.00
   14    8   16    -15.46      0.00
   16    8   16     -1.96      0.00
   18    8   16     -5.08      0.00
   20    8   16     -3.75      0.00
   22    8   16     -2.42      0.00
   24    8   16    -10.04      0.00
   26    8   16     -4.78      0.00
   28    8   16     -8.15      0.00
   30    8   16     -0.46      0.00
   32    8   16     -5.20      0.00
   34    8   16     -5.75      0.00
   36    8   16    -10.66      0.00
   38    8   16     -5.80      0.00
   40    8   16     -5.55      0.00
   42    8   16      6.07      0.00
   44    8   16      0.67      0.00
   46    8   16      9.46      0.00
    1    9   16      4.64      0.00
    3    9   16      1.05      0.00
    5    9   16      1.19      0.00
    7    9   16     -8.93      0.00
    9    9   16     -4.23      0.00
   11    9   16     -6.08      0.00
   13    9   16    -10.68      0.00
   15    9   16     -7.85      0.00
   17    9   16    -21.96      0.00
   19    9   16     -8.79      0.00
   21    9   16     -9.07      0.00
   23    9   16      1.38      0.00
   25    9   16     -5.28      0.00
   27    9   16     -2.91      0.00
   29    9   16     -5.29      0.00
   31    9   16      3.91      0.00
   33    9   16     -1.69      0.00
   35    9   16      4.21      0.00
   37    9   16     -4.60      0.00
   39    9   16      8.27      0.00
   41    9   16      9.84      0.00
   43    9   16     12.62      0.00
   45    9   16      4.52      0.00
    0   10   16     -5.42      0.00
    2   10   16     -2.69      0.00
    4   10   16     -9.97      0.00
    6   10   16     -3.66      0.00
    8   10   16    -10.05      0.00
   10   10   16     -4.58      0.00
   12   10   16      4.80      0.00
   14   10   16     -9.83      0.00
   16   10   16      1.70      0.00
   18   10   16    -14.07      0.00
   20   10   16     -5.23      0.00
   22   10   16     -7.51      0.00
   24   10   16     -5.80      0.00
   26   10   16    -18.99      0.00
   28   10   16      0.91      0.00
   30   10   16    -23.93      0.00
   32   10   16     16.56      0.00
   34   10   16    -17.34      0.00
   36   10   16      8.70      0.00
   38   10   16     -7.39      0.00
   40   10   16     -2.87      0.00
   42   10   16      2.37      0.00
   44   10   16     -1.96      0.00
    1   11   16    -14.96      0.00
    3   11   16     -4.00      0.00
    5   11   16    -15.97      0.00
    7   11   16     -4.52      0.00
    9   11   16     -8.18      0.00
   11   11   16     -5.40      0.00
   13   11   16      7.36      0.00
   15   11   16     -3.16      0.00
   17   11   16     -2.81      0.00
   19   11   16     -8.01      0.00
   21   11   16     -9.85      0.00
   23   11   16      3.58      0.00
   25   11   16     -8.16      0.00
   27   11   16     11.05      0.00
   29   11   16     -4.79      0.00
   31   11   16     11.33      0.00
   33   11   16      2.85      0.00
   35   11   16      4.95      0.00
   37   11   16     -2.79      0.00
   39   11   16      2.47      0.00
   41   11   16     -1.53      0.00
   43   11   16     -0.18      0.00
    0   12   16      6.20      0.00
    2   12   16     14.12      0.00
    4   12   16      0.38      0.00
    6   12   16     -4.24      0.00
    8   12   16     -4.68      0.00
   10   12   16     -6.11      0.00
   12   12   16      0.37      0.00
   14   12   16     -1.55      0.00
   16   12   16     -4.37      0.00
   18   12   16     -4.77      0.00
   20   12   16      1.38      0.00
   22   12   16      1.38      0.00
   24   12   16     10.48      0.00
   26   12   16     -0.13      0.00
   28   12   16      5.64      0.00
   30   12   16      0.48      0.00
   32   12   16      2.79      0.00
   34   12   16     -0.04      0.00
   36   12   16      0.62      0.00
   38   12   16     -1.03      0.00
   40   12   16     -0.15      0.00
    1   13   16     -5.09      0.00
    3   13   16     -5.32      0.00
    5   13   16     -5.46      0.00
    7   13   16     -9.75      0.00
    9   13   16    -12.92      0.00
   11   13   16    -10.74      0.00
   13   13   16    -10.30      0.00
   15   13   16     -7.09      0.00
   17   13   16     -6.67      0.00
   19   13   16     -7.80      0.00
   21   13   16     -5.92      0.00
   23   13   16     -6.55      0.00
   25   13   16     -4.85      0.00
   27   13   16     -6.41      0.00
   29   13   16     -3.48      0.00
   31   13   16     -6.31      0.00
   33   13   16     -6.48      0.00
   35   13   16    -10.12      0.00
   37   13   16     -3.52      0.00
   39   13   16     -3.59      0.00
    0   14   16      4.07      0.00
    2   14   16     -2.95      0.00
    4   14   16      6.87      0.00
    6   14   16     -4.38      0.00
    8   14   16      6.79      0.00
   10   14   16     -8.09      0.00
   12   14   16     10.09      0.00
   14   14   16     -0.16      0.00
   16   14   16     11.15      0.00
   18   14   16     -1.07      0.00
   20   14   16      4.23      0.00
   22   14   16     -3.04      0.00
   24   14   16     -2.48      0.00
   26   14   16      7.70      0.00
   28   14   16      0.16      0.00
   30   14   16     12.77      0.00
   32   14   16     10.33      0.00
   34   14   16      1.61      0.00
   36   14   16     12.95      0.00
    1   15   16     -6.47      0.00
    3   15   16    -10.95      0.00
    5   15   16     -3.45      0.00
    7   15   16    -11.36      0.00
    9   15   16     -2.03      0.00
   11   15   16     -4.90      0.00
   13   15   16     -5.87      0.00
   15   15   16     -1.25      0.00
   17   15   16     -8.33      0.00
   19   15   16     -3.15      0.00
   21   15   16     -6.34      0.00
   23   15   16     -9.01      0.00
   25   15   16     -7.11      0.00
   27   15   16     -2.77      0.00
   29   15   16     -0.55      0.00
   31   15   16      5.08      0.00
   33   15   16     -0.51      0.00
    0   16   16      6.48      0.00
    2   16   16     -0.79      0.00
    4   16   16      7.92      0.00
    6   16   16      8.00      0.00
    8   16   16      5.00      0.00
   10   16   16      7.72      0.00
   12   16   16      7.78      0.00
   14   16   16      3.27      0.00
   16   16   16      8.61      0.00
   18   16   16      0.34      0.00
   20   16   16      3.13      0.00
   22   16   16      7.06      0.00
   24   16   16     11.39      0.00
   26   16   16      7.77      0.00
   28   16   16     15.59      0.00
   30   16   16     -0.52      0.00
    1   17   16      3.24      0.00
    3   17   16      0.98      0.00
    5   17   16      3.08      0.00
    7   17   16      2.61      0.00
    9   17   16     -3.36      0.00
   11   17   16     -2.67      0.00
   13   17   16     -8.24      0.00
   15   17   16     -8.75      0.00
   17   17   16     -2.91      0.00
   19   17   16      1.05      0.00
   21   17   16     -0.35      0.00
   23   17   16      3.77      0.00
   25   17   16     -8.04      0.00
   27   17   16      0.72      0.00
    0   18   16      3.36      0.00
    2   18   16      7.98      0.00
    4   18   16      3.83      0.00
    6   18   16     -0.98      0.00
    8   18   16      1.15      0.00
   10   18   16     -7.70      0.00
   12   18   16     -4.78      0.00
   14   18   16      2.19      0.00
   16   18   16    -12.45      0.00
   18   18   16     12.00      0.00
   20   18   16     -7.91      0.00
   22   18   16     16.83      0.00
    1   19   16     -3.98      0.00
    3   19   16     -0.26      0.00
    5   19   16     -5.87      0.00
    7   19   16      1.61      0.00
    9   19   16     -5.95      0.00
   11   19   16     -3.84      0.00
   13   19   16    -12.63      0.00
   15   19   16    -12.04      0.00
    0   20   16      8.99      0.00
    2   20   16      5.77      0.00
    4   20   16      9.52      0.00
    1    1   17     15.04      0.00
    3    1   17     18.06      0.00
    5    1   17     11.52      0.00
    7    1   17     16.07      0.00
    9    1   17    -13.29      0.00
   11    1   17      9.34      0.00
   13    1   17    -19.51      0.00
   15    1   17     12.34      0.00
   17    1   17     -1.65      0.00
   19    1   17      3.54      0.00
   21    1   17     -0.71      0.00
   23    1   17     -6.53      0.00
   25    1   17     -7.21      0.00
   27    1   17      4.10      0.00
   29    1   17     -2.94      0.00
   31    1   17      7.82      0.00
   33    1   17      0.81      0.00
    0    2   17    -15.00      0.00
    2    2   17      5.29      0.00
    4    2   17    -11.52      0.00
    6    2   17      7.63      0.00
    8    2   17     -4.99      0.00
   10    2   17     13.45      0.00
   12    2   17     -6.90      0.00
   14    2   17      9.48      0.00
   16    2   17     -7.79      0.00
   18    2   17      4.15      0.00
   20    2   17     -0.05      0.00
   22    2   17     -1.36      0.00
   24    2   17      9.25      0.00
   26    2   17     -2.83      0.00
   28    2   17     -2.78      0.00
   30    2   17      3.85      0.00
   32    2   17     -5.41      0.00
   34    2   17     12.83      0.00
   38    2   17     -0.84      0.00
   40    2   17     -7.19      0.00
   42    2   17     -2.98      0.00
   44    2   17     -2.51      0.00
   46    2   17      9.43      0.00
   48    2   17      8.07      0.00
   50    2   17      1.29      0.00
    1    3   17      1.29      0.00
    3    3   17      0.69      0.00
    5    3   17      2.01      0.00
    7    3   17     -9.65      0.00
    9    3   17      5.13      0.00
   11    3   17     -9.13      0.00
   13    3   17      2.09      0.00
   15    3   17      0.67      0.00
   17    3   17     -7.67      0.00
   19    3   17     -4.27      0.00
   21    3   17     -7.24      0.00
   23    3   17     -2.57      0.00
   25    3   17     -3.67      0.00
   27    3   17      6.64      0.00
   29    3   17     -9.25      0.00
   31    3   17     -0.46      0.00
   33    3   17     -1.73      0.00
   35    3   17      1.85      0.00
   37    3   17     12.82      0.00
   39    3   17      6.25      0.00
   41    3   17      1.51      0.00
   43    3   17     -0.05      0.00
   45    3   17      5.50      0.00
   47    3   17     11.83      0.00
   49    3   17     11.60      0.00
    0    4   17    -20.92      0.00
    2    4   17      6.33      0.00
    4    4   17    -12.68      0.00
    6    4   17      8.17      0.00
    8    4   17      7.38      0.00
   10    4   17     -1.58      0.00
   12    4   17     11.39      0.00
   14    4   17     -1.62      0.00
   16    4   17     14.50      0.00
   18    4   17     17.76      0.00
   20    4   17     11.78      0.00
   22    4   17     12.83      0.00
   24    4   17     -0.27      0.00
   26    4   17     -2.77      0.00
   28    4   17     -3.27      0.00
   30    4   17    -10.88      0.00
   32    4   17     -1.18      0.00
   34    4   17     -2.24      0.00
   36    4   17     -0.76      0.00
   38    4   17     -1.59      0.00
   40    4   17      3.33      0.00
   42    4   17      2.37      0.00
   44    4   17     12.54      0.00
   46    4   17      1.38      0.00
   48    4   17     -3.69      0.00
    1    5   17      4.83      0.00
    3    5   17     -5.69      0.00
    5    5   17      0.39      0.00
    7    5   17    -11.93      0.00
    9    5   17     -2.25      0.00
   11    5   17     -4.38      0.00
   13    5   17      5.75      0.00
   15    5   17     -0.50      0.00
   17    5   17      2.89      0.00
   19    5   17     -4.92      0.00
   21    5   17     -7.07      0.00
   23    5   17     -2.32      0.00
   25    5   17      6.10      0.00
   27    5   17      4.24      0.00
   29    5   17     11.57      0.00
   31    5   17     -6.26      0.00
   33    5   17     -0.10      0.00
   35    5   17     -2.92      0.00
   37    5   17      8.86      0.00
   39    5   17      9.39      0.00
   41    5   17     -1.86      0.00
   43    5   17     -3.60      0.00
   45    5   17    -20.65      0.00
   47    5   17     -2.95      0.00
    0    6   17     -3.31      0.00
    2    6   17     -1.67      0.00
    4    6   17      4.83      0.00
    6    6   17      4.22      0.00
    8    6   17      8.77      0.00
   10    6   17    -16.01      0.00
   12    6   17     -8.09      0.00
   14    6   17    -34.90      0.00
   16    6   17      1.74      0.00
   18    6   17    -18.68      0.00
   20    6   17      4.98      0.00
   22    6   17    -13.99      0.00
   24    6   17     -3.47      0.00
   26    6   17     -6.48      0.00
   28    6   17      9.59      0.00
   30    6   17     -4.05      0.00
   32    6   17     12.75      0.00
   34    6   17     -3.29      0.00
   36    6   17      8.11      0.00
   38    6   17     -2.08      0.00
   40    6   17      8.39      0.00
   42    6   17     -1.08      0.00
   44    6   17     12.39      0.00
   46    6   17      1.57      0.00
   48    6   17     -1.51      0.00
    1    7   17     20.24      0.00
    3    7   17     17.82      0.00
    5    7   17     -2.24      0.00
    7    7   17      4.01      0.00
    9    7   17      0.63      0.00
   11    7   17      6.68      0.00
   13    7   17      9.39      0.00
   15    7   17      3.10      0.00
   17    7   17     -3.14      0.00
   19    7   17     -5.55      0.00
   21    7   17     -7.95      0.00
   23    7   17      1.18      0.00
   25    7   17     11.51      0.00
   27    7   17      8.60      0.00
   29    7   17     12.14      0.00
   31    7   17      2.85      0.00
   33    7   17     -0.41      0.00
   35    7   17     10.25      0.00
   37    7   17      6.98      0.00
   39    7   17     10.57      0.00
   41    7   17      7.36      0.00
   43    7   17     -8.62      0.00
   45    7   17     -8.80      0.00
   47    7   17     -9.70      0.00
    0    8   17    -26.09      0.00
    2    8   17    -15.55      0.00
    4    8   17    -13.32      0.00
    6    8   17      4.04      0.00
    8    8   17     -9.78      0.00
   10    8   17     -5.08      0.00
   12    8   17    -18.76      0.00
   14    8   17    -11.02      0.00
   16    8   17      8.17      0.00
   18    8   17      3.34      0.00
   20    8   17     11.04      0.00
   22    8   17    -10.18      0.00
   24    8   17      2.29      0.00
   26    8   17     -8.36      0.00
   28    8   17      5.97      0.00
   30    8   17     -5.43      0.00
   32    8   17     -8.72      0.00
   34    8   17     -6.06      0.00
   36    8   17     -8.39      0.00
   38    8   17     -8.08      0.00
   40    8   17    -10.24      0.00
   42    8   17    -11.82      0.00
   44    8   17      1.10      0.00
   46    8   17      3.95      0.00
    1    9   17     20.56      0.00
    3    9   17      9.85      0.00
    5    9   17     -0.17      0.00
    7    9   17     -0.98      0.00
    9    9   17     -7.40      0.00
   11    9   17      2.16      0.00
   13    9   17     -0.01      0.00
   15    9   17     -4.08      0.00
   17    9   17      4.33      0.00
   19    9   17     -8.72      0.00
   21    9   17     -2.83      0.00
   23    9   17     -1.91      0.00
   25    9   17     -7.44      0.00
   27    9   17      4.61      0.00
   29    9   17    -14.50      0.00
   31    9   17     -5.29      0.00
   33    9   17     -8.39      0.00
   35    9   17     -4.62      0.00
   37    9   17      8.59      0.00
   39    9   17      4.51      0.00
   41    9   17      3.30      0.00
   43    9   17      6.48      0.00
   45    9   17     -7.00      0.00
    0   10   17     -7.80      0.00
    2   10   17     14.59      0.00
    4   10   17      3.33      0.00
    6   10   17      7.25      0.00
    8   10   17      7.67      0.00
   10   10   17    -15.69      0.00
   12   10   17    -13.44      0.00
   14   10   17    -20.57      0.00
   16   10   17     -3.82      0.00
   18   10   17     -0.24      0.00
   20   10   17      2.23      0.00
   22   10   17     -3.81      0.00
   24   10   17     -9.34      0.00
   26   10   17      0.36      0.00
   28   10   17     -0.65      0.00
   30   10   17     -0.77      0.00
   32   10   17     -1.44      0.00
   34   10   17     -8.75      0.00
   36   10   17      0.93      0.00
   38   10   17     -8.30      0.00
   40   10   17      5.60      0.00
   42   10   17     -5.95      0.00
    1   11   17    -13.14      0.00
    3   11   17     -8.97      0.00
    5   11   17     -8.19      0.00
    7   11   17      3.62      0.00
    9   11   17     -3.65      0.00
   11   11   17      4.34      0.00
   13   11   17     -7.83      0.00
   15   11   17      2.02      0.00
   17   11   17      1.27      0.00
   19   11   17      4.57      0.00
   21   11   17     -4.34      0.00
   23   11   17      3.32      0.00
   25   11   17    -10.80      0.00
   27   11   17      6.23      0.00
   29   11   17     -4.31      0.00
   31   11   17     -0.03      0.00
   33   11   17      0.22      0.00
   35   11   17     -5.72      0.00
   37   11   17      1.83      0.00
   39   11   17     -4.77      0.00
   41   11   17      0.49      0.00
    0   12   17    -12.42      0.00
    2   12   17      5.72      0.00
    4   12   17    -11.31      0.00
    6   12   17     -4.81      0.00
    8   12   17     -4.32      0.00
   10   12   17    -14.28      0.00
   12   12   17     -8.04      0.00
   14   12   17    -17.42      0.00
   16   12   17     -9.67      0.00
   18   12   17     -2.41      0.00
   20   12   17     -9.06      0.00
   22   12   17      0.48      0.00
   24   12   17    -12.01      0.00
   26   12   17     -5.88      0.00
   28   12   17     -9.35      0.00
   30   12   17    -14.38      0.00
   32   12   17    -11.04      0.00
   34   12   17    -13.56      0.00
   36   12   17    -12.31      0.00
   38   12   17     -5.51      0.00
   40   12   17    -12.88      0.00
    1   13   17     -7.05      0.00
    3   13   17      1.62      0.00
    5   13   17     -2.23      0.00
    7   13   17      8.94      0.00
    9   13   17      0.54      0.00
   11   13   17     -7.48      0.00
   13   13   17     -5.90      0.00
   15   13   17    -12.99      0.00
   17   13   17     -6.68      0.00
   19   13   17     -2.65      0.00
   21   13   17     -5.12      0.00
   23   13   17      0.87      0.00
   25   13   17     -1.56      0.00
   27   13   17      0.60      0.00
   29   13   17    -15.43      0.00
   31   13   17     -1.72      0.00
   33   13   17    -22.63      0.00
   35   13   17     -1.14      0.00
   37   13   17    -10.89      0.00
    0   14   17     -1.58      0.00
    2   14   17      2.17      0.00
    4   14   17     -4.54      0.00
    6   14   17     -1.08      0.00
    8   14   17     -6.37      0.00
   10   14   17      0.49      0.00
   12   14   17     -7.31      0.00
   14   14   17     -4.35      0.00
   16   14   17     -8.46      0.00
   18   14   17     -9.58      0.00
   20   14   17     -6.81      0.00
   22   14   17     -6.09      0.00
   24   14   17     -2.63      0.00
   26   14   17     -4.98      0.00
   28   14   17     -4.33      0.00
   30   14   17     -8.78      0.00
   32   14   17      4.23      0.00
   34   14   17     -6.77      0.00
    1   15   17      3.34      0.00
    3   15   17     -1.65      0.00
    5   15   17     -3.05      0.00
    7   15   17     -0.21      0.00
    9   15   17     -3.26      0.00
   11   15   17      8.36      0.00
   13   15   17     -8.83      0.00
   15   15   17      4.85      0.00
   17   15   17     -4.69      0.00
   19   15   17      3.11      0.00
   21   15   17      4.59      0.00
   23   15   17      0.51      0.00
   25   15   17     -1.98      0.00
   27   15   17     -2.55      0.00
   29   15   17    -13.68      0.00
   31   15   17     -2.12      0.00
    0   16   17      5.34      0.00
    2   16   17     -0.82      0.00
    4   16   17      3.71      0.00
    6   16   17      4.64      0.00
    8   16   17      3.89      0.00
   10   16   17      4.72      0.00
   12   16   17      8.53      0.00
   14   16   17      3.53      0.00
   16   16   17      8.85      0.00
   18   16   17     -0.72      0.00
   20   16   17      5.82      0.00
   22   16   17     -1.60      0.00
   24   16   17      4.78      0.00
   26   16   17     -5.69      0.00
   28   16   17     -1.45      0.00
    1   17   17      3.90      0.00
    3   17   17      0.01      0.00
    5   17   17     -3.20      0.00
    7   17   17     -1.00      0.00
    9   17   17      1.37      0.00
   11   17   17      3.70      0.00
   13   17   17      8.91      0.00
   15   17   17      1.78      0.00
   17   17   17     10.46      0.00
   19   17   17      4.45      0.00
   21   17   17     -3.96      0.00
   23   17   17      0.95      0.00
   25   17   17    -17.58      0.00
    0   18   17      7.56      0.00
    2   18   17     10.22      0.00
    4   18   17      3.69      0.00
    6   18   17      6.64      0.00
    8   18   17     -6.86      0.00
   10   18   17      1.06      0.00
   12   18   17     -1.89      0.00
   14   18   17      6.91      0.00
   16   18   17      5.65      0.00
   18   18   17      3.62      0.00
   20   18   17     -3.80      0.00
    1   19   17     -4.21      0.00
    3   19   17      1.16      0.00
    5   19   17     -9.22      0.00
    7   19   17     -2.26      0.00
    9   19   17     -7.33      0.00
   11   19   17    -11.65      0.00
   13   19   17     -2.45      0.00
    0    0   18    -18.24      0.00
    2    0   18      1.84      0.00
    4    0   18    -27.73      0.00
    6    0   18      2.82      0.00
    8    0   18    -25.07      0.00
   10    0   18     -4.79      0.00
   12    0   18     -5.79      0.00
   14    0   18    -27.82      0.00
   16    0   18     -9.17      0.00
   18    0   18    -32.17      0.00
   20    0   18     -9.62      0.00
   22    0   18     -4.85      0.00
   24    0   18     -5.50      0.00
   26    0   18     -1.63      0.00
   28    0   18    -13.43      0.00
   32    0   18     -6.36      0.00
   34    0   18     -5.42      0.00
    1    1   18     -2.47      0.00
    3    1   18     -6.06      0.00
    5    1   18      4.66      0.00
    7    1   18     -6.52      0.00
    9    1   18     -0.20      0.00
   11    1   18     -4.62      0.00
   13    1   18     -8.67      0.00
   15    1   18      1.26      0.00
   17    1   18     -5.80      0.00
   19    1   18      4.35      0.00
   21    1   18     -4.72      0.00
   23    1   18     -3.30      0.00
   25    1   18     -2.12      0.00
   27    1   18     -7.93      0.00
   29    1   18     -2.41      0.00
   31    1   18    -10.16      0.00
    0    2   18    -10.99      0.00
    2    2   18    -11.77      0.00
    4    2   18     -6.89      0.00
    6    2   18     -9.04      0.00
    8    2   18     -2.72      0.00
   10    2   18      5.69      0.00
   12    2   18     -5.39      0.00
   14    2   18      2.37      0.00
   16    2   18    -10.42      0.00
   18    2   18    -10.45      0.00
   20    2   18     -8.69      0.00
   22    2   18      1.82      0.00
   24    2   18    -10.87      0.00
   26    2   18      5.30      0.00
   28    2   18     -8.12      0.00
   30    2   18      1.57      0.00
   32    2   18      8.06      0.00
   38    2   18     -4.80      0.00
   44    2   18    -21.60      0.00
   48    2   18    -41.49      0.00
    1    3   18     18.72      0.00
    3    3   18     19.98      0.00
    5    3   18     10.22      0.00
    7    3   18     11.29      0.00
    9    3   18      4.47      0.00
   11    3   18      4.94      0.00
   13    3   18     12.00      0.00
   15    3   18      2.80      0.00
   17    3   18     10.22      0.00
   19    3   18      2.12      0.00
   21    3   18      0.39      0.00
   23    3   18      3.18      0.00
   25    3   18      0.75      0.00
   27    3   18      5.24      0.00
   29    3   18     10.54      0.00
   31    3   18      7.42      0.00
   33    3   18      4.42      0.00
    0    4   18      6.53      0.00
    2    4   18    -22.62      0.00
    4    4   18      7.17      0.00
    6    4   18    -13.04      0.00
    8    4   18      4.84      0.00
   10    4   18     -5.29      0.00
   12    4   18      1.63      0.00
   14    4   18     -2.82      0.00
   16    4   18     -1.50      0.00
   18    4   18      0.76      0.00
   20    4   18      3.39      0.00
   22    4   18      8.13      0.00
   24    4   18      0.91      0.00
   26    4   18     -1.96      0.00
   28    4   18     -7.97      0.00
   30    4   18     -1.48      0.00
   32    4   18      1.36      0.00
   34    4   18      2.69      0.00
   42    4   18      2.02      0.00
   44    4   18     17.85      0.00
   46    4   18     -1.23      0.00
   48    4   18      9.48      0.00
    1    5   18     -0.67      0.00
    3    5   18      3.91      0.00
    5    5   18    -16.40      0.00
    7    5   18     -3.69      0.00
    9    5   18    -18.33      0.00
   11    5   18     -4.76      0.00
   13    5   18      3.85      0.00
   15    5   18     -8.18      0.00
   17    5   18      3.99      0.00
   19    5   18    -15.19      0.00
   21    5   18     -0.70      0.00
   23    5   18     -3.27      0.00
   25    5   18     -5.62      0.00
   27    5   18      6.90      0.00
   29    5   18     -9.34      0.00
   31    5   18      5.67      0.00
   33    5   18      1.13      0.00
   39    5   18      4.80      0.00
   41    5   18     -1.48      0.00
   43    5   18    -11.77      0.00
   45    5   18      8.03      0.00
   47    5   18     -3.12      0.00
    0    6   18      5.78      0.00
    2    6   18      0.08      0.00
    4    6   18     11.51      0.00
    6    6   18     11.47      0.00
    8    6   18     15.90      0.00
   10    6   18     13.68      0.00
   12    6   18      9.69      0.00
   14    6   18     12.48      0.00
   16    6   18      2.59      0.00
   18    6   18     16.24      0.00
   20    6   18     11.84      0.00
   22    6   18     15.46      0.00
   24    6   18      8.99      0.00
   26    6   18     -2.92      0.00
   28    6   18     -6.82      0.00
   30    6   18      5.88      0.00
   32    6   18      7.22      0.00
   34    6   18     12.76      0.00
   36    6   18      2.85      0.00
   38    6   18    -17.53      0.00
   40    6   18     -2.31      0.00
   42    6   18     -1.86      0.00
   44    6   18     18.52      0.00
   46    6   18     12.49      0.00
    1    7   18     12.04      0.00
    3    7   18     -4.71      0.00
    5    7   18      2.29      0.00
    7    7   18    -18.62      0.00
    9    7   18      1.30      0.00
   11    7   18      3.54      0.00
   13    7   18      7.36      0.00
   15    7   18      4.10      0.00
   17    7   18     -1.52      0.00
   19    7   18     -3.25      0.00
   21    7   18      4.71      0.00
   23    7   18      8.15      0.00
   25    7   18      5.85      0.00
   27    7   18      4.87      0.00
   29    7   18      6.00      0.00
   31    7   18      5.13      0.00
   33    7   18      1.51      0.00
   35    7   18      3.62      0.00
   37    7   18     -6.41      0.00
   39    7   18      5.48      0.00
   41    7   18     -4.94      0.00
   43    7   18     -2.04      0.00
   45    7   18     -5.99      0.00
    0    8   18    -18.55      0.00
    2    8   18      1.34      0.00
    4    8   18      1.21      0.00
    6    8   18     12.11      0.00
    8    8   18     14.07      0.00
   10    8   18     -0.07      0.00
   12    8   18      5.84      0.00
   14    8   18     -3.12      0.00
   16    8   18      7.02      0.00
   18    8   18      7.43      0.00
   20    8   18     12.51      0.00
   22    8   18      6.45      0.00
   24    8   18      1.41      0.00
   26    8   18     -5.05      0.00
   28    8   18     -7.71      0.00
   30    8   18      0.67      0.00
   32    8   18      3.87      0.00
   34    8   18      5.74      0.00
   36    8   18     -1.04      0.00
   38    8   18     -7.45      0.00
   40    8   18    -10.74      0.00
   42    8   18     -0.67      0.00
   44    8   18      0.87      0.00
    1    9   18     26.23      0.00
    3    9   18     16.58      0.00
    5    9   18      0.87      0.00
    7    9   18     -7.80      0.00
    9    9   18     -0.87      0.00
   11    9   18      4.12      0.00
   13    9   18      4.20      0.00
   15    9   18     -3.07      0.00
   17    9   18    -22.37      0.00
   19    9   18    -16.60      0.00
   21    9   18    -12.37      0.00
   23    9   18      0.49      0.00
   25    9   18      1.79      0.00
   27    9   18     -7.41      0.00
   29    9   18     -8.90      0.00
   31    9   18    -12.37      0.00
   33    9   18    -10.18      0.00
   35    9   18      3.15      0.00
   37    9   18     -3.33      0.00
   39    9   18     11.97      0.00
   41    9   18      5.19      0.00
   43    9   18      3.82      0.00
    0   10   18      1.91      0.00
    2   10   18      2.91      0.00
    4   10   18      8.71      0.00
    6   10   18     13.06      0.00
    8   10   18      7.71      0.00
   10   10   18      1.33      0.00
   12   10   18     11.06      0.00
   14   10   18     -5.51      0.00
   18   10   18     -2.24      0.00
   20   10   18      8.93      0.00
   22   10   18      1.85      0.00
   24   10   18      8.40      0.00
   26   10   18     -6.90      0.00
   28   10   18     10.64      0.00
   30   10   18    -11.17      0.00
   32   10   18     13.02      0.00
   34   10   18      0.67      0.00
   36   10   18      4.85      0.00
   38   10   18      6.67      0.00
   40   10   18     -6.77      0.00
   42   10   18      9.43      0.00
    1   11   18     12.81      0.00
    3   11   18     12.16      0.00
    5   11   18     -5.35      0.00
    7   11   18      0.05      0.00
    9   11   18      1.42      0.00
   11   11   18      8.67      0.00
   13   11   18     19.15      0.00
   15   11   18      5.52      0.00
   17   11   18      3.60      0.00
   19   11   18     -4.22      0.00
   21   11   18      1.35      0.00
   23   11   18      7.10      0.00
   25   11   18     -0.91      0.00
   27   11   18      7.23      0.00
   29   11   18     -9.46      0.00
   31   11   18      8.07      0.00
   33   11   18      3.50      0.00
   35   11   18     11.59      0.00
   37   11   18      5.90      0.00
   39   11   18      6.30      0.00
    0   12   18     -1.67      0.00
    2   12   18     14.53      0.00
    4   12   18     -3.22      0.00
    6   12   18     -0.18      0.00
    8   12   18     -2.35      0.00
   10   12   18     -6.87      0.00
   12   12   18      3.92      0.00
   14   12   18     -2.27      0.00
   16   12   18      0.84      0.00
   18   12   18     -0.86      0.00
   20   12   18      2.11      0.00
   22   12   18      0.60      0.00
   24   12   18      7.14      0.00
   26   12   18     -1.68      0.00
   28   12   18      6.23      0.00
   30   12   18     -3.28      0.00
   32   12   18      2.67      0.00
   34   12   18     -3.41      0.00
   36   12   18      1.42      0.00
   38   12   18     -0.79      0.00
    1   13   18      0.51      0.00
    3   13   18      3.87      0.00
    5   13   18      3.97      0.00
    7   13   18      2.10      0.00
    9   13   18     -0.48      0.00
   11   13   18     -4.42      0.00
   13   13   18     -4.37      0.00
   15   13   18     -3.40      0.00
   17   13   18     -1.92      0.00
   19   13   18      0.42      0.00
   21   13   18     -3.31      0.00
   23   13   18      1.37      0.00
   25   13   18     -7.55      0.00
   27   13   18     -3.86      0.00
   29   13   18     -8.83      0.00
   31   13   18    -13.43      0.00
   33   13   18    -14.90      0.00
   35   13   18    -18.30      0.00
    0   14   18      9.44      0.00
    2   14   18      0.27      0.00
    4   14   18      5.94      0.00
    6   14   18     -4.59      0.00
    8   14   18      4.30      0.00
   10   14   18     -2.64      0.00
   12   14   18     10.57      0.00
   14   14   18      3.11      0.00
   16   14   18      9.18      0.00
   18   14   18     -0.90      0.00
   20   14   18      4.24      0.00
   22   14   18     -3.50      0.00
   24   14   18     -4.29      0.00
   26   14   18      5.14      0.00
   28   14   18     -4.72      0.00
   30   14   18     11.69      0.00
   32   14   18      4.11      0.00
   34   14   18     -1.59      0.00
    1   15   18     -1.71      0.00
    3   15   18     -1.66      0.00
    5   15   18      5.58      0.00
    7   15   18      3.75      0.00
    9   15   18      5.05      0.00
   11   15   18      1.66      0.00
   13   15   18      2.19      0.00
   15   15   18      2.20      0.00
   17   15   18      0.92      0.00
   19   15   18      2.66      0.00
   21   15   18     -4.31      0.00
   23   15   18     -0.33      0.00
   25   15   18     -2.12      0.00
   27   15   18      8.20      0.00
   29   15   18      4.56      0.00
   31   15   18      8.77      0.00
    0   16   18     -4.59      0.00
    2   16   18    -10.59      0.00
    4   16   18      3.31      0.00
    6   16   18      1.19      0.00
    8   16   18     -3.36      0.00
   10   16   18     -7.42      0.00
   12   16   18     -8.31      0.00
   14   16   18    -12.50      0.00
   16   16   18      0.11      0.00
   18   16   18    -12.59      0.00
   20   16   18      0.71      0.00
   22   16   18     -6.42      0.00
   24   16   18      8.59      0.00
   26   16   18     -1.86      0.00
    1   17   18      0.56      0.00
    3   17   18     -2.70      0.00
    5   17   18      0.63      0.00
    7   17   18      3.55      0.00
    9   17   18     -1.03      0.00
   11   17   18     10.19      0.00
   13   17   18     -9.31      0.00
   15   17   18      4.89      0.00
   17   17   18     -9.91      0.00
   19   17   18      6.35      0.00
   21   17   18     -3.39      0.00
   23   17   18      7.31      0.00
    0   18   18      2.68      0.00
    2   18   18      2.83      0.00
    4   18   18      4.53      0.00
    6   18   18     -0.49      0.00
    8   18   18      6.66      0.00
   10   18   18     -7.35      0.00
   12   18   18      2.87      0.00
   14   18   18     -4.47      0.00
   16   18   18    -11.33      0.00
    1   19   18      8.01      0.00
    3   19   18      9.91      0.00
    5   19   18     -1.92      0.00
    7   19   18     10.17      0.00
    1    1   19      0.61      0.00
    3    1   19      5.64      0.00
    5    1   19     -3.61      0.00
    7    1   19     11.53      0.00
    9    1   19    -13.82      0.00
   11    1   19      9.87      0.00
   13    1   19    -11.63      0.00
   15    1   19     13.58      0.00
   17    1   19      6.38      0.00
   19    1   19      7.43      0.00
   21    1   19     -1.46      0.00
   23    1   19     -6.50      0.00
   25    1   19     -8.81      0.00
   27    1   19     -0.11      0.00
   29    1   19     -7.01      0.00
    0    2   19     17.69      0.00
    2    2   19      9.17      0.00
    4    2   19      6.29      0.00
    6    2   19      9.41      0.00
    8    2   19     -8.37      0.00
   10    2   19      8.01      0.00
   12    2   19     -7.88      0.00
   14    2   19     -2.78      0.00
   16    2   19     -6.41      0.00
   18    2   19     -9.83      0.00
   20    2   19      2.09      0.00
   22    2   19     -2.34      0.00
   24    2   19     16.62      0.00
   26    2   19     -1.07      0.00
   28    2   19      4.12      0.00
   30    2   19      3.09      0.00
   34    2   19     16.85      0.00
   48    2   19      5.09      0.00
    1    3   19      4.86      0.00
    3    3   19      9.04      0.00
    5    3   19      9.01      0.00
    7    3   19      7.04      0.00
    9    3   19     13.06      0.00
   11    3   19      2.12      0.00
   13    3   19      1.98      0.00
   15    3   19      5.41      0.00
   17    3   19      3.16      0.00
   19    3   19      3.59      0.00
   21    3   19      1.34      0.00
   23    3   19     -2.05      0.00
   25    3   19      0.36      0.00
   27    3   19     15.05      0.00
   29    3   19      6.55      0.00
    0    4   19    -25.03      0.00
    2    4   19      4.95      0.00
    4    4   19    -16.23      0.00
    6    4   19      0.40      0.00
    8    4   19      4.79      0.00
   10    4   19     -3.82      0.00
   12    4   19      4.38      0.00
   14    4   19     -8.69      0.00
   16    4   19     -6.94      0.00
   18    4   19      0.08      0.00
   20    4   19     -2.89      0.00
   22    4   19      7.02      0.00
   24    4   19     -3.22      0.00
   26    4   19     -3.08      0.00
   28    4   19     -5.24      0.00
   30    4   19    -14.20      0.00
   32    4   19     -3.07      0.00
   34    4   19    -11.31      0.00
   36    4   19      2.55      0.00
   38    4   19      4.99      0.00
   40    4   19     17.11      0.00
   42    4   19     15.11      0.00
   44    4   19      7.52      0.00
    1    5   19     11.19      0.00
    3    5   19      4.23      0.00
    5    5   19     16.48      0.00
    7    5   19      7.32      0.00
    9    5   19     14.41      0.00
   11    5   19     10.20      0.00
   13    5   19     17.59      0.00
   15    5   19     10.63      0.00
   17    5   19     16.66      0.00
   19    5   19      4.58      0.00
   21    5   19     -3.12      0.00
   23    5   19     -4.94      0.00
   25    5   19      1.16      0.00
   27    5   19      4.81      0.00
   29    5   19      9.79      0.00
   31    5   19     -4.31      0.00
   35    5   19      2.71      0.00
   37    5   19      7.93      0.00
   41    5   19      1.76      0.00
   43    5   19     -2.89      0.00
   45    5   19    -21.36      0.00
    0    6   19     -7.68      0.00
    2    6   19    -12.96      0.00
    4    6   19     -8.22      0.00
    6    6   19     -8.59      0.00
    8    6   19     -8.55      0.00
   10    6   19    -16.70      0.00
   12    6   19    -10.85      0.00
   14    6   19    -24.61      0.00
   16    6   19     -8.57      0.00
   18    6   19    -15.60      0.00
   20    6   19     -5.56      0.00
   22    6   19     -6.21      0.00
   24    6   19     -1.19      0.00
   26    6   19     -4.41      0.00
   28    6   19      4.17      0.00
   30    6   19     -8.69      0.00
   32    6   19      6.25      0.00
   34    6   19    -12.26      0.00
   36    6   19      4.16      0.00
   38    6   19    -15.05      0.00
   40    6   19     10.59      0.00
   42    6   19    -12.45      0.00
   44    6   19     13.14      0.00
    1    7   19     12.52      0.00
    3    7   19     16.77      0.00
    5    7   19     -3.20      0.00
    7    7   19      5.66      0.00
    9    7   19     -5.89      0.00
   11    7   19     -1.66      0.00
   13    7   19     -0.57      0.00
   15    7   19     -0.88      0.00
   17    7   19     -4.91      0.00
   19    7   19     -5.79      0.00
   21    7   19    -12.50      0.00
   23    7   19    -12.39      0.00
   25    7   19     -1.10      0.00
   27    7   19      7.00      0.00
   29    7   19      9.62      0.00
   31    7   19     11.47      0.00
   33    7   19     -6.31      0.00
   35    7   19      6.98      0.00
   37    7   19     10.70      0.00
   39    7   19     11.55      0.00
   41    7   19     15.06      0.00
   43    7   19    -19.42      0.00
    0    8   19     -8.97      0.00
    2    8   19    -16.82      0.00
    4    8   19      1.20      0.00
    6    8   19      1.97      0.00
    8    8   19     -0.88      0.00
   10    8   19     -1.28      0.00
   12    8   19    -13.39      0.00
   14    8   19     -5.65      0.00
   16    8   19      4.03      0.00
   18    8   19      3.47      0.00
   20    8   19      9.67      0.00
   22    8   19     -7.17      0.00
   24    8   19      0.12      0.00
   26    8   19    -12.90      0.00
   28    8   19     -1.50      0.00
   30    8   19      0.55      0.00
   32    8   19     -6.32      0.00
   34    8   19      2.41      0.00
   36    8   19    -11.78      0.00
   38    8   19    -16.55      0.00
   40    8   19     -9.55      0.00
   42    8   19    -17.39      0.00
    1    9   19      3.95      0.00
    3    9   19     -2.18      0.00
    5    9   19     -9.01      0.00
    7    9   19     -8.79      0.00
    9    9   19     -4.80      0.00
   11    9   19      1.70      0.00
   13    9   19      6.70      0.00
   15    9   19     -0.55      0.00
   17    9   19      6.81      0.00
   19    9   19     -1.68      0.00
   21    9   19      2.45      0.00
   23    9   19      3.00      0.00
   25    9   19     -1.34      0.00
   27    9   19      8.98      0.00
   29    9   19      0.35      0.00
   31    9   19      2.36      0.00
   33    9   19    -12.65      0.00
   35    9   19     -8.66      0.00
   37    9   19     -6.59      0.00
   39    9   19      8.84      0.00
   41    9   19      1.51      0.00
    0   10   19    -13.08      0.00
    2   10   19      3.33      0.00
    4   10   19      6.17      0.00
    6   10   19      8.90      0.00
    8   10   19     14.18      0.00
   10   10   19    -13.76      0.00
   12   10   19     -9.82      0.00
   14   10   19    -17.21      0.00
   16   10   19      0.34      0.00
   18   10   19      5.42      0.00
   20   10   19      5.15      0.00
   22   10   19     -5.80      0.00
   24   10   19    -15.55      0.00
   26   10   19     -6.59      0.00
   28   10   19     -1.64      0.00
   30   10   19      7.85      0.00
   32   10   19      9.44      0.00
   34   10   19     -0.74      0.00
   36   10   19      1.25      0.00
   38   10   19     -5.20      0.00
   40   10   19     10.57      0.00
    1   11   19      1.45      0.00
    3   11   19     -0.65      0.00
    5   11   19     -9.61      0.00
    7   11   19     -4.00      0.00
    9   11   19    -13.09      0.00
   11   11   19      0.75      0.00
   13   11   19    -10.05      0.00
   15   11   19     -5.30      0.00
   17   11   19     -8.52      0.00
   19   11   19     -6.78      0.00
   21   11   19     -5.65      0.00
   23   11   19      0.32      0.00
   25   11   19     -7.30      0.00
   27   11   19      1.69      0.00
   29   11   19     -2.13      0.00
   31   11   19      0.10      0.00
   33   11   19     -0.03      0.00
   35   11   19     -0.55      0.00
   37   11   19      0.73      0.00
   39   11   19      3.98      0.00
    0   12   19    -18.36      0.00
    2   12   19     -5.80      0.00
    4   12   19     -9.99      0.00
    6   12   19     -2.21      0.00
    8   12   19     -3.53      0.00
   10   12   19     -4.26      0.00
   12   12   19     -4.23      0.00
   14   12   19      0.23      0.00
   16   12   19      3.69      0.00
   18   12   19      7.25      0.00
   20   12   19     -1.79      0.00
   22   12   19      0.09      0.00
   24   12   19     -7.38      0.00
   26   12   19     -3.05      0.00
   28   12   19      4.58      0.00
   30   12   19     -1.03      0.00
   32   12   19     11.84      0.00
   34   12   19      1.80      0.00
   36   12   19      6.13      0.00
    1   13   19     -1.73      0.00
    3   13   19      2.20      0.00
    5   13   19     -5.21      0.00
    7   13   19      0.25      0.00
    9   13   19    -10.35      0.00
   11   13   19    -10.59      0.00
   13   13   19     -5.27      0.00
   15   13   19     -8.41      0.00
   17   13   19     -0.03      0.00
   19   13   19      2.49      0.00
   21   13   19     -0.54      0.00
   23   13   19      0.50      0.00
   25   13   19    -12.54      0.00
   27   13   19    -11.77      0.00
   29   13   19    -33.54      0.00
   31   13   19    -13.06      0.00
   33   13   19    -33.92      0.00
   35   13   19    -10.05      0.00
    0   14   19      6.97      0.00
    2   14   19     10.31      0.00
    4   14   19     -1.89      0.00
    6   14   19     -4.26      0.00
    8   14   19     -3.59      0.00
   10   14   19     -4.01      0.00
   12   14   19     -0.27      0.00
   14   14   19     -3.61      0.00
   16   14   19     -7.36      0.00
   18   14   19     -0.33      0.00
   20   14   19     -1.72      0.00
   22   14   19      6.29      0.00
   24   14   19      6.22      0.00
   26   14   19     -4.43      0.00
   28   14   19     -0.46      0.00
   30   14   19    -10.18      0.00
   32   14   19      3.93      0.00
    1   15   19      4.02      0.00
    3   15   19     -0.88      0.00
    5   15   19     -1.67      0.00
    7   15   19     -4.92      0.00
    9   15   19     -6.65      0.00
   11   15   19      1.14      0.00
   13   15   19    -13.52      0.00
   15   15   19      1.06      0.00
   17   15   19    -11.51      0.00
   19   15   19     -2.86      0.00
   21   15   19      0.14      0.00
   23   15   19     -2.28      0.00
   25   15   19      3.93      0.00
   27   15   19     -0.33      0.00
   29   15   19     -4.52      0.00
    0   16   19      1.08      0.00
    2   16   19     -7.72      0.00
    4   16   19     -3.77      0.00
    6   16   19     -4.30      0.00
    8   16   19     -5.85      0.00
   10   16   19     -2.20      0.00
   12   16   19      1.87      0.00
   14   16   19     -0.59      0.00
   16   16   19      8.48      0.00
   18   16   19     -0.53      0.00
   20   16   19     14.29      0.00
   22   16   19      1.96      0.00
   24   16   19     12.19      0.00
    1   17   19     13.81      0.00
    3   17   19      8.49      0.00
    5   17   19      3.64      0.00
    7   17   19      5.78      0.00
    9   17   19      5.71      0.00
   11   17   19      9.38      0.00
   13   17   19     10.98      0.00
   15   17   19      2.47      0.00
   17   17   19      7.45      0.00
   19   17   19      0.58      0.00
    0   18   19    -10.02      0.00
    2   18   19     -2.13      0.00
    4   18   19     -4.60      0.00
    6   18   19      3.39      0.00
    8   18   19     -7.84      0.00
   10   18   19     -2.80      0.00
   12   18   19     -3.90      0.00
   14   18   19     -2.06      0.00
    0    0   20    -36.25      0.00
    2    0   20    -16.45      0.00
    4    0   20    -38.69      0.00
    6    0   20    -11.59      0.00
    8    0   20    -23.50      0.00
   10    0   20     -5.06      0.00
   12    0   20      1.52      0.00
   14    0   20     -6.96      0.00
   16    0   20      0.45      0.00
   18    0   20     -9.60      0.00
   20    0   20     -3.50      0.00
   22    0   20     -9.66      0.00
   24    0   20    -12.56      0.00
   26    0   20    -17.53      0.00
   28    0   20    -12.18      0.00
   30    0   20      4.70      0.00
   32    0   20      9.48      0.00
   34    0   20     13.59      0.00
   36    0   20      6.74      0.00
   38    0   20      0.42      0.00
   40    0   20     16.02      0.00
   42    0   20     12.71      0.00
   44    0   20     12.47      0.00
   46    0   20     11.60      0.00
    1    1   20      4.87      0.00
    3    1   20     -6.72      0.00
    5    1   20     12.79      0.00
    7    1   20     -3.62      0.00
    9    1   20      1.34      0.00
   11    1   20     -0.04      0.00
   13    1   20    -10.33      0.00
   15    1   20     -0.08      0.00
   17    1   20     -1.46      0.00
   19    1   20      7.27      0.00
   21    1   20      3.08      0.00
   23    1   20      3.37      0.00
   25    1   20      2.89      0.00
   27    1   20     -9.59      0.00
   35    1   20    -19.12      0.00
   41    1   20     -2.89      0.00
   47    1   20     10.80      0.00
    0    2   20      4.04      0.00
    2    2   20      9.01      0.00
    4    2   20      5.30      0.00
    6    2   20      6.91      0.00
    8    2   20      3.23      0.00
   10    2   20     15.41      0.00
   12    2   20      4.37      0.00
   14    2   20     14.99      0.00
   16    2   20      2.91      0.00
   18    2   20      2.27      0.00
   20    2   20      5.79      0.00
   22    2   20     13.76      0.00
   24    2   20     11.78      0.00
   26    2   20     10.97      0.00
   32    2   20      2.97      0.00
   44    2   20    -15.43      0.00
    1    3   20     -2.79      0.00
    3    3   20      3.82      0.00
    5    3   20     -3.82      0.00
    7    3   20      2.21      0.00
    9    3   20    -12.28      0.00
   11    3   20     -9.71      0.00
   13    3   20    -11.31      0.00
   15    3   20     -5.44      0.00
   17    3   20      1.88      0.00
   19    3   20     -5.14      0.00
   21    3   20     -4.87      0.00
   23    3   20    -13.34      0.00
   25    3   20     -6.37      0.00
   27    3   20     -2.86      0.00
   29    3   20      9.79      0.00
    0    4   20     18.71      0.00
    2    4   20    -12.39      0.00
    4    4   20     13.28      0.00
    6    4   20     -5.41      0.00
    8    4   20      3.70      0.00
   10    4   20      1.60      0.00
   12    4   20      3.07      0.00
   14    4   20      1.27      0.00
   16    4   20     -0.48      0.00
   18    4   20     -3.85      0.00
   20    4   20     -1.12      0.00
   22    4   20      4.24      0.00
   24    4   20      3.43      0.00
   26    4   20     -0.70      0.00
   28    4   20    -11.42      0.00
   32    4   20     -5.72      0.00
   42    4   20      1.51      0.00
   44    4   20     18.29      0.00
    1    5   20    -16.49      0.00
    3    5   20     -4.69      0.00
    5    5   20    -17.09      0.00
    7    5   20      0.26      0.00
    9    5   20    -14.25      0.00
   11    5   20    -10.21      0.00
   13    5   20      0.52      0.00
   15    5   20     -7.08      0.00
   17    5   20     10.85      0.00
   19    5   20     -0.66      0.00
   21    5   20      2.75      0.00
   23    5   20      3.81      0.00
   25    5   20     -4.98      0.00
   27    5   20      9.47      0.00
   29    5   20    -11.83      0.00
   31    5   20      2.95      0.00
   33    5   20    -10.79      0.00
   37    5   20    -13.50      0.00
   41    5   20     -6.62      0.00
   43    5   20      3.95      0.00
   45    5   20     23.24      0.00
    0    6   20     12.36      0.00
    2    6   20      1.98      0.00
    4    6   20      9.98      0.00
    6    6   20      8.11      0.00
    8    6   20     12.64      0.00
   10    6   20     11.58      0.00
   12    6   20      7.98      0.00
   14    6   20      6.23      0.00
   16    6   20     -1.28      0.00
   18    6   20      4.30      0.00
   20    6   20      8.95      0.00
   22    6   20     11.57      0.00
   24    6   20     12.79      0.00
   26    6   20      2.29      0.00
   28    6   20     -7.20      0.00
   30    6   20     -1.87      0.00
   32    6   20     11.12      0.00
   34    6   20      8.07      0.00
   36    6   20     23.04      0.00
   38    6   20    -12.53      0.00
   40    6   20     21.00      0.00
   42    6   20      5.01      0.00
   44    6   20     35.80      0.00
    1    7   20      7.91      0.00
    3    7   20     -1.93      0.00
    5    7   20     14.24      0.00
    7    7   20      0.59      0.00
    9    7   20     11.18      0.00
   11    7   20      9.00      0.00
   13    7   20      3.74      0.00
   15    7   20      2.84      0.00
   17    7   20     -0.71      0.00
   19    7   20     -5.56      0.00
   21    7   20     -5.23      0.00
   23    7   20     -3.36      0.00
   25    7   20      0.52      0.00
   27    7   20     -0.54      0.00
   29    7   20      4.93      0.00
   31    7   20     -3.68      0.00
   33    7   20     -7.78      0.00
   35    7   20      5.29      0.00
   37    7   20     -9.30      0.00
   39    7   20     12.58      0.00
   41    7   20     -5.31      0.00
   43    7   20      1.10      0.00
    0    8   20    -22.11      0.00
    2    8   20     -2.15      0.00
    4    8   20    -13.02      0.00
    6    8   20     -4.71      0.00
    8    8   20     -3.22      0.00
   10    8   20     -9.34      0.00
   12    8   20     -5.54      0.00
   14    8   20     -7.07      0.00
   16    8   20     -5.05      0.00
   18    8   20     -4.55      0.00
   20    8   20      0.93      0.00
   22    8   20      6.18      0.00
   24    8   20     13.03      0.00
   26    8   20     12.23      0.00
   28    8   20     -0.94      0.00
   30    8   20      0.97      0.00
   32    8   20      2.38      0.00
   34    8   20      9.25      0.00
   36    8   20      9.12      0.00
   38    8   20     -6.77      0.00
   40    8   20    -10.14      0.00
   42    8   20     -9.95      0.00
    1    9   20      7.22      0.00
    3    9   20      4.70      0.00
    5    9   20     -8.14      0.00
    7    9   20     -7.28      0.00
    9    9   20     -1.48      0.00
   11    9   20      3.14      0.00
   13    9   20     11.24      0.00
   15    9   20      4.96      0.00
   17    9   20      0.01      0.00
   19    9   20     -5.50      0.00
   21    9   20      0.15      0.00
   23    9   20     -0.24      0.00
   25    9   20      6.01      0.00
   27    9   20     -5.55      0.00
   29    9   20     -8.61      0.00
   31    9   20    -14.70      0.00
   33    9   20    -14.47      0.00
   35    9   20      1.60      0.00
   37    9   20     -6.10      0.00
   39    9   20      7.40      0.00
   41    9   20     -5.16      0.00
    0   10   20     -3.60      0.00
    2   10   20    -10.49      0.00
    4   10   20      1.71      0.00
    6   10   20      1.10      0.00
    8   10   20      2.53      0.00
   10   10   20     -3.83      0.00
   12   10   20     -5.27      0.00
   14   10   20    -10.34      0.00
   16   10   20      1.08      0.00
   18   10   20     -3.19      0.00
   20   10   20      0.29      0.00
   22   10   20     -3.91      0.00
   24   10   20     -1.07      0.00
   26   10   20     -7.58      0.00
   28   10   20     -6.81      0.00
   30   10   20     -4.21      0.00
   32   10   20     -8.43      0.00
   34   10   20     10.92      0.00
   36   10   20     -9.19      0.00
   38   10   20      0.32      0.00
    1   11   20      3.73      0.00
    3   11   20      2.33      0.00
    5   11   20     -9.94      0.00
    7   11   20     -5.96      0.00
    9   11   20     -2.33      0.00
   11   11   20      2.95      0.00
   13   11   20     10.02      0.00
   15   11   20     -0.03      0.00
   17   11   20      0.51      0.00
   19   11   20     -6.98      0.00
   21   11   20      9.62      0.00
   23   11   20      9.51      0.00
   25   11   20     16.90      0.00
   27   11   20     13.87      0.00
   29   11   20     -1.24      0.00
   31   11   20      4.99      0.00
   33   11   20     -1.28      0.00
   35   11   20      8.43      0.00
   37   11   20      6.92      0.00
    0   12   20    -13.10      0.00
    2   12   20      3.08      0.00
    4   12   20     -8.98      0.00
    6   12   20      6.84      0.00
    8   12   20      0.62      0.00
   10   12   20     -0.35      0.00
   12   12   20      1.93      0.00
   14   12   20     -2.65      0.00
   16   12   20      4.19      0.00
   18   12   20     -1.91      0.00
   20   12   20     -1.26      0.00
   22   12   20    -11.38      0.00
   24   12   20      4.54      0.00
   26   12   20      2.22      0.00
   28   12   20     21.91      0.00
   30   12   20     10.39      0.00
   32   12   20     19.02      0.00
   34   12   20      4.94      0.00
    1   13   20     -0.42      0.00
    3   13   20      4.03      0.00
    5   13   20      3.47      0.00
    7   13   20      5.38      0.00
    9   13   20      2.78      0.00
   11   13   20      0.29      0.00
   13   13   20     -1.76      0.00
   15   13   20     -2.75      0.00
   17   13   20     -2.72      0.00
   19   13   20      0.90      0.00
   21   13   20     -5.27      0.00
   23   13   20      6.28      0.00
   25   13   20     -9.47      0.00
   27   13   20      0.43      0.00
   29   13   20    -10.70      0.00
   31   13   20    -13.79      0.00
   33   13   20    -14.40      0.00
    0   14   20     -4.92      0.00
    2   14   20     -6.66      0.00
    4   14   20     -3.86      0.00
    6   14   20     -1.59      0.00
    8   14   20      3.29      0.00
   10   14   20      7.24      0.00
   12   14   20      6.40      0.00
   14   14   20     10.98      0.00
   16   14   20      5.16      0.00
   18   14   20      7.76      0.00
   20   14   20     -3.28      0.00
   22   14   20     -3.29      0.00
   24   14   20    -13.41      0.00
   26   14   20     -0.74      0.00
   28   14   20    -12.20      0.00
   30   14   20      4.16      0.00
    1   15   20     -1.53      0.00
    3   15   20      2.53      0.00
    5   15   20      8.77      0.00
    7   15   20     10.05      0.00
    9   15   20      3.32      0.00
   11   15   20      1.92      0.00
   13   15   20      6.67      0.00
   15   15   20      5.59      0.00
   17   15   20      9.22      0.00
   19   15   20      6.33      0.00
   21   15   20     -4.89      0.00
   23   15   20      0.24      0.00
   25   15   20     -4.88      0.00
   27   15   20      3.18      0.00
    0   16   20      8.99      0.00
    2   16   20      1.05      0.00
    4   16   20     13.90      0.00
    6   16   20     11.70      0.00
    8   16   20      8.06      0.00
   10   16   20      4.05      0.00
   12   16   20     -2.68      0.00
   14   16   20     -4.13      0.00
   16   16   20      2.94      0.00
   18   16   20     -1.10      0.00
   20   16   20      7.07      0.00
   22   16   20     -0.01      0.00
    1   17   20     -3.56      0.00
    3   17   20     -9.06      0.00
    5   17   20     -9.91      0.00
    7   17   20    -13.03      0.00
    9   17   20    -18.97      0.00
   11   17   20     -6.81      0.00
   13   17   20    -27.28      0.00
   15   17   20     -3.11      0.00
   17   17   20    -21.79      0.00
    0   18   20     -5.23      0.00
    2   18   20     -6.42      0.00
    4   18   20      1.88      0.00
    6   18   20      0.10      0.00
    8   18   20      9.63      0.00
    1    1   21     -5.64      0.00
    3    1   21      1.97      0.00
    5    1   21     -2.90      0.00
    7    1   21     12.29      0.00
    9    1   21      0.45      0.00
   11    1   21     10.32      0.00
   13    1   21      2.93      0.00
   15    1   21      4.38      0.00
   17    1   21     -1.56      0.00
   19    1   21     -6.40      0.00
   21    1   21    -13.42      0.00
   23    1   21     -6.80      0.00
   25    1   21     -7.32      0.00
   27    1   21      1.22      0.00
   39    1   21     -7.20      0.00
   41    1   21      3.68      0.00
   43    1   21    -14.94      0.00
   45    1   21      5.61      0.00
    0    2   21     22.29      0.00
    2    2   21      4.13      0.00
    4    2   21      3.24      0.00
    6    2   21     -1.63      0.00
    8    2   21    -13.56      0.00
   10    2   21      1.64      0.00
   12    2   21      1.62      0.00
   14    2   21      1.60      0.00
   16    2   21      6.04      0.00
   18    2   21     -9.17      0.00
   20    2   21      0.00      0.00
   22    2   21    -17.10      0.00
   24    2   21      1.63      0.00
   26    2   21    -20.97      0.00
   28    2   21     -1.57      0.00
    1    3   21      4.02      0.00
    3    3   21     -0.12      0.00
    5    3   21      5.32      0.00
    7    3   21     -3.81      0.00
    9    3   21      6.81      0.00
   11    3   21     -2.46      0.00
   13    3   21     -2.48      0.00
   15    3   21     -0.12      0.00
   17    3   21      4.46      0.00
   19    3   21      9.79      0.00
   21    3   21      8.13      0.00
   23    3   21     11.49      0.00
   25    3   21      4.92      0.00
   31    3   21     15.83      0.00
   37    3   21      1.67      0.00
   45    3   21    -19.53      0.00
    0    4   21    -13.79      0.00
    2    4   21     13.20      0.00
    4    4   21    -14.43      0.00
    6    4   21     -2.73      0.00
    8    4   21     -0.92      0.00
   10    4   21      5.14      0.00
   12    4   21      8.25      0.00
   14    4   21      2.31      0.00
   16    4   21     -5.41      0.00
   18    4   21     -8.68      0.00
   20    4   21      0.60      0.00
   22    4   21      6.54      0.00
   24    4   21     14.50      0.00
   26    4   21      9.51      0.00
   28    4   21     13.83      0.00
   30    4   21    -11.45      0.00
   42    4   21      3.82      0.00
   44    4   21    -14.06      0.00
    1    5   21      6.42      0.00
    3    5   21     -1.34      0.00
    5    5   21     10.48      0.00
    7    5   21     -2.41      0.00
    9    5   21      1.97      0.00
   11    5   21     -1.99      0.00
   13    5   21      0.39      0.00
   15    5   21      0.39      0.00
   17    5   21      3.03      0.00
   19    5   21     -1.22      0.00
   21    5   21     -5.91      0.00
   23    5   21    -10.14      0.00
   25    5   21     -2.99      0.00
   27    5   21      1.70      0.00
   31    5   21      9.57      0.00
   35    5   21     10.93      0.00
   37    5   21      3.89      0.00
   39    5   21     22.25      0.00
   41    5   21      9.62      0.00
   43    5   21      5.17      0.00
    0    6   21     24.47      0.00
    2    6   21      8.34      0.00
    4    6   21     10.24      0.00
    6    6   21      6.20      0.00
    8    6   21     -2.46      0.00
   10    6   21      7.59      0.00
   12    6   21      0.38      0.00
   14    6   21      7.95      0.00
   16    6   21     -4.04      0.00
   18    6   21      8.79      0.00
   20    6   21     -1.62      0.00
   22    6   21      4.96      0.00
   24    6   21      2.41      0.00
   26    6   21     -4.81      0.00
   28    6   21      2.91      0.00
   30    6   21      3.25      0.00
   32    6   21      8.74      0.00
   34    6   21      5.52      0.00
   36    6   21     10.57      0.00
   38    6   21     -7.30      0.00
   40    6   21     11.27      0.00
   42    6   21    -19.13      0.00
    1    7   21     -4.04      0.00
    3    7   21      5.66      0.00
    5    7   21     -5.58      0.00
    7    7   21      8.81      0.00
    9    7   21     -0.51      0.00
   11    7   21      1.50      0.00
   13    7   21      4.37      0.00
   15    7   21     -2.63      0.00
   19    7   21     -3.40      0.00
   21    7   21     -2.91      0.00
   23    7   21    -16.49      0.00
   25    7   21    -13.61      0.00
   27    7   21     -5.18      0.00
   29    7   21     -9.02      0.00
   31    7   21      7.29      0.00
   33    7   21    -18.24      0.00
   35    7   21    -14.51      0.00
   37    7   21    -11.64      0.00
   39    7   21    -16.53      0.00
   41    7   21      6.77      0.00
    0    8   21     17.42      0.00
    2    8   21     -1.79      0.00
    4    8   21     15.15      0.00
    6    8   21      6.85      0.00
    8    8   21      4.07      0.00
   10    8   21      6.89      0.00
   12    8   21     -2.94      0.00
   14    8   21     -0.81      0.00
   16    8   21      0.71      0.00
   18    8   21     -4.23      0.00
   20    8   21      4.50      0.00
   22    8   21     -2.84      0.00
   24    8   21      5.96      0.00
   26    8   21     -6.83      0.00
   28    8   21     -0.23      0.00
   30    8   21     -3.05      0.00
   32    8   21     -6.03      0.00
   34    8   21      0.70      0.00
   36    8   21     -5.33      0.00
   38    8   21    -11.00      0.00
   40    8   21      1.27      0.00
    1    9   21     -7.62      0.00
    3    9   21     -5.68      0.00
    5    9   21     -5.86      0.00
    7    9   21     -6.88      0.00
    9    9   21      1.38      0.00
   11    9   21     -3.80      0.00
   13    9   21      4.43      0.00
   15    9   21     -5.65      0.00
   17    9   21      0.98      0.00
   19    9   21     -3.78      0.00
   21    9   21     -1.80      0.00
   23    9   21     -4.99      0.00
   25    9   21     -6.57      0.00
   27    9   21     -2.03      0.00
   29    9   21      1.15      0.00
   31    9   21      2.64      0.00
   33    9   21    -17.84      0.00
   35    9   21     -5.27      0.00
   37    9   21    -21.41      0.00
   39    9   21      7.52      0.00
    0   10   21     -8.60      0.00
    2   10   21     -4.71      0.00
    4   10   21      0.56      0.00
    6   10   21     -2.42      0.00
    8   10   21     10.04      0.00
   10   10   21     -4.07      0.00
   12   10   21      1.95      0.00
   14   10   21     -3.54      0.00
   16   10   21      3.35      0.00
   18   10   21      4.57      0.00
   20   10   21      7.48      0.00
   22   10   21      4.29      0.00
   24   10   21     -5.33      0.00
   26   10   21      8.16      0.00
   28   10   21     -4.08      0.00
   30   10   21     14.28      0.00
   32   10   21      1.07      0.00
   34   10   21      3.16      0.00
   36   10   21     -6.93      0.00
    1   11   21      1.62      0.00
    3   11   21     -5.05      0.00
    5   11   21     -7.99      0.00
    7   11   21    -14.14      0.00
    9   11   21    -13.24      0.00
   11   11   21     -2.55      0.00
   13   11   21     -3.45      0.00
   15   11   21      1.89      0.00
   17   11   21     -4.22      0.00
   19   11   21      0.42      0.00
   21   11   21      3.02      0.00
   23   11   21      1.58      0.00
   25   11   21      0.92      0.00
   27   11   21     -9.47      0.00
   29   11   21     -3.98      0.00
   31   11   21     -7.79      0.00
   33   11   21     -2.71      0.00
   35   11   21      3.58      0.00
    0   12   21     -2.00      0.00
    2   12   21     -0.55      0.00
    4   12   21     -3.46      0.00
    6   12   21     -3.15      0.00
    8   12   21     -7.19      0.00
   10   12   21     -2.94      0.00
   12   12   21    -11.10      0.00
   14   12   21     -4.09      0.00
   16   12   21     -0.48      0.00
   18   12   21      0.28      0.00
   20   12   21      4.61      0.00
   22   12   21     -2.69      0.00
   24   12   21     -0.73      0.00
   26   12   21     -4.99      0.00
   28   12   21      9.78      0.00
   30   12   21      3.81      0.00
   32   12   21     19.97      0.00
    1   13   21     -6.90      0.00
    3   13   21     -5.74      0.00
    5   13   21    -10.15      0.00
    7   13   21     -4.01      0.00
    9   13   21     -6.75      0.00
   11   13   21      1.57      0.00
   13   13   21      5.48      0.00
   15   13   21      2.79      0.00
   17   13   21      5.51      0.00
   19   13   21     10.08      0.00
   21   13   21      9.31      0.00
   23   13   21      9.84      0.00
   25   13   21     -5.06      0.00
   27   13   21     -7.35      0.00
   29   13   21    -20.60      0.00
   31   13   21     -1.07      0.00
    0   14   21      6.50      0.00
    2   14   21      2.04      0.00
    4   14   21     -4.92      0.00
    6   14   21    -10.09      0.00
    8   14   21     -2.37      0.00
   10   14   21     -5.57      0.00
   12   14   21     10.83      0.00
   14   14   21      5.00      0.00
   16   14   21     10.72      0.00
   18   14   21     16.96      0.00
   20   14   21     11.39      0.00
   22   14   21     12.41      0.00
   24   14   21     10.85      0.00
   26   14   21     -4.97      0.00
   28   14   21      3.52      0.00
    1   15   21     -3.02      0.00
    3   15   21     -4.02      0.00
    5   15   21     -2.55      0.00
    7   15   21     -3.88      0.00
    9   15   21     -0.39      0.00
   11   15   21      4.77      0.00
   13   15   21      0.60      0.00
   15   15   21      3.59      0.00
   17   15   21     -2.90      0.00
   19   15   21     -4.60      0.00
   21   15   21      1.10      0.00
   23   15   21     -0.52      0.00
    0   16   21     -4.25      0.00
    2   16   21    -16.09      0.00
    4   16   21    -13.29      0.00
    6   16   21    -11.96      0.00
    8   16   21     -8.89      0.00
   10   16   21      2.98      0.00
   12   16   21      2.53      0.00
   14   16   21      2.52      0.00
   16   16   21      5.98      0.00
   18   16   21      0.90      0.00
   20   16   21     12.81      0.00
    1   17   21     17.21      0.00
    3   17   21     11.29      0.00
    5   17   21      6.47      0.00
    7   17   21      9.16      0.00
    9   17   21      8.91      0.00
   11   17   21     17.29      0.00
   13   17   21     16.57      0.00
    0    0   22    -29.42      0.00
    2    0   22      4.77      0.00
    4    0   22    -25.59      0.00
    6    0   22      5.47      0.00
    8    0   22     -5.31      0.00
   10    0   22      5.42      0.00
   12    0   22      4.24      0.00
   14    0   22     -4.21      0.00
   16    0   22      1.00      0.00
   18    0   22      0.76      0.00
   20    0   22     11.48      0.00
   22    0   22      1.27      0.00
   24    0   22     -2.61      0.00
   26    0   22    -12.42      0.00
   28    0   22     -9.92      0.00
   30    0   22      6.78      0.00
   32    0   22      8.44      0.00
   34    0   22     20.15      0.00
   36    0   22     12.30      0.00
   38    0   22      9.00      0.00
   40    0   22     14.86      0.00
   42    0   22     10.85      0.00
   44    0   22      8.00      0.00
    1    1   22    -14.16      0.00
    3    1   22    -15.11      0.00
    5    1   22      2.82      0.00
    7    1   22      3.69      0.00
    9    1   22      4.92      0.00
   11    1   22      6.82      0.00
   13    1   22     -2.99      0.00
   15    1   22     -3.89      0.00
   17    1   22     -8.68      0.00
   19    1   22     -3.03      0.00
   21    1   22    -10.25      0.00
   23    1   22     -0.24      0.00
   25    1   22     -0.90      0.00
   27    1   22    -11.40      0.00
   29    1   22      0.67      0.00
   31    1   22    -22.08      0.00
   33    1   22     -6.69      0.00
   35    1   22    -14.17      0.00
   37    1   22      0.99      0.00
   39    1   22      7.15      0.00
   41    1   22      8.24      0.00
   43    1   22     17.01      0.00
    0    2   22     14.33      0.00
    2    2   22      9.73      0.00
    4    2   22     18.16      0.00
    6    2   22     12.00      0.00
    8    2   22     15.60      0.00
   10    2   22      9.55      0.00
   12    2   22     12.41      0.00
   14    2   22     10.30      0.00
   16    2   22     12.77      0.00
   18    2   22      8.71      0.00
   20    2   22      7.74      0.00
   24    2   22      6.68      0.00
   26    2   22     -4.80      0.00
   30    2   22     10.27      0.00
    1    3   22     -6.40      0.00
    3    3   22      6.59      0.00
    5    3   22      0.51      0.00
    7    3   22     12.94      0.00
    9    3   22     -5.10      0.00
   11    3   22     -2.71      0.00
   13    3   22    -11.90      0.00
   15    3   22     -2.38      0.00
   17    3   22      2.89      0.00
   19    3   22      1.45      0.00
   21    3   22      7.01      0.00
   23    3   22     -1.08      0.00
   25    3   22      1.39      0.00
   29    3   22      6.37      0.00
   43    3   22      5.75      0.00
    0    4   22      9.35      0.00
    2    4   22    -11.81      0.00
    4    4   22      2.12      0.00
    6    4   22     -6.24      0.00
    8    4   22    -10.14      0.00
   10    4   22     -1.71      0.00
   12    4   22     -6.19      0.00
   14    4   22     -3.27      0.00
   16    4   22     -4.21      0.00
   18    4   22    -11.96      0.00
   20    4   22     -9.82      0.00
   22    4   22    -10.28      0.00
   24    4   22     -4.56      0.00
   28    4   22    -11.77      0.00
    1    5   22    -15.89      0.00
    3    5   22     -4.29      0.00
    5    5   22     -7.39      0.00
    7    5   22      3.89      0.00
    9    5   22     -7.55      0.00
   11    5   22     -9.18      0.00
   13    5   22     -3.37      0.00
   15    5   22     -2.73      0.00
   17    5   22      7.73      0.00
   19    5   22      9.20      0.00
   21    5   22      3.01      0.00
   23    5   22      7.52      0.00
   25    5   22     -0.78      0.00
   29    5   22     -2.65      0.00
   31    5   22      0.15      0.00
   35    5   22    -12.17      0.00
   37    5   22    -20.36      0.00
   39    5   22    -14.19      0.00
    0    6   22      5.29      0.00
    2    6   22      5.82      0.00
    4    6   22      3.49      0.00
    6    6   22      5.12      0.00
    8    6   22      8.20      0.00
   10    6   22      5.79      0.00
   12    6   22     10.34      0.00
   14    6   22      4.99      0.00
   16    6   22      4.77      0.00
   18    6   22      2.63      0.00
   20    6   22      9.39      0.00
   22    6   22     12.37      0.00
   24    6   22     16.94      0.00
   26    6   22     18.68      0.00
   28    6   22      9.65      0.00
   30    6   22     -0.69      0.00
   32    6   22     15.92      0.00
   34    6   22    -11.34      0.00
   36    6   22     33.27      0.00
   38    6   22    -12.55      0.00
   40    6   22     27.22      0.00
    1    7   22     11.25      0.00
    3    7   22      2.65      0.00
    5    7   22     17.92      0.00
    7    7   22      6.36      0.00
    9    7   22     13.27      0.00
   11    7   22     10.77      0.00
   13    7   22      9.00      0.00
   15    7   22      4.99      0.00
   17    7   22      6.20      0.00
   19    7   22      0.43      0.00
   21    7   22     -4.83      0.00
   23    7   22     -1.04      0.00
   25    7   22     -4.90      0.00
   27    7   22     -1.36      0.00
   29    7   22      1.05      0.00
   31    7   22     -2.88      0.00
   33    7   22    -13.97      0.00
   35    7   22      3.05      0.00
   37    7   22    -14.93      0.00
   39    7   22     17.70      0.00
    0    8   22     -5.26      0.00
    2    8   22     12.42      0.00
    4    8   22     -0.83      0.00
    6    8   22      1.36      0.00
    8    8   22      4.35      0.00
   10    8   22     -6.58      0.00
   12    8   22      2.87      0.00
   14    8   22     -4.79      0.00
   16    8   22     -0.82      0.00
   18    8   22     -3.81      0.00
   20    8   22     -3.60      0.00
   22    8   22      2.87      0.00
   24    8   22      3.69      0.00
   26    8   22     11.69      0.00
   28    8   22     -1.58      0.00
   30    8   22      4.07      0.00
   32    8   22     -0.44      0.00
   34    8   22      5.88      0.00
   36    8   22     12.44      0.00
   38    8   22      2.59      0.00
    1    9   22     -9.51      0.00
    3    9   22     -3.69      0.00
    5    9   22     -9.27      0.00
    7    9   22     -0.37      0.00
    9    9   22     -6.23      0.00
   11    9   22     -3.38      0.00
   13    9   22     -3.39      0.00
   15    9   22     -6.36      0.00
   17    9   22      7.05      0.00
   19    9   22     -5.32      0.00
   21    9   22     14.01      0.00
   23    9   22    -10.76      0.00
   25    9   22     -0.03      0.00
   27    9   22    -12.58      0.00
   29    9   22     -5.52      0.00
   31    9   22     -4.86      0.00
   33    9   22     -6.46      0.00
   35    9   22     -6.67      0.00
   37    9   22    -12.83      0.00
    0   10   22      2.58      0.00
    2   10   22     -8.86      0.00
    4   10   22      7.63      0.00
    6   10   22      4.10      0.00
    8   10   22      9.72      0.00
   10   10   22     11.89      0.00
   12   10   22      3.26      0.00
   14   10   22      9.57      0.00
   16   10   22      3.88      0.00
   18   10   22      6.49      0.00
   20   10   22      1.57      0.00
   22   10   22      4.44      0.00
   24   10   22      1.15      0.00
   26   10   22      9.10      0.00
   28   10   22     -6.61      0.00
   30   10   22     14.29      0.00
   32   10   22    -15.22      0.00
   34   10   22     15.36      0.00
   36   10   22     -9.53      0.00
    1   11   22    -16.82      0.00
    3   11   22     -8.47      0.00
    5   11   22     -8.52      0.00
    7   11   22     -7.34      0.00
    9   11   22    -11.08      0.00
   11   11   22    -13.83      0.00
   13   11   22    -12.71      0.00
   15   11   22    -10.52      0.00
   17   11   22    -12.57      0.00
   19   11   22    -16.94      0.00
   21   11   22     -3.22      0.00
   23   11   22    -11.83      0.00
   25   11   22      5.77      0.00
   27   11   22     -4.97      0.00
   29   11   22    -13.51      0.00
   31   11   22    -14.67      0.00
   33   11   22    -30.03      0.00
    0   12   22    -19.85      0.00
    2   12   22    -10.30      0.00
    4   12   22    -16.48      0.00
    6   12   22     -0.13      0.00
    8   12   22     -5.05      0.00
   10   12   22      2.84      0.00
   12   12   22     -0.94      0.00
   14   12   22      0.87      0.00
   16   12   22      0.07      0.00
   18   12   22     -6.33      0.00
   20   12   22      1.30      0.00
   22   12   22    -14.33      0.00
   24   12   22     14.78      0.00
   26   12   22      8.99      0.00
   28   12   22     34.29      0.00
   30   12   22     21.83      0.00
    1   13   22      9.38      0.00
    3   13   22     11.27      0.00
    5   13   22     11.39      0.00
    7   13   22      7.82      0.00
    9   13   22      0.66      0.00
   11   13   22      0.15      0.00
   13   13   22     -5.49      0.00
   15   13   22     -5.14      0.00
   17   13   22     -9.87      0.00
   19   13   22     -6.45      0.00
   21   13   22    -10.36      0.00
   23   13   22      3.53      0.00
   25   13   22     -9.66      0.00
   27   13   22      1.77      0.00
   29   13   22     -6.37      0.00
    0   14   22      7.34      0.00
    2   14   22     16.90      0.00
    4   14   22      5.89      0.00
    6   14   22     11.10      0.00
    8   14   22      2.86      0.00
   10   14   22      8.99      0.00
   12   14   22     -0.45      0.00
   14   14   22     12.13      0.00
   16   14   22     -3.04      0.00
   18   14   22     12.31      0.00
   20   14   22     -9.86      0.00
   22   14   22      7.40      0.00
   24   14   22     -6.35      0.00
   26   14   22     10.44      0.00
    1   15   22     -8.68      0.00
    3   15   22     -6.09      0.00
    5   15   22      2.80      0.00
    7   15   22      0.93      0.00
    9   15   22     -5.35      0.00
   11   15   22     -1.10      0.00
   13   15   22      6.17      0.00
   15   15   22      8.08      0.00
   17   15   22     11.03      0.00
   19   15   22      8.67      0.00
   21   15   22     -0.87      0.00
    0   16   22     19.75      0.00
    2   16   22     14.96      0.00
    4   16   22     21.38      0.00
    6   16   22     21.67      0.00
    8   16   22     14.04      0.00
   10   16   22     10.96      0.00
   12   16   22      3.50      0.00
   14   16   22      5.97      0.00
   16   16   22      7.44      0.00
    1   17   22     -4.23      0.00
    3   17   22     -5.89      0.00
    5   17   22     -1.43      0.00
    7   17   22    -11.82      0.00
    1    1   23     -0.92      0.00
    3    1   23      0.66      0.00
    5    1   23     -3.85      0.00
    7    1   23     -0.22      0.00
    9    1   23     -8.93      0.00
   11    1   23     -2.18      0.00
   13    1   23     -3.14      0.00
   15    1   23     -2.42      0.00
   17    1   23     -8.09      0.00
   19    1   23    -11.77      0.00
   21    1   23    -15.41      0.00
   23    1   23     -2.13      0.00
   25    1   23     -0.23      0.00
   27    1   23      8.76      0.00
   29    1   23     -1.03      0.00
   31    1   23     -3.26      0.00
   33    1   23    -10.80      0.00
   35    1   23      2.25      0.00
   37    1   23     -2.08      0.00
   39    1   23     13.67      0.00
   41    1   23      9.07      0.00
    0    2   23     20.76      0.00
    2    2   23     11.65      0.00
    4    2   23      7.93      0.00
    6    2   23      0.77      0.00
    8    2   23      1.15      0.00
   10    2   23      1.69      0.00
   12    2   23      7.43      0.00
   14    2   23      1.37      0.00
   16    2   23      2.78      0.00
   18    2   23     -8.86      0.00
   20    2   23     -5.57      0.00
   24    2   23    -11.98      0.00
   26    2   23    -38.93      0.00
   28    2   23    -13.93      0.00
   34    2   23    -15.55      0.00
   40    2   23    -12.72      0.00
   42    2   23    -16.93      0.00
    1    3   23     -0.77      0.00
    3    3   23    -11.38      0.00
    5    3   23      4.46      0.00
    7    3   23    -12.37      0.00
    9    3   23      3.98      0.00
   11    3   23     -5.90      0.00
   13    3   23     -6.40      0.00
   15    3   23     -8.13      0.00
   17    3   23    -12.42      0.00
   19    3   23     -1.25      0.00
   21    3   23    -11.41      0.00
   23    3   23      8.64      0.00
   25    3   23     -2.69      0.00
   31    3   23    -10.83      0.00
   35    3   23      7.04      0.00
   37    3   23    -11.83      0.00
   39    3   23     25.90      0.00
   41    3   23    -20.31      0.00
    0    4   23     -9.71      0.00
    2    4   23      7.16      0.00
    4    4   23    -15.90      0.00
    6    4   23     -6.70      0.00
    8    4   23    -10.18      0.00
   10    4   23      3.43      0.00
   12    4   23      2.90      0.00
   14    4   23      1.79      0.00
   16    4   23      5.87      0.00
   18    4   23    -12.08      0.00
   20    4   23     10.09      0.00
   22    4   23     -8.68      0.00
   24    4   23     15.59      0.00
   40    4   23     24.93      0.00
    1    5   23     -3.70      0.00
    3    5   23     -7.41      0.00
    5    5   23      5.03      0.00
    7    5   23     -4.42      0.00
    9    5   23     -4.92      0.00
   11    5   23     -9.21      0.00
   13    5   23    -17.61      0.00
   15    5   23     -7.23      0.00
   17    5   23    -10.23      0.00
   19    5   23     -3.84      0.00
   21    5   23     -5.58      0.00
   23    5   23     -9.98      0.00
   25    5   23     -2.43      0.00
   29    5   23     12.90      0.00
   31    5   23     15.02      0.00
   33    5   23     15.04      0.00
   35    5   23      9.63      0.00
   37    5   23      5.16      0.00
   39    5   23      1.20      0.00
    0    6   23     20.41      0.00
    2    6   23      4.48      0.00
    4    6   23      3.00      0.00
    6    6   23      1.79      0.00
    8    6   23    -14.48      0.00
   10    6   23      3.79      0.00
   12    6   23    -19.04      0.00
   14    6   23      2.87      0.00
   16    6   23    -25.51      0.00
   18    6   23      0.31      0.00
   20    6   23    -14.15      0.00
   22    6   23     -2.36      0.00
   24    6   23      7.58      0.00
   26    6   23      2.05      0.00
   28    6   23     10.96      0.00
   30    6   23     31.96      0.00
   32    6   23     29.27      0.00
   34    6   23     61.64      0.00
   36    6   23     45.75      0.00
   38    6   23     31.99      0.00
    1    7   23     -6.85      0.00
    3    7   23      2.45      0.00
    5    7   23     -8.26      0.00
    7    7   23      8.15      0.00
    9    7   23      2.06      0.00
   11    7   23      2.94      0.00
   13    7   23     14.81      0.00
   15    7   23      0.56      0.00
   17    7   23     10.74      0.00
   19    7   23     -1.46      0.00
   21    7   23     -0.25      0.00
   23    7   23     -5.26      0.00
   25    7   23     -7.77      0.00
   27    7   23     -1.15      0.00
   29    7   23    -14.01      0.00
   31    7   23      6.42      0.00
   33    7   23     -7.16      0.00
   35    7   23     -5.24      0.00
   37    7   23     -3.87      0.00
    0    8   23     16.81      0.00
    2    8   23      6.05      0.00
    4    8   23     13.19      0.00
    6    8   23     12.55      0.00
    8    8   23      5.83      0.00
   10    8   23     10.75      0.00
   12    8   23      7.89      0.00
   14    8   23      5.82      0.00
   16    8   23      9.55      0.00
   18    8   23     -4.59      0.00
   20    8   23     -1.89      0.00
   22    8   23     -1.77      0.00
   24    8   23      6.80      0.00
   26    8   23      3.42      0.00
   28    8   23      0.22      0.00
   30    8   23    -17.84      0.00
   32    8   23    -11.29      0.00
   34    8   23     -9.55      0.00
   36    8   23      6.72      0.00
    1    9   23      3.18      0.00
    3    9   23      1.05      0.00
    5    9   23     -2.18      0.00
    7    9   23     -4.83      0.00
    9    9   23      1.85      0.00
   11    9   23      0.09      0.00
   13    9   23      3.09      0.00
   15    9   23      1.00      0.00
   17    9   23      2.05      0.00
   19    9   23     -4.49      0.00
   21    9   23     -2.84      0.00
   23    9   23     -8.61      0.00
   25    9   23     -4.89      0.00
   27    9   23     -5.82      0.00
   29    9   23      1.53      0.00
   31    9   23      8.07      0.00
   33    9   23     -1.06      0.00
   35    9   23     17.13      0.00
    0   10   23     17.04      0.00
    2   10   23     11.81      0.00
    4   10   23      4.58      0.00
    6   10   23     -2.41      0.00
    8   10   23      3.09      0.00
   10   10   23      6.31      0.00
   12   10   23     10.56      0.00
   14   10   23      6.05      0.00
   16   10   23      8.33      0.00
   18   10   23     -2.35      0.00
   20   10   23      2.99      0.00
   22   10   23      5.94      0.00
   24   10   23     -2.77      0.00
   26   10   23     20.81      0.00
   28   10   23    -12.08      0.00
   30   10   23     16.35      0.00
   32   10   23    -10.45      0.00
   34   10   23     12.49      0.00
    1   11   23     -6.34      0.00
    3   11   23     -9.20      0.00
    5   11   23      1.88      0.00
    7   11   23     -6.63      0.00
    9   11   23      4.34      0.00
   11   11   23     -6.17      0.00
   13   11   23      0.63      0.00
   15   11   23      0.72      0.00
   17   11   23      2.75      0.00
   19   11   23      7.85      0.00
   21   11   23     10.37      0.00
   23   11   23      0.08      0.00
   25   11   23     11.60      0.00
   27   11   23    -12.83      0.00
   29   11   23      3.40      0.00
   31   11   23     -9.33      0.00
    0   12   23     15.99      0.00
    2   12   23      2.36      0.00
    4   12   23      2.86      0.00
    6   12   23     -6.11      0.00
    8   12   23     -3.67      0.00
   10   12   23      3.96      0.00
   12   12   23     -4.24      0.00
   14   12   23     -0.65      0.00
   16   12   23      5.96      0.00
   18   12   23      0.36      0.00
   20   12   23     18.25      0.00
   22   12   23      1.77      0.00
   24   12   23      9.78      0.00
   26   12   23     -3.96      0.00
   28   12   23      3.41      0.00
    1   13   23      7.49      0.00
    3   13   23     18.18      0.00
    5   13   23     20.00      0.00
    7   13   23     28.02      0.00
    9   13   23     15.53      0.00
   11   13   23      5.22      0.00
   13   13   23     -3.00      0.00
   15   13   23     -6.73      0.00
   17   13   23     -7.25      0.00
   19   13   23      2.02      0.00
   21   13   23     -5.17      0.00
   23   13   23      2.35      0.00
   25   13   23     -5.62      0.00
    0   14   23      7.01      0.00
    2   14   23     -3.93      0.00
    4   14   23      0.86      0.00
    6   14   23      3.16      0.00
    8   14   23     13.28      0.00
   10   14   23     14.05      0.00
   12   14   23     26.52      0.00
   14   14   23     17.99      0.00
   16   14   23     24.43      0.00
   18   14   23     23.48      0.00
   20   14   23     15.19      0.00
   22   14   23      8.69      0.00
    1   15   23     -7.16      0.00
    3   15   23     -4.99      0.00
    5   15   23     -6.48      0.00
    7   15   23      0.27      0.00
    9   15   23     -0.76      0.00
   11   15   23      0.91      0.00
   13   15   23     -1.23      0.00
   15   15   23     -6.96      0.00
   17   15   23      1.43      0.00
    0   16   23     -0.90      0.00
    2   16   23    -12.63      0.00
    4   16   23    -10.19      0.00
    6   16   23     -3.54      0.00
    8   16   23      2.54      0.00
   10   16   23     20.14      0.00
   12   16   23     10.94      0.00
    0    0   24    -14.89      0.00
    2    0   24     12.66      0.00
    4    0   24    -14.43      0.00
    6    0   24     12.15      0.00
    8    0   24      1.03      0.00
   10    0   24      3.75      0.00
   12    0   24      5.43      0.00
   14    0   24    -19.37      0.00
   16    0   24      3.33      0.00
   18    0   24     -7.18      0.00
   20    0   24     20.57      0.00
   22    0   24     17.09      0.00
   24    0   24     16.36      0.00
   26    0   24      7.20      0.00
   28    0   24      3.59      0.00
   30    0   24      1.81      0.00
   32    0   24      4.46      0.00
   34    0   24     10.59      0.00
   36    0   24     -2.04      0.00
   38    0   24      2.68      0.00
   40    0   24     -6.30      0.00
    1    1   24      1.58      0.00
    3    1   24      8.37      0.00
    5    1   24      7.74      0.00
    7    1   24     17.44      0.00
    9    1   24      6.82      0.00
   11    1   24     10.01      0.00
   13    1   24      5.18      0.00
   15    1   24      5.62      0.00
   17    1   24      3.61      0.00
   19    1   24     12.94      0.00
   21    1   24      5.74      0.00
   23    1   24     17.04      0.00
   25    1   24     17.07      0.00
   27    1   24     10.67      0.00
   29    1   24     11.50      0.00
   31    1   24     -7.63      0.00
   33    1   24    -13.97      0.00
   35    1   24    -21.96      0.00
   37    1   24    -12.74      0.00
   39    1   24     -5.53      0.00
   41    1   24      5.75      0.00
    0    2   24      8.01      0.00
    2    2   24     -5.10      0.00
    4    2   24      9.17      0.00
    6    2   24      1.99      0.00
    8    2   24     15.40      0.00
   10    2   24      5.12      0.00
   12    2   24     12.22      0.00
   14    2   24      1.68      0.00
   16    2   24     -3.29      0.00
   18    2   24      2.11      0.00
   20    2   24    -12.70      0.00
   22    2   24    -10.72      0.00
   24    2   24    -11.71      0.00
   32    2   24      6.15      0.00
   34    2   24     39.56      0.00
   36    2   24     -3.15      0.00
   38    2   24     18.74      0.00
   40    2   24     -6.13      0.00
    1    3   24     -1.04      0.00
    3    3   24      8.37      0.00
    5    3   24      4.58      0.00
    7    3   24     11.26      0.00
    9    3   24      4.03      0.00
   11    3   24      2.60      0.00
   13    3   24     -2.01      0.00
   15    3   24     -5.31      0.00
   17    3   24     -9.23      0.00
   21    3   24     -8.72      0.00
   23    3   24     -0.51      0.00
   35    3   24      8.16      0.00
    0    4   24      7.12      0.00
    2    4   24    -11.00      0.00
    4    4   24     -5.34      0.00
    6    4   24    -12.03      0.00
    8    4   24    -17.57      0.00
   10    4   24     -4.37      0.00
   12    4   24     -8.48      0.00
   14    4   24     -5.18      0.00
   16    4   24     -5.06      0.00
   18    4   24    -12.36      0.00
   20    4   24    -10.82      0.00
   22    4   24    -12.06      0.00
   26    4   24     -8.54      0.00
    1    5   24      4.42      0.00
    3    5   24     10.51      0.00
    5    5   24      8.90      0.00
    7    5   24     11.64      0.00
    9    5   24     -4.23      0.00
   11    5   24      1.51      0.00
   13    5   24     -7.86      0.00
   15    5   24      8.01      0.00
   17    5   24      1.59      0.00
   19    5   24     10.53      0.00
   21    5   24      0.91      0.00
   23    5   24     -3.24      0.00
   27    5   24     -6.57      0.00
   31    5   24     -9.78      0.00
   35    5   24    -11.56      0.00
   37    5   24     -7.96      0.00
   39    5   24      9.63      0.00
    0    6   24      0.88      0.00
    2    6   24      7.74      0.00
    4    6   24     -6.00      0.00
    6    6   24     -9.27      0.00
    8    6   24      0.42      0.00
   10    6   24     -7.46      0.00
   12    6   24      9.64      0.00
   14    6   24     -0.76      0.00
   16    6   24     -1.26      0.00
   18    6   24      2.01      0.00
   20    6   24     -2.41      0.00
   22    6   24      6.41      0.00
   24    6   24      1.90      0.00
   28    6   24     17.86      0.00
   30    6   24      3.51      0.00
   32    6   24     29.65      0.00
   34    6   24    -16.85      0.00
   36    6   24     28.97      0.00
   38    6   24    -17.82      0.00
    1    7   24      0.90      0.00
    3    7   24     -6.77      0.00
    5    7   24      4.16      0.00
    7    7   24     -9.09      0.00
    9    7   24      0.87      0.00
   11    7   24    -12.44      0.00
   13    7   24     -3.90      0.00
   15    7   24    -13.99      0.00
   17    7   24     -0.83      0.00
   19    7   24      2.12      0.00
   21    7   24     -4.55      0.00
   23    7   24     -3.00      0.00
   25    7   24    -11.93      0.00
   27    7   24      2.57      0.00
   29    7   24     11.70      0.00
   31    7   24     18.62      0.00
   33    7   24     -8.05      0.00
   35    7   24     -1.11      0.00
    0    8   24     -7.85      0.00
    2    8   24      4.82      0.00
    4    8   24      3.36      0.00
    6    8   24      4.87      0.00
    8    8   24     14.32      0.00
   10    8   24     -3.85      0.00
   12    8   24      8.00      0.00
   14    8   24    -10.53      0.00
   16    8   24      1.33      0.00
   18    8   24     -1.30      0.00
   20    8   24      4.85      0.00
   22    8   24      1.92      0.00
   24    8   24     -2.71      0.00
   26    8   24      0.27      0.00
   28    8   24     -1.58      0.00
   30    8   24      9.58      0.00
   32    8   24      2.34      0.00
   34    8   24      3.29      0.00
    1    9   24    -13.23      0.00
    3    9   24     -1.87      0.00
    5    9   24     -8.68      0.00
    7    9   24     14.62      0.00
    9    9   24    -11.61      0.00
   11    9   24     11.53      0.00
   13    9   24    -14.13      0.00
   15    9   24     -2.91      0.00
   17    9   24      4.65      0.00
   19    9   24     -7.17      0.00
   21    9   24     17.98      0.00
   23    9   24    -21.07      0.00
   25    9   24     -5.54      0.00
   27    9   24    -19.96      0.00
   29    9   24      0.50      0.00
   31    9   24      3.09      0.00
   33    9   24     10.01      0.00
    0   10   24      4.54      0.00
    2   10   24     -1.11      0.00
    4   10   24      8.63      0.00
    6   10   24      4.48      0.00
    8   10   24      4.58      0.00
   10   10   24      8.14      0.00
   12   10   24      1.36      0.00
   14   10   24      3.23      0.00
   16   10   24     -2.38      0.00
   18   10   24     -8.45      0.00
   20   10   24     -7.08      0.00
   22   10   24     -2.78      0.00
   24   10   24     -6.68      0.00
   26   10   24     10.88      0.00
   28   10   24     -5.85      0.00
   30   10   24     17.42      0.00
   32   10   24    -12.90      0.00
    1   11   24    -13.26      0.00
    3   11   24     -6.33      0.00
    5   11   24      7.21      0.00
    7   11   24      3.30      0.00
    9   11   24      3.47      0.00
   11   11   24      4.85      0.00
   13   11   24     -3.89      0.00
   15   11   24     13.05      0.00
   17   11   24      0.20      0.00
   19   11   24      0.36      0.00
   21   11   24      4.86      0.00
   23   11   24    -15.08      0.00
   25   11   24      5.17      0.00
   27   11   24     -8.08      0.00
   29   11   24      1.79      0.00
    0   12   24     -3.45      0.00
    2   12   24     -7.52      0.00
    4   12   24    -21.36      0.00
    6   12   24    -30.97      0.00
    8   12   24    -20.14      0.00
   10   12   24     -9.74      0.00
   12   12   24      2.31      0.00
   14   12   24      6.15      0.00
   16   12   24     -6.98      0.00
   18   12   24     -9.66      0.00
   20   12   24      3.77      0.00
   22   12   24    -11.98      0.00
   24   12   24     16.31      0.00
   26   12   24     -5.36      0.00
    1   13   24    -10.54      0.00
    3   13   24     -9.75      0.00
    5   13   24      0.80      0.00
    7   13   24     -1.38      0.00
    9   13   24      1.84      0.00
   11   13   24      8.27      0.00
   13   13   24      6.17      0.00
   15   13   24      9.88      0.00
   17   13   24      0.12      0.00
   19   13   24      0.19      0.00
   21   13   24     -4.61      0.00
   23   13   24     -0.60      0.00
    0   14   24     35.11      0.00
    2   14   24     46.18      0.00
    4   14   24     12.64      0.00
    6   14   24      2.99      0.00
    8   14   24    -13.32      0.00
   10   14   24     -8.53      0.00
   12   14   24     -9.92      0.00
   14   14   24     -2.47      0.00
   16   14   24    -19.61      0.00
   18   14   24     -6.09      0.00
   20   14   24    -23.15      0.00
    1   15   24      2.95      0.00
    3   15   24      1.47      0.00
    5   15   24     14.98      0.00
    7   15   24      5.43      0.00
    9   15   24      0.80      0.00
   11   15   24      2.02      0.00
   13   15   24      3.08      0.00
    0   16   24     19.19      0.00
    2   16   24     18.66      0.00
    1    1   25      6.56      0.00
    3    1   25      3.89      0.00
    5    1   25      1.90      0.00
    7    1   25      1.05      0.00
    9    1   25    -16.64      0.00
   11    1   25      3.66      0.00
   13    1   25     -5.02      0.00
   15    1   25     13.82      0.00
   17    1   25      9.68      0.00
   19    1   25      6.77      0.00
   21    1   25     -2.11      0.00
   23    1   25      0.22      0.00
   25    1   25     -3.23      0.00
   27    1   25      9.86      0.00
   29    1   25      8.84      0.00
   31    1   25      8.03      0.00
   33    1   25     -0.17      0.00
   35    1   25     11.70      0.00
   37    1   25      1.38      0.00
   39    1   25     27.56      0.00
    0    2   25     -4.84      0.00
    2    2   25    -10.30      0.00
    4    2   25     -4.82      0.00
    6    2   25    -11.70      0.00
    8    2   25     -2.05      0.00
   10    2   25    -13.38      0.00
   12    2   25     -7.23      0.00
   14    2   25    -16.27      0.00
   16    2   25     -8.56      0.00
   18    2   25    -13.01      0.00
   20    2   25      2.43      0.00
   22    2   25    -14.04      0.00
   24    2   25      1.62      0.00
   26    2   25    -29.92      0.00
   28    2   25     -9.00      0.00
   30    2   25    -43.97      0.00
   32    2   25      4.00      0.00
   34    2   25    -29.14      0.00
   36    2   25     18.13      0.00
   38    2   25    -11.77      0.00
    1    3   25     -1.06      0.00
    3    3   25     -5.72      0.00
    5    3   25     18.41      0.00
    7    3   25      3.38      0.00
    9    3   25     12.73      0.00
   11    3   25      3.22      0.00
   13    3   25     -2.42      0.00
   15    3   25      3.01      0.00
   17    3   25     -5.02      0.00
   19    3   25     12.22      0.00
   25    3   25     17.06      0.00
   31    3   25    -10.00      0.00
   33    3   25     -8.75      0.00
   35    3   25     -3.87      0.00
   37    3   25    -28.10      0.00
    0    4   25    -19.40      0.00
    2    4   25    -15.54      0.00
    4    4   25    -17.76      0.00
    6    4   25     -7.62      0.00
    8    4   25     -4.78      0.00
   10    4   25      5.44      0.00
   12    4   25      0.89      0.00
   14    4   25     -5.49      0.00
   16    4   25      6.10      0.00
   18    4   25    -10.19      0.00
   22    4   25     -8.27      0.00
   28    4   25     -7.86      0.00
   34    4   25    -16.80      0.00
    1    5   25     -5.26      0.00
    3    5   25      1.02      0.00
    5    5   25     16.73      0.00
    7    5   25     15.25      0.00
    9    5   25      9.09      0.00
   11    5   25      6.57      0.00
   13    5   25     -3.05      0.00
   15    5   25      3.20      0.00
   17    5   25      4.88      0.00
   19    5   25      0.65      0.00
   23    5   25      2.96      0.00
   25    5   25      7.64      0.00
   27    5   25     -2.91      0.00
   29    5   25      1.06      0.00
   31    5   25    -12.03      0.00
   33    5   25     11.14      0.00
   37    5   25     16.03      0.00
    0    6   25      3.79      0.00
    2    6   25     -2.49      0.00
    4    6   25     -7.32      0.00
    6    6   25     -0.99      0.00
    8    6   25    -16.98      0.00
   10    6   25     10.81      0.00
   12    6   25    -18.01      0.00
   14    6   25      9.72      0.00
   16    6   25    -31.69      0.00
   18    6   25    -11.58      0.00
   20    6   25    -19.19      0.00
   22    6   25     -3.23      0.00
   24    6   25     21.97      0.00
   26    6   25     12.12      0.00
   28    6   25      4.56      0.00
   30    6   25     26.17      0.00
   32    6   25     10.47      0.00
   34    6   25     65.04      0.00
   36    6   25     38.00      0.00
    1    7   25     -3.03      0.00
    3    7   25      6.62      0.00
    5    7   25     -6.51      0.00
    7    7   25      2.06      0.00
    9    7   25     -8.76      0.00
   11    7   25    -14.81      0.00
   13    7   25      7.05      0.00
   15    7   25     -8.56      0.00
   17    7   25      2.29      0.00
   19    7   25     -3.94      0.00
   21    7   25    -10.73      0.00
   23    7   25      9.73      0.00
   25    7   25      7.99      0.00
   27    7   25     17.98      0.00
   29    7   25      7.44      0.00
   31    7   25     14.25      0.00
   33    7   25     14.13      0.00
    0    8   25     -4.66      0.00
    2    8   25     -0.26      0.00
    4    8   25     -8.74      0.00
    6    8   25     -5.43      0.00
    8    8   25     -8.37      0.00
   10    8   25     -4.69      0.00
   12    8   25      8.48      0.00
   14    8   25      7.38      0.00
   16    8   25      8.11      0.00
   18    8   25     -3.05      0.00
   20    8   25    -13.64      0.00
   22    8   25      1.20      0.00
   24    8   25      0.12      0.00
   26    8   25      9.71      0.00
   28    8   25     -7.06      0.00
   30    8   25    -23.49      0.00
   32    8   25     -9.71      0.00
    1    9   25     -0.05      0.00
    3    9   25     -4.54      0.00
    5    9   25    -12.46      0.00
    7    9   25    -13.49      0.00
    9    9   25    -15.43      0.00
   11    9   25     -1.94      0.00
   13    9   25    -12.06      0.00
   15    9   25      4.72      0.00
   17    9   25     -7.53      0.00
   19    9   25     -8.91      0.00
   21    9   25     -5.81      0.00
   23    9   25    -12.56      0.00
   25    9   25     -4.19      0.00
   27    9   25    -10.73      0.00
   29    9   25     -6.71      0.00
   31    9   25     -0.78      0.00
    0   10   25     11.96      0.00
    2   10   25     10.98      0.00
    4   10   25     -2.54      0.00
    6   10   25      7.66      0.00
    8   10   25     -8.23      0.00
   10   10   25     14.61      0.00
   12   10   25     12.31      0.00
   14   10   25     12.70      0.00
   16   10   25     26.27      0.00
   18   10   25      3.34      0.00
   20   10   25     10.59      0.00
   22   10   25      8.60      0.00
   24   10   25     -3.79      0.00
   26   10   25     21.22      0.00
   28   10   25    -15.31      0.00
    1   11   25     -7.11      0.00
    3   11   25      6.41      0.00
    5   11   25     19.04      0.00
    7   11   25     19.80      0.00
    9   11   25     20.82      0.00
   11   11   25     -7.67      0.00
   13   11   25      5.30      0.00
   15   11   25     -7.38      0.00
   17   11   25      7.55      0.00
   19   11   25     -0.63      0.00
   21   11   25      5.52      0.00
   23   11   25     -8.74      0.00
   25   11   25     14.26      0.00
   27   11   25     -9.34      0.00
    0   12   25      3.85      0.00
    2   12   25    -19.18      0.00
    4   12   25      1.21      0.00
    6   12   25     -9.34      0.00
    8   12   25     -0.73      0.00
   10   12   25      3.96      0.00
   12   12   25     -0.43      0.00
   14   12   25      3.68      0.00
   16   12   25     13.81      0.00
   18   12   25      2.12      0.00
   20   12   25     22.25      0.00
   22   12   25      5.49      0.00
   24   12   25     16.83      0.00
    1   13   25     -3.49      0.00
    3   13   25     24.13      0.00
    5   13   25     31.91      0.00
    7   13   25     44.84      0.00
    9   13   25     21.08      0.00
   11   13   25     -4.91      0.00
   13   13   25    -11.22      0.00
   15   13   25     -7.24      0.00
   17   13   25     -3.20      0.00
   19   13   25     10.34      0.00
    0   14   25     21.04      0.00
    2   14   25      9.19      0.00
    4   14   25     16.58      0.00
    6   14   25     22.69      0.00
    8   14   25     27.54      0.00
   10   14   25     32.85      0.00
   12   14   25     32.88      0.00
   14   14   25     24.27      0.00
    1   15   25    -25.25      0.00
    3   15   25    -16.37      0.00
    5   15   25    -13.91      0.00
    7   15   25      2.52      0.00
    0    0   26     -6.03      0.00
    2    0   26      2.49      0.00
    4    0   26    -10.21      0.00
    6    0   26     10.24      0.00
    8    0   26      1.93      0.00
   10    0   26      3.57      0.00
   12    0   26     12.90      0.00
   14    0   26    -25.15      0.00
   16    0   26      2.73      0.00
   18    0   26    -23.06      0.00
   20    0   26      0.71      0.00
   22    0   26      6.53      0.00
   24    0   26     11.85      0.00
   26    0   26     -3.00      0.00
   28    0   26     10.32      0.00
   30    0   26    -16.22      0.00
   32    0   26     13.50      0.00
   34    0   26     10.76      0.00
   36    0   26      0.33      0.00
    1    1   26      8.98      0.00
    3    1   26      8.36      0.00
    5    1   26     -0.77      0.00
    7    1   26      7.04      0.00
    9    1   26     -5.43      0.00
   11    1   26     12.50      0.00
   13    1   26      2.05      0.00
   15    1   26     16.00      0.00
   17    1   26      8.88      0.00
   19    1   26     12.23      0.00
   21    1   26      9.14      0.00
   23    1   26      1.75      0.00
   25    1   26      3.68      0.00
   27    1   26      0.23      0.00
   29    1   26     -4.43      0.00
   31    1   26     -3.49      0.00
   33    1   26    -19.33      0.00
   35    1   26    -18.67      0.00
   37    1   26    -18.10      0.00
    0    2   26     21.77      0.00
    2    2   26     12.57      0.00
    4    2   26      6.02      0.00
    6    2   26      5.78      0.00
    8    2   26     -2.00      0.00
   10    2   26      9.12      0.00
   12    2   26      1.99      0.00
   14    2   26     12.42      0.00
   16    2   26     -9.93      0.00
   18    2   26     17.52      0.00
   20    2   26     -4.28      0.00
   22    2   26     28.18      0.00
   24    2   26     16.06      0.00
   26    2   26     19.66      0.00
   28    2   26     -6.65      0.00
   30    2   26     17.74      0.00
   32    2   26    -11.95      0.00
   34    2   26     37.38      0.00
   36    2   26     -3.53      0.00
    1    3   26      7.96      0.00
    3    3   26      5.53      0.00
    5    3   26      2.75      0.00
    7    3   26     -3.42      0.00
    9    3   26      3.00      0.00
   11    3   26      1.83      0.00
   13    3   26     11.83      0.00
   15    3   26      3.27      0.00
   17    3   26     -8.22      0.00
   19    3   26    -27.52      0.00
   25    3   26    -43.73      0.00
   29    3   26    -10.03      0.00
   31    3   26     46.47      0.00
   33    3   26      8.42      0.00
   35    3   26     29.27      0.00
    0    4   26     -0.77      0.00
    2    4   26    -22.04      0.00
    4    4   26    -22.74      0.00
    6    4   26    -28.58      0.00
    8    4   26    -33.98      0.00
   10    4   26    -13.22      0.00
   12    4   26    -16.61      0.00
   14    4   26    -11.34      0.00
   16    4   26     -7.59      0.00
   18    4   26    -13.32      0.00
   22    4   26     -8.41      0.00
   26    4   26     -5.16      0.00
   28    4   26     -4.08      0.00
   32    4   26     -8.28      0.00
   34    4   26      5.79      0.00
    1    5   26      3.90      0.00
    3    5   26      7.82      0.00
    5    5   26      8.27      0.00
    7    5   26     11.45      0.00
    9    5   26     -4.08      0.00
   11    5   26      8.71      0.00
   13    5   26    -12.00      0.00
   15    5   26     15.10      0.00
   17    5   26     -0.44      0.00
   19    5   26      1.57      0.00
   21    5   26     -4.53      0.00
   23    5   26    -35.54      0.00
   25    5   26     10.02      0.00
   27    5   26    -29.24      0.00
   29    5   26     37.82      0.00
   31    5   26    -16.94      0.00
   33    5   26      0.71      0.00
    0    6   26     14.09      0.00
    2    6   26     14.17      0.00
    4    6   26      1.51      0.00
    6    6   26     -5.36      0.00
    8    6   26     14.09      0.00
   10    6   26     -1.12      0.00
   12    6   26     16.22      0.00
   14    6   26     -1.73      0.00
   16    6   26     -5.60      0.00
   18    6   26     17.82      0.00
   20    6   26     -1.64      0.00
   22    6   26     17.78      0.00
   24    6   26     -2.73      0.00
   26    6   26     -2.54      0.00
   28    6   26     18.42      0.00
   30    6   26      1.34      0.00
   32    6   26     32.25      0.00
    1    7   26     -2.65      0.00
    3    7   26     -3.26      0.00
    5    7   26     10.70      0.00
    7    7   26     -1.21      0.00
    9    7   26     13.53      0.00
   11    7   26    -20.86      0.00
   13    7   26     -4.07      0.00
   15    7   26    -20.10      0.00
   17    7   26      4.01      0.00
   19    7   26     10.06      0.00
   21    7   26      0.51      0.00
   23    7   26    -12.38      0.00
   25    7   26    -14.07      0.00
   27    7   26     -2.66      0.00
   29    7   26     21.47      0.00
   31    7   26     27.94      0.00
    0    8   26    -19.45      0.00
    2    8   26    -15.37      0.00
    4    8   26    -14.52      0.00
    6    8   26    -12.77      0.00
    8    8   26     -5.78      0.00
   10    8   26    -12.45      0.00
   12    8   26    -16.67      0.00
   14    8   26    -23.96      0.00
   16    8   26    -22.36      0.00
   18    8   26    -20.20      0.00
   20    8   26     -3.88      0.00
   22    8   26    -15.29      0.00
   24    8   26      1.85      0.00
   26    8   26     -7.52      0.00
   28    8   26      2.85      0.00
   30    8   26      6.99      0.00
    1    9   26      7.34      0.00
    3    9   26     18.54      0.00
    5    9   26      0.99      0.00
    7    9   26     39.66      0.00
    9    9   26    -12.23      0.00
   11    9   26     40.31      0.00
   13    9   26    -20.34      0.00
   15    9   26     16.75      0.00
   17    9   26     -0.22      0.00
   19    9   26      5.28      0.00
   21    9   26     17.94      0.00
   23    9   26    -10.73      0.00
   25    9   26      4.51      0.00
   27    9   26     -9.43      0.00
   29    9   26     13.05      0.00
    0   10   26      8.98      0.00
    2   10   26     16.61      0.00
    4   10   26     -3.08      0.00
    6   10   26     -6.92      0.00
    8   10   26    -11.35      0.00
   10   10   26    -11.34      0.00
   12   10   26    -10.72      0.00
   14   10   26    -23.97      0.00
   16   10   26    -13.16      0.00
   18   10   26    -30.50      0.00
   20   10   26    -13.52      0.00
   22   10   26    -19.33      0.00
   24   10   26    -22.07      0.00
   26   10   26     -8.05      0.00
    1   11   26     25.55      0.00
    3   11   26      9.35      0.00
    5   11   26     29.77      0.00
    7   11   26      9.65      0.00
    9   11   26     23.26      0.00
   11   11   26     32.18      0.00
   13   11   26      4.56      0.00
   15   11   26     25.04      0.00
   17   11   26     -4.02      0.00
   19   11   26     -0.72      0.00
   21   11   26      5.00      0.00
   23   11   26    -17.76      0.00
    0   12   26     36.27      0.00
    2   12   26     17.32      0.00
    4   12   26     -0.51      0.00
    6   12   26    -40.12      0.00
    8   12   26     -6.01      0.00
   10   12   26    -13.77      0.00
   12   12   26     17.96      0.00
   14   12   26     11.48      0.00
   16   12   26      0.03      0.00
   18   12   26      4.60      0.00
   20   12   26     14.16      0.00
    1   13   26    -15.14      0.00
    3   13   26    -15.29      0.00
    5   13   26     -1.47      0.00
    7   13   26      2.09      0.00
    9   13   26     16.24      0.00
   11   13   26     23.58      0.00
   13   13   26     25.95      0.00
   15   13   26     27.09      0.00
    0   14   26     23.74      0.00
    2   14   26     28.31      0.00
    4   14   26     -3.61      0.00
    6   14   26    -15.79      0.00
    8   14   26    -15.81      0.00
    1    1   27      2.82      0.00
    3    1   27     -1.91      0.00
    5    1   27     -1.99      0.00
    7    1   27      0.29      0.00
    9    1   27    -20.76      0.00
   11    1   27      2.13      0.00
   13    1   27    -10.28      0.00
   15    1   27      9.13      0.00
   17    1   27     17.35      0.00
   19    1   27      9.32      0.00
   21    1   27     -1.64      0.00
   23    1   27     -6.34      0.00
   25    1   27    -10.79      0.00
   27    1   27     11.86      0.00
   29    1   27     23.64      0.00
   31    1   27     13.46      0.00
   33    1   27     10.95      0.00
    0    2   27      9.23      0.00
    2    2   27     -3.82      0.00
    4    2   27     15.49      0.00
    6    2   27     11.99      0.00
    8    2   27     12.42      0.00
   10    2   27     -5.16      0.00
   12    2   27     -5.10      0.00
   14    2   27    -29.96      0.00
   16    2   27     -3.30      0.00
   18    2   27    -24.88      0.00
   20    2   27     14.06      0.00
   22    2   27     -8.40      0.00
   24    2   27     15.88      0.00
   26    2   27    -21.98      0.00
   28    2   27      1.00      0.00
   30    2   27    -55.09      0.00
   32    2   27      5.23      0.00
   34    2   27    -46.75      0.00
    1    3   27     -4.73      0.00
    3    3   27     -8.73      0.00
    5    3   27     15.00      0.00
    7    3   27      2.28      0.00
    9    3   27     -1.03      0.00
   11    3   27     -4.80      0.00
   13    3   27    -22.90      0.00
   15    3   27     -6.47      0.00
   17    3   27     -6.03      0.00
   19    3   27      3.58      0.00
   21    3   27      9.26      0.00
   23    3   27     -7.23      0.00
   25    3   27     19.89      0.00
   27    3   27     -2.73      0.00
   29    3   27     32.36      0.00
   31    3   27      4.16      0.00
   33    3   27     -2.74      0.00
    0    4   27      1.66      0.00
    2    4   27     -3.77      0.00
    4    4   27      8.52      0.00
    6    4   27      6.45      0.00
    8    4   27     17.99      0.00
   10    4   27     14.24      0.00
   12    4   27      7.71      0.00
   14    4   27      1.55      0.00
   16    4   27     -1.41      0.00
   18    4   27      7.95      0.00
   20    4   27     29.66      0.00
   22    4   27     38.57      0.00
   24    4   27     42.78      0.00
   26    4   27     14.94      0.00
   28    4   27     -5.97      0.00
   30    4   27    -26.39      0.00
   32    4   27    -23.24      0.00
    1    5   27    -21.96      0.00
    3    5   27    -13.47      0.00
    5    5   27      0.41      0.00
    7    5   27      0.16      0.00
    9    5   27     -8.18      0.00
   11    5   27     -4.64      0.00
   13    5   27      6.23      0.00
   15    5   27     -9.26      0.00
   17    5   27     16.14      0.00
   19    5   27    -34.73      0.00
   21    5   27     -3.94      0.00
   23    5   27    -26.59      0.00
   25    5   27    -15.73      0.00
   27    5   27    -23.51      0.00
   29    5   27    -29.14      0.00
   31    5   27    -47.64      0.00
    0    6   27     18.63      0.00
    2    6   27     18.17      0.00
    4    6   27      5.32      0.00
    6    6   27      8.43      0.00
    8    6   27    -10.83      0.00
   10    6   27     24.33      0.00
   12    6   27     -6.26      0.00
   14    6   27     31.80      0.00
   16    6   27    -11.85      0.00
   18    6   27      6.34      0.00
   20    6   27      6.04      0.00
   22    6   27     22.71      0.00
   24    6   27     44.41      0.00
   26    6   27     28.90      0.00
   28    6   27      3.26      0.00
   30    6   27      7.92      0.00
    1    7   27     -2.62      0.00
    3    7   27      9.40      0.00
    5    7   27      7.34      0.00
    7    7   27     11.43      0.00
    9    7   27      7.09      0.00
   11    7   27     -3.85      0.00
   13    7   27     20.39      0.00
   15    7   27     -0.65      0.00
   17    7   27      2.40      0.00
   19    7   27     -1.32      0.00
   21    7   27    -19.59      0.00
   23    7   27      9.12      0.00
   25    7   27      3.82      0.00
   27    7   27      9.69      0.00
   29    7   27     10.37      0.00
    0    8   27     -7.17      0.00
    2    8   27      7.92      0.00
    4    8   27    -10.64      0.00
    6    8   27     -9.50      0.00
    8    8   27    -10.58      0.00
   10    8   27    -18.22      0.00
   12    8   27     -3.33      0.00
   14    8   27     -8.22      0.00
   16    8   27    -22.61      0.00
   18    8   27    -14.40      0.00
   20    8   27    -34.54      0.00
   22    8   27      4.23      0.00
   24    8   27     -3.65      0.00
   26    8   27     18.06      0.00
   28    8   27     -6.65      0.00
    1    9   27    -18.98      0.00
    3    9   27     -6.80      0.00
    5    9   27    -10.54      0.00
    7    9   27     -2.91      0.00
    9    9   27    -19.58      0.00
   11    9   27     -6.92      0.00
   13    9   27    -31.39      0.00
   15    9   27      0.15      0.00
   17    9   27    -24.21      0.00
   19    9   27     -6.42      0.00
   21    9   27     -5.10      0.00
   23    9   27    -12.46      0.00
   25    9   27     -1.53      0.00
    0   10   27    -27.62      0.00
    2   10   27    -15.08      0.00
    4   10   27    -30.88      0.00
    6   10   27      6.90      0.00
    8   10   27    -42.60      0.00
   10   10   27     -1.98      0.00
   12   10   27    -23.82      0.00
   14   10   27    -13.07      0.00
   16   10   27      9.79      0.00
   18   10   27    -15.82      0.00
   20   10   27     -4.12      0.00
   22   10   27     -9.49      0.00
    1   11   27    -16.49      0.00
    3   11   27     15.07      0.00
    5   11   27     14.24      0.00
    7   11   27     32.69      0.00
    9   11   27     13.67      0.00
   11   11   27     -2.74      0.00
   13   11   27     16.48      0.00
   15   11   27     -2.32      0.00
   17   11   27     18.21      0.00
   19   11   27     -7.52      0.00
    0   12   27      8.35      0.00
    2   12   27    -15.16      0.00
    4   12   27     15.41      0.00
    6   12   27      3.15      0.00
    8   12   27      3.52      0.00
   10   12   27     -4.34      0.00
   12   12   27    -15.14      0.00
   14   12   27    -13.85      0.00
   16   12   27     -6.71      0.00
    1   13   27     -2.80      0.00
    3   13   27     24.59      0.00
    5   13   27     27.03      0.00
    7   13   27     35.75      0.00
    9   13   27     15.55      0.00
    0    0   28    -20.37      0.00
    2    0   28     -7.35      0.00
    4    0   28    -20.96      0.00
    6    0   28      2.71      0.00
    8    0   28    -13.15      0.00
   10    0   28     -1.87      0.00
   12    0   28     -2.00      0.00
   14    0   28    -19.06      0.00
   16    0   28    -14.20      0.00
   18    0   28     -5.68      0.00
   20    0   28     10.83      0.00
   22    0   28     40.62      0.00
   24    0   28     50.13      0.00
   26    0   28      5.87      0.00
   28    0   28     29.67      0.00
   30    0   28    -26.03      0.00
   32    0   28     21.99      0.00
    1    1   28     -0.64      0.00
    3    1   28    -12.41      0.00
    5    1   28     -7.81      0.00
    7    1   28     -1.05      0.00
    9    1   28     -6.41      0.00
   11    1   28     38.08      0.00
   13    1   28      9.35      0.00
   15    1   28     36.70      0.00
   17    1   28     12.33      0.00
   19    1   28     -2.80      0.00
   21    1   28     -0.73      0.00
   23    1   28    -31.70      0.00
   25    1   28    -25.34      0.00
   27    1   28    -30.78      0.00
   29    1   28    -28.01      0.00
   31    1   28    -10.37      0.00
    0    2   28     -8.46      0.00
    2    2   28     -5.10      0.00
    4    2   28    -25.58      0.00
    6    2   28     -0.59      0.00
    8    2   28    -42.55      0.00
   10    2   28      7.59      0.00
   12    2   28    -22.14      0.00
   14    2   28     15.34      0.00
   16    2   28    -17.33      0.00
   18    2   28      9.30      0.00
   20    2   28     -9.52      0.00
   22    2   28     24.68      0.00
   24    2   28      7.43      0.00
   26    2   28     13.20      0.00
   28    2   28    -28.36      0.00
   30    2   28      0.21      0.00
   32    2   28    -26.79      0.00
    1    3   28     27.91      0.00
    3    3   28     13.88      0.00
    5    3   28     -1.71      0.00
    7    3   28    -16.30      0.00
    9    3   28    -14.93      0.00
   11    3   28    -10.90      0.00
   13    3   28      3.16      0.00
   15    3   28      3.35      0.00
   17    3   28     -2.94      0.00
   19    3   28    -15.27      0.00
   21    3   28    -44.97      0.00
   23    3   28    -34.64      0.00
   25    3   28    -56.47      0.00
   27    3   28      9.31      0.00
   29    3   28    -16.16      0.00
   31    3   28     49.71      0.00
    0    4   28     16.21      0.00
    2    4   28      4.99      0.00
    4    4   28     -6.44      0.00
    6    4   28     11.29      0.00
    8    4   28    -10.08      0.00
   10    4   28     31.16      0.00
   12    4   28     16.08      0.00
   14    4   28     15.42      0.00
   16    4   28     19.30      0.00
   18    4   28      2.71      0.00
   20    4   28      9.20      0.00
   22    4   28      6.50      0.00
   24    4   28    -10.60      0.00
   26    4   28    -17.02      0.00
   28    4   28    -19.06      0.00
   30    4   28    -23.61      0.00
    1    5   28    -22.55      0.00
    3    5   28    -16.02      0.00
    5    5   28    -10.83      0.00
    7    5   28    -10.75      0.00
    9    5   28    -10.64      0.00
   11    5   28    -13.18      0.00
   13    5   28    -18.81      0.00
   15    5   28     -0.87      0.00
   17    5   28     -3.02      0.00
   19    5   28    -15.23      0.00
   21    5   28     -8.71      0.00
   23    5   28    -68.00      0.00
   25    5   28     -5.45      0.00
   27    5   28    -53.88      0.00
   29    5   28     34.04      0.00
    0    6   28     15.75      0.00
    2    6   28      2.73      0.00
    4    6   28      7.05      0.00
    6    6   28      4.27      0.00
    8    6   28     26.30      0.00
   10    6   28     11.36      0.00
   12    6   28     23.02      0.00
   14    6   28     -0.28      0.00
   16    6   28     -1.58      0.00
   18    6   28     32.47      0.00
   20    6   28      9.56      0.00
   22    6   28     34.57      0.00
   24    6   28      5.13      0.00
   26    6   28    -10.38      0.00
   28    6   28     10.74      0.00
    1    7   28     -9.49      0.00
    3    7   28     -8.18      0.00
    5    7   28      8.10      0.00
    7    7   28     -3.54      0.00
    9    7   28     18.79      0.00
   11    7   28    -11.78      0.00
   13    7   28     18.51      0.00
   15    7   28      2.23      0.00
   17    7   28     23.37      0.00
   19    7   28     11.02      0.00
   21    7   28      0.99      0.00
   23    7   28    -27.68      0.00
   25    7   28    -15.00      0.00
   27    7   28    -21.75      0.00
    0    8   28     14.12      0.00
    2    8   28     11.21      0.00
    4    8   28      0.59      0.00
    6    8   28     -0.19      0.00
    8    8   28     -4.51      0.00
   10    8   28     22.10      0.00
   12    8   28     -3.45      0.00
   14    8   28     30.10      0.00
   16    8   28      0.57      0.00
   18    8   28      7.35      0.00
   20    8   28     13.26      0.00
   22    8   28    -14.30      0.00
   24    8   28     19.64      0.00
    1    9   28     16.70      0.00
    3    9   28     20.86      0.00
    5    9   28     -3.09      0.00
    7    9   28     39.68      0.00
    9    9   28    -19.03      0.00
   11    9   28     50.36      0.00
   13    9   28    -27.44      0.00
   15    9   28     21.99      0.00
   17    9   28    -16.03      0.00
   19    9   28      8.49      0.00
   21    9   28      4.79      0.00
    0   10   28     26.32      0.00
    2   10   28     51.14      0.00
    4   10   28     -1.76      0.00
    6   10   28     -3.47      0.00
    8   10   28    -10.58      0.00
   10   10   28    -11.25      0.00
   12   10   28     -6.16      0.00
   14   10   28    -24.11      0.00
   16   10   28     -8.82      0.00
   18   10   28    -26.81      0.00
   20   10   28     -3.40      0.00
    1   11   28     32.68      0.00
    3   11   28      2.44      0.00
    5   11   28     30.90      0.00
    7   11   28     -2.79      0.00
    9   11   28     18.96      0.00
   11   11   28     27.78      0.00
   13   11   28     -9.09      0.00
   15   11   28     11.77      0.00
    0   12   28     59.98      0.00
    2   12   28     36.33      0.00
    4   12   28     33.29      0.00
    6   12   28    -10.47      0.00
    8   12   28     27.55      0.00
   10   12   28     -5.63      0.00
    1    1   29    -23.30      0.00
    3    1   29    -28.03      0.00
    5    1   29    -18.67      0.00
    7    1   29    -14.05      0.00
    9    1   29     -9.48      0.00
   11    1   29     -4.78      0.00
   13    1   29     12.37      0.00
   15    1   29      9.36      0.00
   17    1   29     39.62      0.00
   19    1   29     12.59      0.00
   21    1   29      0.27      0.00
   23    1   29     -3.46      0.00
   25    1   29     -1.06      0.00
   27    1   29     26.85      0.00
   29    1   29     40.47      0.00
    0    2   29    -26.57      0.00
    2    2   29    -38.87      0.00
    4    2   29    -18.37      0.00
    6    2   29     -5.62      0.00
    8    2   29    -21.43      0.00
   10    2   29    -32.23      0.00
   12    2   29    -29.92      0.00
   14    2   29    -64.56      0.00
   16    2   29     -2.39      0.00
   18    2   29    -38.06      0.00
   20    2   29     32.11      0.00
   22    2   29      3.48      0.00
   24    2   29     47.36      0.00
   26    2   29      6.66      0.00
   28    2   29     38.27      0.00
    1    3   29     16.43      0.00
    3    3   29      1.91      0.00
    5    3   29     31.56      0.00
    7    3   29     17.70      0.00
    9    3   29     10.70      0.00
   11    3   29     23.94      0.00
   13    3   29     -7.27      0.00
   15    3   29     18.53      0.00
   17    3   29     22.83      0.00
   19    3   29      1.79      0.00
   21    3   29     26.25      0.00
   23    3   29    -23.33      0.00
   25    3   29     17.89      0.00
   27    3   29     -8.99      0.00
    0    4   29     17.20      0.00
    2    4   29     16.85      0.00
    4    4   29     20.07      0.00
    6    4   29     -0.40      0.00
    8    4   29     11.49      0.00
   10    4   29     -6.25      0.00
   12    4   29    -12.08      0.00
   14    4   29      2.22      0.00
   16    4   29    -23.51      0.00
   18    4   29     16.76      0.00
   20    4   29      6.21      0.00
   22    4   29     51.64      0.00
   24    4   29     40.36      0.00
   26    4   29     50.03      0.00
    1    5   29    -20.78      0.00
    3    5   29    -21.80      0.00
    5    5   29    -15.22      0.00
    7    5   29    -18.48      0.00
    9    5   29    -26.19      0.00
   11    5   29    -16.72      0.00
   13    5   29     18.61      0.00
   15    5   29    -13.45      0.00
   17    5   29     46.34      0.00
   19    5   29    -49.49      0.00
   21    5   29     -1.68      0.00
   23    5   29    -40.14      0.00
   25    5   29    -14.56      0.00
    0    6   29     14.38      0.00
    2    6   29     12.20      0.00
    4    6   29    -10.95      0.00
    6    6   29    -15.76      0.00
    8    6   29    -39.71      0.00
   10    6   29     -6.16      0.00
   12    6   29    -47.41      0.00
   14    6   29     -6.49      0.00
   16    6   29    -41.99      0.00
   18    6   29    -11.83      0.00
   20    6   29     -1.26      0.00
   22    6   29     19.34      0.00
   24    6   29     30.16      0.00
    1    7   29    -19.63      0.00
    3    7   29     -9.51      0.00
    5    7   29      3.50      0.00
    7    7   29      8.22      0.00
    9    7   29     19.02      0.00
   11    7   29     10.78      0.00
   13    7   29     34.55      0.00
   15    7   29     21.79      0.00
   17    7   29     28.81      0.00
   19    7   29     28.71      0.00
   21    7   29     12.03      0.00
   23    7   29     26.62      0.00
    0    8   29    -10.40      0.00
    2    8   29      8.27      0.00
    4    8   29      3.22      0.00
    6    8   29     20.80      0.00
    8    8   29     20.78      0.00
   10    8   29      5.09      0.00
   12    8   29      3.83      0.00
   14    8   29    -11.57      0.00
   16    8   29    -29.39      0.00
   18    8   29     -7.67      0.00
   20    8   29    -32.18      0.00
    1    9   29    -43.63      0.00
    3    9   29    -14.39      0.00
    5    9   29    -17.67      0.00
    7    9   29      2.90      0.00
    9    9   29    -17.12      0.00
   11    9   29    -17.62      0.00
   13    9   29    -39.22      0.00
   15    9   29     -6.99      0.00
   17    9   29    -29.60      0.00
    0   10   29    -17.45      0.00
    2   10   29      2.65      0.00
    4   10   29    -21.34      0.00
    6   10   29     27.68      0.00
    8   10   29    -37.45      0.00
   10   10   29     15.80      0.00
   12   10   29    -21.52      0.00
   14   10   29      0.47      0.00
    1   11   29    -57.53      0.00
    3   11   29    -25.94      0.00
    5   11   29    -39.09      0.00
    7   11   29     -5.12      0.00
    9   11   29    -28.49      0.00
    0    0   30    -37.32      0.00
    2    0   30      0.48      0.00
    4    0   30    -24.93      0.00
    6    0   30     10.75      0.00
    8    0   30    -13.46      0.00
   10    0   30     12.26      0.00
   12    0   30    -17.48      0.00
   14    0   30      2.71      0.00
   16    0   30    -40.59      0.00
   18    0   30     18.14      0.00
   20    0   30     20.92      0.00
   22    0   30     66.17      0.00
   24    0   30     75.30      0.00
   26    0   30     12.04      0.00
    1    1   30     14.95      0.00
    3    1   30     -4.48      0.00
    5    1   30      8.94      0.00
    7    1   30      8.99      0.00
    9    1   30      1.48      0.00
   11    1   30     57.57      0.00
   13    1   30     19.21      0.00
   15    1   30     56.25      0.00
   17    1   30     30.70      0.00
   19    1   30     11.34      0.00
   21    1   30     23.22      0.00
   23    1   30    -12.47      0.00
   25    1   30      0.64      0.00
    0    2   30    -44.73      0.00
    2    2   30    -41.99      0.00
    4    2   30    -45.50      0.00
    6    2   30     14.03      0.00
    8    2   30    -30.14      0.00
   10    2   30     62.53      0.00
   12    2   30     23.33      0.00
   14    2   30     61.64      0.00
   16    2   30     31.10      0.00
   18    2   30     24.43      0.00
   20    2   30     17.81      0.00
   22    2   30     17.61      0.00
   24    2   30      1.13      0.00
   26    2   30     -3.00      0.00
    1    3   30      6.08      0.00
    3    3   30     -2.89      0.00
    5    3   30    -26.00      0.00
    7    3   30    -26.20      0.00
    9    3   30    -35.84      0.00
   11    3   30    -28.23      0.00
   13    3   30    -31.84      0.00
   15    3   30    -37.74      0.00
   17    3   30    -44.24      0.00
   19    3   30    -35.90      0.00
   21    3   30    -48.54      0.00
   23    3   30    -25.08      0.00
   25    3   30    -44.74      0.00
    0    4   30      7.30      0.00
    2    4   30     19.06      0.00
    4    4   30     -2.66      0.00
    6    4   30     55.02      0.00
    8    4   30      3.56      0.00
   10    4   30     65.29      0.00
   12    4   30     32.09      0.00
   14    4   30     24.07      0.00
   16    4   30     40.16      0.00
   18    4   30     21.04      0.00
   20    4   30     55.19      0.00
   22    4   30     51.79      0.00
   24    4   30     35.80      0.00
    1    5   30      3.61      0.00
    3    5   30     18.87      0.00
    5    5   30     33.55      0.00
    7    5   30     21.82      0.00
    9    5   30     45.83      0.00
   11    5   30      4.37      0.00
   13    5   30     33.50      0.00
   15    5   30     16.53      0.00
   17    5   30     32.94      0.00
   19    5   30      1.31      0.00
   21    5   30     15.40      0.00
   23    5   30    -51.21      0.00
    0    6   30     28.55      0.00
    2    6   30      2.58      0.00
    4    6   30     12.71      0.00
    6    6   30      0.42      0.00
    8    6   30      6.61      0.00
   10    6   30     -2.73      0.00
   12    6   30     10.94      0.00
   14    6   30     -5.52      0.00
   16    6   30      5.33      0.00
   18    6   30     30.34      0.00
   20    6   30     23.23      0.00
    1    7   30    -12.98      0.00
    3    7   30    -19.65      0.00
    5    7   30     -4.47      0.00
    7    7   30    -21.45      0.00
    9    7   30      2.93      0.00
   11    7   30      3.45      0.00
   13    7   30     42.70      0.00
   15    7   30     35.83      0.00
   17    7   30     44.31      0.00
   19    7   30      8.16      0.00
    0    8   30     17.46      0.00
    2    8   30     13.64      0.00
    4    8   30     -3.54      0.00
    6    8   30     -8.29      0.00
    8    8   30    -21.61      0.00
   10    8   30     27.06      0.00
   12    8   30     -7.08      0.00
   14    8   30     60.86      0.00
   16    8   30     12.98      0.00
    1    9   30     26.43      0.00
    3    9   30     23.78      0.00
    5    9   30      8.85      0.00
    7    9   30     40.66      0.00
    9    9   30      4.03      0.00
   11    9   30     69.70      0.00
   13    9   30     14.97      0.00
    0   10   30      9.96      0.00
    2   10   30     49.18      0.00
    4   10   30     -2.92      0.00
    6   10   30      5.34      0.00
    1    1   31     33.03      0.00
    3    1   31     22.80      0.00
    5    1   31     35.80      0.00
    7    1   31     16.88      0.00
    9    1   31     41.98      0.00
   11    1   31      9.66      0.00
   13    1   31     54.99      0.00
   15    1   31     22.47      0.00
   17    1   31     59.81      0.00
   21    1   31     -2.20      0.00
    0    2   31   -101.28      0.00
    2    2   31    -97.21      0.00
    4    2   31    -89.84      0.00
    6    2   31    -56.17      0.00
    8    2   31    -78.31      0.00
   10    2   31    -71.09      0.00
   12    2   31    -57.37      0.00
   14    2   31    -82.73      0.00
   16    2   31     -7.08      0.00
   18    2   31    -47.11      0.00
   20    2   31     21.17      0.00
   22    2   31    -16.04      0.00
    1    3   31     15.67      0.00
    3    3   31    -15.04      0.00
    5    3   31     24.02      0.00
    7    3   31      0.26      0.00
    9    3   31     -4.96      0.00
   11    3   31     31.83      0.00
   13    3   31     -3.46      0.00
   15    3   31     37.55      0.00
   17    3   31     43.06      0.00
   19    3   31      8.48      0.00
   21    3   31     42.55      0.00
    0    4   31    -12.25      0.00
    2    4   31     11.49      0.00
    4    4   31     -4.51      0.00
    6    4   31    -13.28      0.00
    8    4   31      4.12      0.00
   10    4   31      0.75      0.00
   12    4   31     -0.14      0.00
   14    4   31     36.15      0.00
   16    4   31    -10.63      0.00
   18    4   31     30.74      0.00
   20    4   31    -22.40      0.00
    1    5   31     -6.43      0.00
    3    5   31    -17.73      0.00
    5    5   31    -16.49      0.00
    7    5   31    -18.59      0.00
    9    5   31    -24.32      0.00
   11    5   31    -15.07      0.00
   13    5   31     14.03      0.00
   15    5   31    -25.51      0.00
   17    5   31     40.30      0.00
    0    6   31     -4.64      0.00
    2    6   31     -5.69      0.00
    4    6   31    -25.28      0.00
    6    6   31    -23.31      0.00
    8    6   31    -39.27      0.00
   10    6   31    -10.93      0.00
   12    6   31    -60.85      0.00
   14    6   31    -36.00      0.00
   16    6   31    -66.25      0.00
    1    7   31    -37.84      0.00
    3    7   31    -31.80      0.00
    5    7   31    -17.82      0.00
    7    7   31    -19.13      0.00
    9    7   31    -13.33      0.00
   11    7   31    -28.49      0.00
   13    7   31    -19.16      0.00
    0    8   31     -0.35      0.00
    2    8   31      4.72      0.00
    4    8   31     13.33      0.00
    6    8   31     41.37      0.00
    8    8   31     35.13      0.00
   10    8   31     26.40      0.00
    0    0   32    -58.05      0.00
    2    0   32    -17.38      0.00
    4    0   32    -41.36      0.00
    6    0   32     -9.49      0.00
    8    0   32    -26.79      0.00
   10    0   32     -0.31      0.00
   12    0   32    -46.14      0.00
   14    0   32     -6.77      0.00
   16    0   32    -73.66      0.00
   18    0   32     -8.07      0.00
    1    1   32     49.13      0.00
    3    1   32     26.68      0.00
    5    1   32     31.44      0.00
    7    1   32     20.60      0.00
    9    1   32      7.27      0.00
   11    1   32     41.61      0.00
   13    1   32      5.11      0.00
    0    2   32    -15.50      0.00
    2    2   32    -37.65      0.00
    6    2   32     30.84      0.00
    8    2   32     -6.74      0.00
   10    2   32     82.16      0.00
   12    2   32     42.99      0.00
   14    2   32     61.72      0.00
   16    2   32     53.29      0.00
    1    3   32      7.15      0.00
    3    3   32     15.67      0.00
    5    3   32      5.49      0.00
    7    3   32     29.71      0.00
    9    3   32     20.22      0.00
   11    3   32     24.16      0.00
   13    3   32      4.39      0.00
   15    3   32    -16.63      0.00
    0    4   32    -28.77      0.00
    2    4   32     -8.10      0.00
    4    4   32    -32.09      0.00
    6    4   32     39.39      0.00
    8    4   32    -38.60      0.00
   10    4   32     16.45      0.00
   12    4   32    -29.41      0.00
   14    4   32    -39.51      0.00
    1    5   32     11.94      0.00
    3    5   32     32.16      0.00
    5    5   32     51.48      0.00
    7    5   32     35.62      0.00
    9    5   32     79.03      0.00
   11    5   32     14.03      0.00
    0    6   32     55.60      0.00
    2    6   32     30.92      0.00
    4    6   32     31.59      0.00
    6    6   32     10.37      0.00
    8    6   32     -1.28      0.00
    1    7   32      3.77      0.00
    3    7   32    -12.23      0.00
    1    1   33     87.13      0.00
    3    1   33     70.12      0.00
    5    1   33     76.39      0.00
    7    1   33     30.42      0.00
    0    2   33    -70.51      0.00
    2    2   33    -56.27      0.00
    4    2   33    -65.89      0.00
    8    2   33    -63.68      0.00
   10    2   33    -52.75      0.00
    1    3   33     19.95      0.00
    3    3   33    -23.87      0.00
    5    3   33     11.81      0.00
    7    3   33    -25.59      0.00
    0    4   33    -44.24      0.00
    2    4   33      0.85      0.00
    4    4   33    -33.12      0.00
    4    0    0   1326.38      0.00
    6    0    0     26.01      0.00
   12    0    0    400.78      0.00
   18    0    0    -14.41      0.00
   20    0    0    115.75      0.00
   26    0    0    130.21      0.00
    0    2    0    278.13      0.00
    8    2    0     43.59      0.00
    0    4    0    -93.83      0.00
   58    4    0    -22.73      0.00
   50   12    0     -5.15      0.00
   42   16    0     -6.37      0.00
   16   22    0     15.28      0.00
   59    1    1      4.68      0.00
    4    2    1     96.68      0.00
    6    2    1    -16.37      0.00
   10    2    1     46.23      0.00
   16    2    1     31.26      0.00
   10    4    1     22.22      0.00
   58    4    1      2.31      0.00
   57    5    1    -15.05      0.00
   50   12    1      3.18      0.00
   42   16    1     -0.29      0.00
   33   19    1      2.06      0.00
   16   22    1     11.66      0.00
    1   23    1     -3.24      0.00
    0    0    2   1389.55      0.00
    6    0    2   -247.11      0.00
    3    1    2    218.73      0.00
    0    2    2    109.85      0.00
    8    2    2    -37.40      0.00
   14    2    2     43.44      0.00
    7    3    2    134.16      0.00
    0    4    2    -69.20      0.00
   58    4    2     -3.34      0.00
   55    7    2      1.67      0.00
   52    8    2     23.87      0.00
   50   12    2     -5.79      0.00
   42   16    2     -2.40      0.00
   36   18    2     -9.95      0.00
   33   19    2      5.48      0.00
   23   21    2     -1.03      0.00
   16   22    2     19.17      0.00
    8    2    3   -108.18      0.00
   10    2    3     -4.36      0.00
   57    5    3    -10.37      0.00
   54    8    3    -26.56      0.00
   50   12    3     -0.37      0.00
   42   16    3     -0.02      0.00
   39   17    3     -5.13      0.00
   36   18    3     -0.01      0.00
   33   19    3      7.69      0.00
   28   20    3      1.41      0.00
   23   21    3     -4.08      0.00
   16   22    3      5.35      0.00
    0    0    4    178.22      0.00
    3    1    4    -46.51      0.00
    9    1    4     41.17      0.00
   58    2    4      1.55      0.00
   57    5    4    -14.34      0.00
   55    7    4    -10.74      0.00
   54    8    4     27.95      0.00
   53    9    4     13.67      0.00
   51   11    4     -6.01      0.00
   46   14    4     -2.56      0.00
   39   17    4     -5.46      0.00
   36   18    4     -4.96      0.00
   28   20    4      7.69      0.00
   23   21    4     -3.82      0.00
   16   22    4     -1.55      0.00
   58    2    5     16.06      0.00
    3    3    5     86.29      0.00
   57    5    5      9.39      0.00
   56    6    5    -12.91      0.00
   52    8    5    -47.60      0.00
   52   10    5     -3.95      0.00
   51   11    5      2.52      0.00
   46   14    5     -8.08      0.00
   28   20    5      1.23      0.00
   14   22    5     -5.01      0.00
    2    0    6    -79.23      0.00
    4    0    6     47.09      0.00
   58    0    6     -0.42      0.00
    0    2    6   -107.69      0.00
   56    6    6     -0.97      0.00
   55    7    6      3.19      0.00
   54    8    6     -8.17      0.00
   53    9    6     23.55      0.00
   52   10    6     -8.43      0.00
   43   15    6      0.94      0.00
   31   19    6     -0.47      0.00
   21   21    6      4.25      0.00
   12   22    6      4.31      0.00
   14   22    6    -21.52      0.00
   57    3    7     -2.93      0.00
   54    8    7    -26.75      0.00
   53    9    7     -7.86      0.00
   47   13    7     -4.19      0.00
   43   15    7      1.40      0.00
   31   19    7     -0.37      0.00
   26   20    7      5.49      0.00
   21   21    7      3.71      0.00
   12   22    7     10.78      0.00
    0    0    8     13.65      0.00
   57    1    8      7.60      0.00
   48   12    8      7.90      0.00
   40   16    8     -0.92      0.00
   37   17    8     -8.32      0.00
   34   18    8      9.09      0.00
   19   21    8     -9.17      0.00
    8   22    8     27.73      0.00
   10   22    8    -12.95      0.00
   56    4    9      6.66      0.00
   49   11    9      0.17      0.00
   44   14    9      0.96      0.00
   29   19    9     -0.68      0.00
   24   20    9    -18.08      0.00
    4   22    9      9.63      0.00
    6   22    9    -22.50      0.00
    0    0   10     17.67      0.00
    6    0   10    -20.57      0.00
   56    0   10     -1.23      0.00
   56    2   10      8.78      0.00
   55    5   10     34.22      0.00
   54    6   10      1.65      0.00
   51    9   10     -1.93      0.00
   50   10   10     20.44      0.00
   45   13   10     -4.69      0.00
   41   15   10      0.75      0.00
   32   18   10      1.91      0.00
    0   22   10      2.78      0.00
    2   22   10     -5.36      0.00
   55    3   11      5.46      0.00
   23    7   11     -8.10      0.00
   52    8   11      9.14      0.00
   27   19   11     10.34      0.00
   22   20   11     14.08      0.00
   13   21   11     11.91      0.00
   55    1   12      6.80      0.00
   54    4   12    -10.30      0.00
   47   11   12     10.25      0.00
   42   14   12     -1.17      0.00
   39   15   12     -1.22      0.00
   30   18   12     -0.45      0.00
   25   19   12     -5.57      0.00
   20   20   12      5.17      0.00
   11   21   12    -15.84      0.00
   54    2   13     -3.15      0.00
   53    5   13    -18.80      0.00
   52    6   13      1.30      0.00
   49    9   13     -1.90      0.00
   48   10   13    -11.50      0.00
   43   13   13    -11.70      0.00
   18   20   13     -5.29      0.00
    5   21   13      9.57      0.00
    7   21   13      4.25      0.00
   53    3   14     10.95      0.00
   13   11   14     17.11      0.00
   44   12   14      4.11      0.00
   40   14   14     12.04      0.00
   37   15   14      0.61      0.00
   31   17   14     -2.80      0.00
   16   20   14      0.70      0.00
   52    4   15     -2.82      0.00
   51    5   15     12.08      0.00
   46   10   15      6.74      0.00
   41   13   15      3.81      0.00
   26   18   15      4.82      0.00
   12   20   15      4.31      0.00
   34    0   16     -3.22      0.00
   40    0   16     -5.82      0.00
   52    0   16      4.41      0.00
   33    1   16    -22.99      0.00
   37    1   16    -20.05      0.00
   39    1   16      6.34      0.00
   43    1   16      8.39      0.00
   45    1   16     -8.58      0.00
   42   12   16      2.91      0.00
   35   15   16     -0.24      0.00
   32   16   16      7.54      0.00
   24   18   16      9.88      0.00
   17   19   16     -6.09      0.00
    6   20   16      1.28      0.00
    8   20   16      9.96      0.00
   35    1   17      4.85      0.00
   37    1   17     11.31      0.00
   39    1   17      1.69      0.00
   41    1   17      9.00      0.00
   43    1   17     -3.39      0.00
   45    1   17     11.10      0.00
   47    1   17     11.40      0.00
   49    1   17      9.25      0.00
   51    1   17      2.78      0.00
   36    2   17      5.91      0.00
   50    4   17     -7.44      0.00
   49    5   17     -5.24      0.00
   44   10   17      2.80      0.00
   36   14   17     12.24      0.00
   33   15   17    -13.19      0.00
   30   16   17    -13.04      0.00
   22   18   17     -2.13      0.00
   15   19   17     -7.99      0.00
   30    0   18     -4.39      0.00
   36    0   18     -8.49      0.00
   38    0   18    -11.92      0.00
   40    0   18     -1.91      0.00
   42    0   18      2.20      0.00
   44    0   18     -5.16      0.00
   46    0   18     -5.76      0.00
   48    0   18    -16.87      0.00
   50    0   18     -1.01      0.00
   33    1   18    -27.05      0.00
   35    1   18    -16.50      0.00
   37    1   18    -28.32      0.00
   39    1   18     -2.66      0.00
   41    1   18     -9.06      0.00
   43    1   18     11.54      0.00
   45    1   18    -12.41      0.00
   47    1   18     10.83      0.00
   49    1   18    -12.01      0.00
   34    2   18     -1.47      0.00
   36    2   18      1.89      0.00
   40    2   18     -2.18      0.00
   42    2   18      0.44      0.00
   46    2   18    -14.99      0.00
   35    3   18      7.63      0.00
   37    3   18      4.39      0.00
   39    3   18     14.40      0.00
   41    3   18      8.12      0.00
   43    3   18      9.05      0.00
   45    3   18     -0.25      0.00
   47    3   18      5.87      0.00
   49    3   18      1.55      0.00
   36    4   18    -10.99      0.00
   38    4   18     -9.35      0.00
   40    4   18     -9.03      0.00
   35    5   18      6.87      0.00
   37    5   18      7.93      0.00
   16   10   18     15.46      0.00
   41   11   18     -2.27      0.00
   37   13   18     -9.15      0.00
   28   16   18     14.00      0.00
   18   18   18      1.35      0.00
    9   19   18      2.25      0.00
   11   19   18     10.48      0.00
   31    1   19     -7.98      0.00
   33    1   19     -4.92      0.00
   35    1   19     -6.37      0.00
   37    1   19     10.12      0.00
   39    1   19    -10.18      0.00
   41    1   19      3.86      0.00
   43    1   19    -16.14      0.00
   45    1   19     11.95      0.00
   47    1   19      8.25      0.00
   32    2   19      0.57      0.00
   36    2   19      7.20      0.00
   38    2   19      7.66      0.00
   40    2   19    -10.47      0.00
   42    2   19     -5.43      0.00
   44    2   19    -12.91      0.00
   46    2   19     -5.55      0.00
   31    3   19      8.63      0.00
   33    3   19     -0.16      0.00
   35    3   19     -3.17      0.00
   37    3   19      2.58      0.00
   39    3   19      4.99      0.00
   41    3   19     -3.35      0.00
   43    3   19      9.35      0.00
   45    3   19      0.90      0.00
   47    3   19     16.81      0.00
   46    4   19      5.31      0.00
   33    5   19    -10.28      0.00
   39    5   19     26.27      0.00
   47    5   19     -6.95      0.00
   46    6   19    -11.77      0.00
   45    7   19     -6.68      0.00
   44    8   19     -0.93      0.00
   43    9   19      7.44      0.00
   38   12   19      2.61      0.00
   26   16   19     -0.85      0.00
   21   17   19     -4.43      0.00
   16   18   19      9.03      0.00
    1   19   19      5.31      0.00
    3   19   19      9.48      0.00
   29    1   20      1.19      0.00
   31    1   20    -19.43      0.00
   33    1   20    -14.66      0.00
   37    1   20    -14.00      0.00
   39    1   20      0.83      0.00
   43    1   20     17.62      0.00
   45    1   20     -6.05      0.00
   28    2   20      4.66      0.00
   30    2   20     -2.21      0.00
   34    2   20     -4.07      0.00
   36    2   20    -10.17      0.00
   38    2   20     -8.80      0.00
   40    2   20    -14.05      0.00
   42    2   20     -4.52      0.00
   46    2   20     -5.62      0.00
   31    3   20      8.41      0.00
   33    3   20     13.35      0.00
   35    3   20      2.66      0.00
   37    3   20      0.84      0.00
   39    3   20     -6.44      0.00
   41    3   20     -3.07      0.00
   43    3   20      6.48      0.00
   45    3   20      0.80      0.00
   47    3   20     10.63      0.00
   30    4   20      3.12      0.00
   34    4   20     23.09      0.00
   36    4   20     -6.13      0.00
   38    4   20      7.01      0.00
   40    4   20     -7.01      0.00
   46    4   20      0.39      0.00
   35    5   20     -6.38      0.00
   39    5   20    -13.19      0.00
   40   10   20    -14.76      0.00
   36   12   20      9.45      0.00
   24   16   20      7.04      0.00
   19   17   20      0.08      0.00
   10   18   20     -4.56      0.00
   12   18   20      5.90      0.00
   29    1   21     -7.44      0.00
   31    1   21    -12.35      0.00
   33    1   21    -12.45      0.00
   35    1   21    -10.19      0.00
   37    1   21      0.13      0.00
   30    2   21     -9.56      0.00
   32    2   21     -0.98      0.00
   34    2   21      3.64      0.00
   36    2   21     -2.20      0.00
   38    2   21     -0.45      0.00
   40    2   21    -18.25      0.00
   42    2   21    -15.21      0.00
   44    2   21    -18.62      0.00
   46    2   21    -14.20      0.00
   27    3   21     17.93      0.00
   29    3   21     19.91      0.00
   33    3   21     14.76      0.00
   35    3   21     10.63      0.00
   39    3   21     20.27      0.00
   41    3   21    -11.58      0.00
   43    3   21     12.93      0.00
   32    4   21      8.40      0.00
   34    4   21    -15.62      0.00
   36    4   21     17.74      0.00
   38    4   21      9.76      0.00
   40    4   21     19.12      0.00
   29    5   21     10.89      0.00
   33    5   21     -2.50      0.00
   17    7   21      3.11      0.00
   38   10   21     -5.67      0.00
   34   12   21      5.77      0.00
   25   15   21      7.46      0.00
   15   17   21      8.99      0.00
    0   18   21    -10.39      0.00
    2   18   21     -5.85      0.00
    4   18   21     -5.58      0.00
   22    2   22      0.59      0.00
   28    2   22     13.95      0.00
   32    2   22     14.21      0.00
   34    2   22     23.98      0.00
   36    2   22     -0.59      0.00
   38    2   22     15.08      0.00
   40    2   22     -3.28      0.00
   42    2   22      6.97      0.00
   44    2   22      6.58      0.00
   27    3   22      7.97      0.00
   31    3   22      9.88      0.00
   33    3   22      6.49      0.00
   35    3   22    -13.03      0.00
   37    3   22    -11.26      0.00
   39    3   22    -23.34      0.00
   41    3   22     -9.36      0.00
   26    4   22     -5.96      0.00
   30    4   22      9.72      0.00
   32    4   22    -13.40      0.00
   34    4   22     35.75      0.00
   36    4   22     -5.69      0.00
   38    4   22     24.34      0.00
   40    4   22     -5.81      0.00
   42    4   22      2.88      0.00
   27    5   22      5.90      0.00
   33    5   22    -10.87      0.00
   41    5   22     -5.79      0.00
   43    5   22      6.69      0.00
   42    6   22    -10.17      0.00
   41    7   22      3.68      0.00
   40    8   22      6.22      0.00
   35   11   22    -14.40      0.00
   32   12   22     24.07      0.00
   23   15   22      4.06      0.00
   18   16   22     13.79      0.00
    9   17   22    -15.19      0.00
   11   17   22     -9.91      0.00
   43    1   23      1.84      0.00
   22    2   23    -26.98      0.00
   30    2   23    -31.51      0.00
   32    2   23     -4.04      0.00
   36    2   23      1.11      0.00
   38    2   23    -10.66      0.00
   27    3   23     -2.03      0.00
   29    3   23      7.05      0.00
   33    3   23      0.14      0.00
   26    4   23     -5.32      0.00
   28    4   23     20.02      0.00
   30    4   23    -11.99      0.00
   32    4   23     27.06      0.00
   34    4   23      0.39      0.00
   36    4   23     36.13      0.00
   38    4   23     19.42      0.00
   42    4   23      8.93      0.00
   27    5   23     -1.39      0.00
   41    5   23     10.70      0.00
   40    6   23     20.97      0.00
   39    7   23    -19.94      0.00
   38    8   23     -0.11      0.00
   33   11   23      1.60      0.00
   30   12   23     -3.74      0.00
   27   13   23     -4.20      0.00
   24   14   23     10.42      0.00
   19   15   23     -4.64      0.00
   14   16   23      8.65      0.00
   26    2   24    -16.53      0.00
   28    2   24     -1.02      0.00
   30    2   24     16.32      0.00
   19    3   24    -13.96      0.00
   25    3   24     -2.57      0.00
   27    3   24     26.82      0.00
   29    3   24      6.05      0.00
   31    3   24     30.84      0.00
   33    3   24     11.16      0.00
   37    3   24      5.15      0.00
   39    3   24     -2.35      0.00
   41    3   24     -2.25      0.00
   24    4   24     -8.17      0.00
   28    4   24    -12.27      0.00
   30    4   24      2.32      0.00
   32    4   24    -26.66      0.00
   34    4   24     13.92      0.00
   36    4   24    -26.23      0.00
   38    4   24      9.68      0.00
   40    4   24    -14.99      0.00
   25    5   24      8.88      0.00
   29    5   24     18.87      0.00
   33    5   24     -5.34      0.00
   26    6   24     10.90      0.00
   37    7   24    -24.16      0.00
   36    8   24      5.56      0.00
   28   12   24     11.93      0.00
   25   13   24     -5.41      0.00
   15   15   24      6.08      0.00
    4   16   24     15.32      0.00
    6   16   24     15.67      0.00
   21    3   25     -0.17      0.00
   23    3   25     15.38      0.00
   27    3   25      2.73      0.00
   29    3   25     24.08      0.00
   39    3   25     12.71      0.00
   20    4   25     18.78      0.00
   24    4   25     10.61      0.00
   26    4   25    -27.38      0.00
   30    4   25    -36.58      0.00
   32    4   25     -2.59      0.00
   36    4   25      2.94      0.00
   38    4   25     -3.80      0.00
   21    5   25     10.98      0.00
   35    5   25     -6.03      0.00
   35    7   25     18.10      0.00
   34    8   25    -10.07      0.00
   30   10   25     14.38      0.00
   21   13   25     -8.78      0.00
   16   14   25     18.36      0.00
    9   15   25     -5.00      0.00
   21    3   26    -44.96      0.00
   23    3   26    -33.69      0.00
   27    3   26     16.09      0.00
   37    3   26      8.43      0.00
   20    4   26    -11.94      0.00
   24    4   26    -10.31      0.00
   30    4   26      1.79      0.00
   36    4   26    -17.97      0.00
   35    5   26    -16.31      0.00
   34    6   26    -12.96      0.00
   33    7   26      2.00      0.00
   28   10   26    -16.61      0.00
   25   11   26      3.71      0.00
   22   12   26      2.09      0.00
   17   13   26     17.02      0.00
   10   14   26     -6.66      0.00
   12   14   26      6.52      0.00
   35    1   27      4.18      0.00
   34    4   27    -16.73      0.00
   33    5   27    -14.03      0.00
   32    6   27    -16.34      0.00
   27    9   27    -13.00      0.00
   24   10   27    -15.96      0.00
   21   11   27      3.24      0.00
   18   12   27    -16.68      0.00
   11   13   27     -7.06      0.00
   13   13   27     -4.29      0.00
   33    1   28     -8.84      0.00
   26    8   28     -6.39      0.00
   23    9   28     -1.67      0.00
   17   11   28    -22.26      0.00
   12   12   28     19.13      0.00
    1   13   28      1.58      0.00
   30    2   29    -31.11      0.00
   29    3   29     12.19      0.00
   28    4   29      4.45      0.00
   27    5   29     -1.56      0.00
   26    6   29     20.23      0.00
   22    8   29      4.04      0.00
   19    9   29      5.19      0.00
   16   10   29     14.01      0.00
   11   11   29    -16.36      0.00
   27    1   30    -12.63      0.00
   22    6   30     46.72      0.00
   21    7   30      4.19      0.00
   18    8   30     31.53      0.00
   15    9   30     52.73      0.00
    8   10   30     -5.44      0.00
   10   10   30     -4.24      0.00
   19    1   31     14.53      0.00
   23    1   31    -11.14      0.00
   19    5   31    -52.45      0.00
   18    6   31    -34.68      0.00
   15    7   31    -17.07      0.00
   12    8   31     17.13      0.00
    1    9   31    -34.81      0.00
    3    9   31    -12.15      0.00
    5    9   31    -27.61      0.00
   15    1   32     26.47      0.00
   17    1   32      8.75      0.00
   19    1   32     -3.05      0.00
    4    2   32    -21.98      0.00
   18    2   32     23.87      0.00
   17    3   32    -28.48      0.00
   16    4   32    -12.30      0.00
   13    5   32     70.17      0.00
   10    6   32     -5.45      0.00
   12    6   32      3.04      0.00
    5    7   32      2.64      0.00
    7    7   32    -20.82      0.00
    9    1   33     48.64      0.00
   11    1   33     -0.48      0.00
   13    1   33     38.90      0.00
    6    2   33    -38.75      0.00
   12    2   33    -36.52      0.00
    9    3   33    -31.96      0.00
   11    3   33     12.19      0.00
    6    4   33    -19.88      0.00
    8    4   33     -8.92      0.00
    1    5   33      5.65      0.00
    3    5   33     -3.72      0.00
    5    5   33      4.94      0.00
    0    0    0      0.00      0.00
# SQUEEZE RESULTS (Version = 270519)
# Note: Data are Listed for all Voids in the P1 Unit Cell
# i.e. Centre of Gravity, Solvent Accessible Volume,
# Recovered number of Electrons in the Void and
# Details about the Squeezed Material
loop_
  _platon_squeeze_void_nr
  _platon_squeeze_void_average_x
  _platon_squeeze_void_average_y
  _platon_squeeze_void_average_z
  _platon_squeeze_void_volume
  _platon_squeeze_void_count_electrons
  _platon_squeeze_void_content
   1  0.000  0.023  0.000      1068       361 ' '
   2  0.250  0.055  0.000       573       183 ' '
   3  0.500 -0.002  0.000      1068       361 ' '
   4  0.750  0.443  0.000       573       183 ' '
   5  0.000  0.244  0.500      1068       361 ' '
   6  0.500  0.744  0.500      1068       361 ' '
   7  0.250  0.900  0.500       573       183 ' '
   8  0.750  0.400  0.500       573       183 ' '
# Missing Reflections Below sin(th)/lambda = 0.25
loop_
  _platon_missing_refln_index_h
  _platon_missing_refln_index_k
  _platon_missing_refln_index_l
  _platon_missing_refln_theta
    4    0    0     1.870
    6    0    0     2.806
   12    0    0     5.618
   18    0    0     8.444
   20    0    0     9.390
    0    2    0     2.399
    8    2    0     4.447
    0    4    0     4.802
    4    2    1     3.150
    6    2    1     3.782
   10    2    1     5.324
   16    2    1     7.921
   10    4    1     6.762
    0    0    2     1.628
    6    0    2     3.244
    3    1    2     2.461
    0    2    2     2.900
    8    2    2     4.737
   14    2    2     7.176
    7    3    2     5.135
    0    4    2     5.072
    8    2    3     5.076
   10    2    3     5.803
    0    0    4     3.257
    3    1    4     3.745
    9    1    4     5.461
    3    3    5     5.619
    2    0    6     4.978
    4    0    6     5.236
    0    2    6     5.449
    0    0    8     6.525
    0    0   10     8.167
    6    0   10     8.641
_platon_squeeze_void_probe_radius                  1.20
_platon_squeeze_details
)
TITL hq_cl3_0ma       C m c e      R = 0.12
CELL   47.4910   18.5114   27.2738     90.00     90.00     90.00
SPGR Cmca
# Solvent Accessible Volume =      6561
# Electrons Found in S.A.V. =      2177
# Note: Atoms in Void are Labelled as Cxxx and Qxxx for all Others
Q101 1.000 0.457 0.115 !       4.45 eA-3
Q102 1.000 0.455 0.143 !       3.81 eA-3
C103 0.500 0.445 0.184 !       3.72 eA-3
Q104 0.500 0.243 0.981 !       3.49 eA-3
C105 1.000 0.048 0.419 !       3.24 eA-3
Q106 1.000 0.213 0.236 !       3.06 eA-3
C107 0.292 0.340 0.024 !       3.03 eA-3
C108 1.000 0.015 0.031 !       2.93 eA-3
C109 0.089 0.500 0.000 !       2.81 eA-3
Q110 1.000 0.223 0.165 !       2.73 eA-3
C111 0.077 0.415 0.064 !       2.68 eA-3
C112 1.000 0.500 0.500 !       2.64 eA-3
C113 0.500 0.339 0.149 !       2.57 eA-3
C114 0.500 0.496 0.366 !       2.50 eA-3
Q115 0.500 0.253 0.735 !       2.46 eA-3
C116 1.000 0.500 0.100 !       2.45 eA-3
Q117 0.500 0.456 0.413 !       2.39 eA-3
C118 0.500 0.484 0.038 !       2.35 eA-3
Q119 0.656 0.305 0.165 !       2.30 eA-3
C120 0.492 0.098 0.657 !       2.29 eA-3
C121 1.000 0.102 0.974 !       2.28 eA-3
Q122 0.840 0.307 0.275 !       2.15 eA-3
C123 0.004 0.089 0.400 !       2.07 eA-3
C124 0.500 0.481 0.539 !       2.04 eA-3
C125 0.003 0.069 0.038 !       2.01 eA-3
C126 0.765 0.386 0.479 !       1.98 eA-3
C127 1.000 0.082 0.873 !       1.98 eA-3
C128 0.792 0.355 0.438 !       1.97 eA-3
Q129 0.500 0.390 0.788 !       1.97 eA-3
C130 1.000 0.123 0.415 !       1.95 eA-3
Q131 0.500 0.198 0.202 !       1.95 eA-3
C132 0.500 0.138 0.048 !       1.94 eA-3
C133 0.508 0.242 0.070 !       1.93 eA-3
C134 1.000 0.276 0.891 !       1.93 eA-3
Q135 0.500 0.272 0.673 !       1.92 eA-3
C136 0.743 0.184 0.539 !       1.90 eA-3
C137 1.000 0.170 0.880 !       1.90 eA-3
C138 0.500 0.193 0.102 !       1.89 eA-3
C139 0.500 0.288 0.014 !       1.89 eA-3
C140 0.500 0.132 0.619 !       1.88 eA-3
C141 0.691 0.128 0.508 !       1.88 eA-3
Q142 1.000 0.135 0.242 !       1.87 eA-3
C143 0.981 0.133 0.420 !       1.87 eA-3
C144 0.031 0.222 0.509 !       1.87 eA-3
C145 0.519 0.883 0.923 !       1.86 eA-3
C146 0.231 0.353 0.476 !       1.86 eA-3
C147 0.019 0.158 0.428 !       1.85 eA-3
C148 0.500 0.439 0.031 !       1.84 eA-3
Q149 1.000 0.249 0.799 !       1.82 eA-3
C150 0.422 0.505 0.421 !       1.80 eA-3
C151 1.000 0.390 0.416 !       1.78 eA-3
C152 0.304 0.314 0.044 !       1.77 eA-3
C153 1.000 0.397 0.508 !       1.76 eA-3
Q154 0.252 0.389 0.977 !       1.76 eA-3
C155 0.577 0.378 0.406 !       1.76 eA-3
C156 0.519 0.319 0.150 !       1.75 eA-3
Q157 0.500 0.207 0.369 !       1.74 eA-3
C158 0.194 0.368 0.521 !       1.73 eA-3
Q159 0.802 0.163 0.046 !       1.73 eA-3
C160 0.765 0.365 0.436 !       1.72 eA-3
C161 0.251 0.185 0.030 !       1.71 eA-3
C162 0.239 0.060 0.557 !       1.71 eA-3
C163 0.075 0.454 0.102 !       1.70 eA-3
C164 1.000 0.292 0.512 !       1.70 eA-3
C165 1.000 0.469 0.565 !       1.69 eA-3
C166 0.571 0.414 0.395 !       1.67 eA-3
C167 0.245 0.388 0.452 !       1.66 eA-3
Q168 0.500 0.411 0.453 !       1.66 eA-3
C169 0.024 0.437 0.919 !       1.65 eA-3
C170 0.511 0.211 0.039 !       1.64 eA-3
C171 0.023 0.400 0.896 !       1.63 eA-3
C172 0.778 0.123 0.008 !       1.63 eA-3
C173 0.515 0.389 0.187 !       1.63 eA-3
Q174 0.004 0.260 0.859 !       1.63 eA-3
Q175 0.500 0.373 0.422 !       1.60 eA-3
C176 0.515 0.118 0.594 !       1.60 eA-3
C177 0.016 0.289 0.385 !       1.59 eA-3
C178 0.469 0.212 0.635 !       1.59 eA-3
Q179 0.508 0.245 0.671 !       1.57 eA-3
C180 0.086 0.029 0.593 !       1.57 eA-3
C181 0.500 0.395 0.055 !       1.54 eA-3
Q182 1.000 0.355 0.812 !       1.53 eA-3
C183 0.500 0.366 0.508 !       1.52 eA-3
C184 0.782 0.332 0.541 !       1.52 eA-3
Q185 0.500 0.212 0.142 !       1.52 eA-3
C186 0.500 0.444 0.517 !       1.51 eA-3
C187 0.082 0.469 0.046 !       1.51 eA-3
C188 0.433 0.452 0.477 !       1.50 eA-3
Q189 0.778 0.256 0.478 !       1.50 eA-3
C190 0.770 0.016 0.546 !       1.48 eA-3
C191 0.580 0.370 0.512 !       1.47 eA-3
C192 0.082 0.064 0.508 !       1.46 eA-3
C193 0.750 0.091 0.992 !       1.45 eA-3
Q194 1.000 0.165 0.072 !       1.44 eA-3
C195 1.000 0.290 0.413 !       1.43 eA-3
C196 0.027 0.305 0.408 !       1.43 eA-3
C197 1.000 0.500 0.000 !       1.43 eA-3
C198 0.270 0.315 0.973 !       1.40 eA-3
Q199 0.508 0.092 0.790 !       1.40 eA-3
)
;
_shelx_fab_checksum              62464
_platon_squeeze_void_probe_radius 1.20
_olex2_submission_special_instructions 'No special instructions were received'
loop_
_space_group_symop_operation_xyz
'x, y, z'
'-x, -y+1/2, z+1/2'
'-x, y+1/2, -z+1/2'
'x, -y, -z'
'x+1/2, y+1/2, z'
'-x+1/2, -y+1, z+1/2'
'-x+1/2, y+1, -z+1/2'
'x+1/2, -y+1/2, -z'
'-x, -y, -z'
'x, y-1/2, -z-1/2'
'x, -y-1/2, z-1/2'
'-x, y, z'
'-x+1/2, -y+1/2, -z'
'x+1/2, y, -z-1/2'
'x+1/2, -y, z-1/2'
'-x+1/2, y+1/2, z'
loop_
_atom_site_label
_atom_site_type_symbol
_atom_site_fract_x
_atom_site_fract_y
_atom_site_fract_z
_atom_site_U_iso_or_equiv
_atom_site_adp_type
_atom_site_occupancy
_atom_site_site_symmetry_order
_atom_site_calc_flag
_atom_site_refinement_flags_posn
_atom_site_refinement_flags_adp
_atom_site_refinement_flags_occupancy
_atom_site_disorder_assembly
_atom_site_disorder_group
Cd1 Cd 0.65784(2) 0.17856(2) 0.69524(2) 0.02593(15) Uani 1 1 d . . . . .
Cd2 Cd 0.500000 0.77777(4) 0.69683(3) 0.03071(19) Uani 1 2 d S T P . .
Cl1 Cl 0.500000 0.85604(15) 0.77382(10) 0.0376(6) Uani 1 2 d S T P A .
N1 N 0.53469(12) 0.7004(3) 0.7244(3) 0.0393(15) Uani 1 1 d . U . . .
N2 N 0.56292(12) 0.6071(3) 0.7356(3) 0.0367(14) Uani 1 1 d . U . . .
N3 N 0.62174(12) 0.2277(3) 0.6559(2) 0.0291(13) Uani 1 1 d . U . . .
N4 N 0.53390(15) 0.1531(3) 0.3433(2) 0.0420(15) Uani 1 1 d . U . . .
N5 N 0.56337(14) 0.1191(3) 0.4018(2) 0.0392(14) Uani 1 1 d . U . . .
N6 N 0.64983(11) 0.0845(3) 0.6470(2) 0.0252(12) Uani 1 1 d . U . . .
N7 N 0.79595(13) -0.2965(3) 0.6797(2) 0.0374(15) Uani 1 1 d . U . . .
N8 N 0.75512(11) -0.2409(3) 0.6766(2) 0.0327(13) Uani 1 1 d . U . . .
N9 N 0.66790(10) 0.0929(3) 0.7507(2) 0.0227(11) Uani 1 1 d . U . . .
N12 N 0.64087(11) 0.2377(3) 0.7593(2) 0.0300(13) Uani 1 1 d . U . . .
C1 C 0.54086(16) 0.6341(4) 0.7105(3) 0.0408(18) Uani 1 1 d . U . . .
H1 H 0.530943 0.608433 0.685794 0.049 Uiso 1 1 calc R U . . .
C2 C 0.55375(19) 0.7142(5) 0.7602(4) 0.067(2) Uani 1 1 d . U . . .
H2 H 0.554574 0.758206 0.778060 0.080 Uiso 1 1 calc R U . . .
C3 C 0.57106(18) 0.6593(5) 0.7672(4) 0.065(2) Uani 1 1 d . U . . .
H3 H 0.586198 0.656960 0.789905 0.078 Uiso 1 1 calc R U . . .
C4 C 0.57519(14) 0.5368(4) 0.7298(3) 0.0359(16) Uani 1 1 d . U . . .
C5 C 0.55843(16) 0.4797(4) 0.7155(4) 0.055(2) Uani 1 1 d . U . . .
H5 H 0.538879 0.486583 0.709779 0.066 Uiso 1 1 calc R U . . .
C6 C 0.57058(17) 0.4121(4) 0.7096(4) 0.058(2) Uani 1 1 d . U . . .
H6 H 0.559152 0.372723 0.699483 0.070 Uiso 1 1 calc R U . . .
C7 C 0.59914(15) 0.4006(4) 0.7182(3) 0.0378(16) Uani 1 1 d . U . . .
C8 C 0.61530(15) 0.4591(4) 0.7321(3) 0.0370(17) Uani 1 1 d . U . . .
H8 H 0.634841 0.452616 0.738090 0.044 Uiso 1 1 calc R U . . .
C9 C 0.60347(15) 0.5275(4) 0.7376(3) 0.0369(17) Uani 1 1 d . U . . .
H9 H 0.614922 0.567435 0.746753 0.044 Uiso 1 1 calc R U . . .
C10 C 0.61226(15) 0.3279(4) 0.7135(3) 0.0351(16) Uani 1 1 d . U . . .
C11 C 0.61025(16) 0.2932(4) 0.6675(3) 0.0381(16) Uani 1 1 d . U . . .
C12 C 0.5944(2) 0.3175(4) 0.6257(4) 0.060(2) Uani 1 1 d . U . . .
H12 H 0.585028 0.362504 0.622696 0.072 Uiso 1 1 calc R U . . .
C13 C 0.5954(2) 0.2645(4) 0.5914(3) 0.057(2) Uani 1 1 d . U . . .
H13 H 0.586106 0.264773 0.560495 0.068 Uiso 1 1 calc R U . . .
C14 C 0.61299(16) 0.2079(4) 0.6104(3) 0.0341(16) Uani 1 1 d . U . . .
C15 C 0.61948(14) 0.1431(4) 0.5859(3) 0.0275(14) Uani 1 1 d . U . . .
C16 C 0.60604(15) 0.1331(4) 0.5365(3) 0.0316(14) Uani 1 1 d . U . . .
C19 C 0.57858(16) 0.1222(4) 0.4470(3) 0.0350(15) Uani 1 1 d . U . . .
C22 C 0.5464(2) 0.1699(5) 0.3844(3) 0.057(2) Uani 1 1 d . U . . .
H22 H 0.543646 0.214866 0.400556 0.068 Uiso 1 1 calc R U . . .
C23 C 0.5444(2) 0.0869(5) 0.3332(4) 0.069(2) Uani 1 1 d . U . . .
H23 H 0.539668 0.058875 0.305154 0.082 Uiso 1 1 calc R U . . .
C24 C 0.5624(2) 0.0664(5) 0.3685(4) 0.068(2) Uani 1 1 d . U . . .
H24 H 0.572691 0.022357 0.369578 0.081 Uiso 1 1 calc R U . . .
C25 C 0.63654(14) 0.0858(4) 0.6028(3) 0.0278(14) Uani 1 1 d . U . . .
C26 C 0.64284(19) 0.0202(5) 0.5775(3) 0.051(2) Uani 1 1 d . U . . .
H26 H 0.635873 0.006673 0.546139 0.061 Uiso 1 1 calc R U . . .
C27 C 0.66054(18) -0.0195(5) 0.6060(3) 0.0464(19) Uani 1 1 d . U . . .
H27 H 0.668515 -0.065079 0.597943 0.056 Uiso 1 1 calc R U . . .
C28 C 0.66491(14) 0.0207(4) 0.6507(3) 0.0274(14) Uani 1 1 d . U . . .
C29 C 0.68069(12) -0.0026(3) 0.6916(2) 0.0212(12) Uani 1 1 d . U . . .
C30 C 0.69862(13) -0.0679(3) 0.6847(2) 0.0247(14) Uani 1 1 d . U . . .
C31 C 0.72272(16) -0.0634(4) 0.6551(3) 0.0406(18) Uani 1 1 d . U . . .
H31 H 0.726486 -0.020033 0.637724 0.049 Uiso 1 1 calc R U . . .
C32 C 0.74119(16) -0.1213(4) 0.6508(3) 0.0394(17) Uani 1 1 d . U . . .
H32 H 0.757345 -0.118105 0.630366 0.047 Uiso 1 1 calc R U . . .
C33 C 0.73545(14) -0.1835(4) 0.6769(3) 0.0287(14) Uani 1 1 d . U . . .
C34 C 0.71141(14) -0.1902(4) 0.7044(3) 0.0338(16) Uani 1 1 d . U . . .
H34 H 0.707299 -0.234443 0.720555 0.041 Uiso 1 1 calc R U . . .
C35 C 0.69324(14) -0.1324(4) 0.7084(3) 0.0309(15) Uani 1 1 d . U . . .
H35 H 0.676723 -0.137071 0.727780 0.037 Uiso 1 1 calc R U . . .
C36 C 0.78368(15) -0.2344(4) 0.6743(3) 0.0317(15) Uani 1 1 d . U . . .
H36 H 0.793348 -0.190049 0.669381 0.038 Uiso 1 1 calc R U . . .
C37 C 0.77506(17) -0.3464(4) 0.6858(4) 0.055(2) Uani 1 1 d . U . . .
H37 H 0.778016 -0.396789 0.690211 0.066 Uiso 1 1 calc R U . . .
C38 C 0.74970(17) -0.3141(4) 0.6847(4) 0.054(2) Uani 1 1 d . U . . .
H38 H 0.731829 -0.336382 0.688706 0.065 Uiso 1 1 calc R U . . .
C39 C 0.68157(13) 0.0305(3) 0.7378(2) 0.0247(14) Uani 1 1 d . U . . .
C40 C 0.69620(14) 0.0034(4) 0.7805(3) 0.0315(15) Uani 1 1 d . U . . .
H40 H 0.707898 -0.038200 0.781900 0.038 Uiso 1 1 calc R U . . .
C41 C 0.69012(15) 0.0483(4) 0.8182(3) 0.0346(16) Uani 1 1 d . U . . .
H41 H 0.696374 0.043365 0.851079 0.041 Uiso 1 1 calc R U . . .
C42 C 0.67230(14) 0.1052(4) 0.7990(3) 0.0309(15) Uani 1 1 d . U . . .
C43 C 0.66064(15) 0.1632(4) 0.8272(3) 0.0331(15) Uani 1 1 d . U . . .
C44 C 0.66303(16) 0.1566(4) 0.8811(3) 0.0392(16) Uani 1 1 d . U . . .
C47 C 0.66568(18) 0.1355(5) 0.9817(3) 0.0468(17) Uani 1 1 d . U . . .
C53 C 0.64556(15) 0.2235(4) 0.8080(3) 0.0344(15) Uani 1 1 d . U . . .
C54 C 0.63218(17) 0.2782(5) 0.8360(3) 0.0460(19) Uani 1 1 d . U . . .
H54 H 0.632304 0.281612 0.870724 0.055 Uiso 1 1 calc R U . . .
C55 C 0.61924(17) 0.3248(5) 0.8052(3) 0.0445(18) Uani 1 1 d . U . . .
H55 H 0.608718 0.366452 0.814095 0.053 Uiso 1 1 calc R U . . .
C56 C 0.62451(15) 0.2990(4) 0.7564(3) 0.0331(15) Uani 1 1 d . U . . .
Cl2 Cl 0.500000 0.6895(11) 0.6166(5) 0.050(4) Uani 0.47(4) 2 d S T P A 1
N10 N 0.6810(5) 0.1258(15) 1.1083(8) 0.071(3) Uani 0.429(12) 1 d . U P B 1
C17A C 0.5891(3) 0.0786(8) 0.5282(5) 0.031(2) Uani 0.486(6) 1 d . U P C 1
H17A H 0.586012 0.043106 0.552836 0.037 Uiso 0.486(6) 1 calc R U P C 1
C18A C 0.5757(3) 0.0732(8) 0.4828(6) 0.035(2) Uani 0.486(6) 1 d . U P C 1
H18A H 0.563974 0.032600 0.476907 0.042 Uiso 0.486(6) 1 calc R U P C 1
C19A C 0.6100(3) 0.1903(8) 0.5018(6) 0.034(3) Uani 0.486(6) 1 d . U P C 1
H19A H 0.621596 0.230553 0.509295 0.041 Uiso 0.486(6) 1 calc R U P C 1
C20A C 0.5964(3) 0.1852(8) 0.4570(6) 0.036(2) Uani 0.486(6) 1 d . U P C 1
H20A H 0.598681 0.222035 0.433052 0.043 Uiso 0.486(6) 1 calc R U P C 1
C45A C 0.6881(5) 0.1713(13) 0.9092(7) 0.051(3) Uani 0.423(8) 1 d . U P D 1
H45A H 0.703883 0.190561 0.892184 0.061 Uiso 0.423(8) 1 calc R U P D 1
C46A C 0.6910(5) 0.1596(13) 0.9588(8) 0.052(3) Uani 0.423(8) 1 d . U P D 1
H46A H 0.708102 0.166884 0.976014 0.063 Uiso 0.423(8) 1 calc R U P D 1
C48A C 0.6416(4) 0.1226(12) 0.9613(7) 0.043(3) Uani 0.423(8) 1 d . U P D 1
H48A H 0.625866 0.105674 0.979340 0.051 Uiso 0.423(8) 1 calc R U P D 1
C49A C 0.6404(4) 0.1352(11) 0.9110(7) 0.042(3) Uani 0.423(8) 1 d . U P D 1
H49A H 0.622723 0.128649 0.895414 0.050 Uiso 0.423(8) 1 calc R U P D 1
C50 C 0.6826(6) 0.1593(16) 1.0641(9) 0.073(3) Uani 0.429(12) 1 d . U P B 1
H50 H 0.692708 0.202380 1.056957 0.087 Uiso 0.429(12) 1 calc R U P B 1
C51 C 0.6592(6) 0.0829(16) 1.1046(9) 0.068(3) Uani 0.429(12) 1 d . U P B 1
H51 H 0.650932 0.059210 1.131934 0.081 Uiso 0.429(12) 1 calc R U P B 1
C52 C 0.6497(5) 0.0758(15) 1.0592(8) 0.066(3) Uani 0.429(12) 1 d . U P B 1
H52 H 0.634682 0.047138 1.046904 0.079 Uiso 0.429(12) 1 calc R U P B 1
O1 O 0.500000 0.704(3) 0.6205(19) 0.13(4) Uani 0.53(4) 2 d S T P A 2
H1A H 0.500000 0.660260 0.627833 0.197 Uiso 0.53(4) 2 calc R U P A 2
C17 C 0.5756(3) 0.1290(7) 0.5329(6) 0.036(2) Uani 0.514(6) 1 d . U P C 2
H17 H 0.564881 0.130268 0.562329 0.043 Uiso 0.514(6) 1 calc R U P C 2
C18 C 0.5615(3) 0.1235(8) 0.4890(5) 0.037(2) Uani 0.514(6) 1 d . U P C 2
H18 H 0.541577 0.120626 0.487169 0.044 Uiso 0.514(6) 1 calc R U P C 2
C20 C 0.6069(3) 0.1178(7) 0.4467(6) 0.037(2) Uani 0.514(6) 1 d . U P C 2
H20 H 0.617362 0.111614 0.417248 0.045 Uiso 0.514(6) 1 calc R U P C 2
C21 C 0.6197(3) 0.1228(7) 0.4918(5) 0.033(2) Uani 0.514(6) 1 d . U P C 2
H21 H 0.639677 0.118833 0.492601 0.039 Uiso 0.514(6) 1 calc R U P C 2
C45 C 0.6749(3) 0.2085(10) 0.9078(5) 0.051(3) Uani 0.577(8) 1 d . U P D 2
H45 H 0.682645 0.250274 0.892737 0.061 Uiso 0.577(8) 1 calc R U P D 2
C46 C 0.6755(4) 0.1992(9) 0.9598(6) 0.053(3) Uani 0.577(8) 1 d . U P D 2
H46 H 0.682686 0.236825 0.979861 0.064 Uiso 0.577(8) 1 calc R U P D 2
C48 C 0.6535(3) 0.0831(9) 0.9517(5) 0.048(3) Uani 0.577(8) 1 d . U P D 2
H48 H 0.646083 0.039992 0.965439 0.058 Uiso 0.577(8) 1 calc R U P D 2
C49 C 0.6524(3) 0.0943(9) 0.9026(5) 0.044(3) Uani 0.577(8) 1 d . U P D 2
H49 H 0.644113 0.058437 0.882290 0.053 Uiso 0.577(8) 1 calc R U P D 2
C51A C 0.6604(3) 0.1047(8) 1.1165(3) 0.069(3) Uani 0.571(12) 1 d G U P B 2
H51A H 0.651289 0.099265 1.147228 0.082 Uiso 0.571(12) 1 calc R U P B 2
N10A N 0.6899(2) 0.1002(8) 1.1080(3) 0.070(3) Uani 0.571(12) 1 d G U P B 2
C50A C 0.69470(14) 0.1114(8) 1.0572(4) 0.071(3) Uani 0.571(12) 1 d G U P B 2
H50A H 0.712508 0.111346 1.041310 0.085 Uiso 0.571(12) 1 calc R U P B 2
N11 N 0.66823(16) 0.1228(4) 1.0342(2) 0.0603(18) Uani 1 1 d G U . . .
C52A C 0.64705(16) 0.1187(8) 1.0709(4) 0.069(3) Uani 0.571(12) 1 d G U P B 2
H52A H 0.627379 0.124235 1.065799 0.082 Uiso 0.571(12) 1 calc R U P B 2
loop_
_atom_site_aniso_label
_atom_site_aniso_U_11
_atom_site_aniso_U_22
_atom_site_aniso_U_33
_atom_site_aniso_U_23
_atom_site_aniso_U_13
_atom_site_aniso_U_12
Cd1 0.0190(2) 0.0225(2) 0.0362(3) 0.0055(2) -0.0091(2) -0.00201(18)
Cd2 0.0334(4) 0.0279(4) 0.0308(4) 0.0074(3) 0.000 0.000
Cl1 0.0226(12) 0.0498(16) 0.0404(16) -0.0061(13) 0.000 0.000
N1 0.026(3) 0.026(3) 0.066(4) -0.002(3) -0.010(3) 0.001(2)
N2 0.022(3) 0.021(3) 0.068(4) -0.004(3) -0.013(3) 0.005(2)
N3 0.028(3) 0.020(3) 0.039(3) 0.007(2) -0.011(3) 0.004(2)
N4 0.060(4) 0.031(3) 0.035(3) -0.001(3) -0.016(3) 0.003(3)
N5 0.055(3) 0.028(3) 0.035(3) 0.000(3) -0.014(3) 0.008(3)
N6 0.024(3) 0.021(3) 0.030(3) 0.004(2) -0.009(2) 0.003(2)
N7 0.028(3) 0.029(3) 0.055(4) 0.007(3) -0.002(3) 0.015(2)
N8 0.020(3) 0.025(3) 0.054(3) 0.003(3) -0.002(3) 0.005(2)
N9 0.018(2) 0.023(3) 0.027(3) 0.002(2) -0.003(2) 0.002(2)
N12 0.023(3) 0.028(3) 0.039(3) 0.000(3) -0.013(3) 0.001(2)
C1 0.036(4) 0.023(3) 0.064(5) -0.003(3) -0.015(3) 0.003(3)
C2 0.047(4) 0.051(4) 0.102(6) -0.038(4) -0.034(4) 0.019(4)
C3 0.042(4) 0.053(4) 0.100(6) -0.037(4) -0.037(4) 0.025(4)
C4 0.020(3) 0.016(3) 0.072(4) -0.001(3) -0.010(3) 0.004(2)
C5 0.026(3) 0.023(3) 0.118(6) 0.003(4) -0.026(4) -0.002(3)
C6 0.034(4) 0.022(3) 0.119(6) 0.001(4) -0.032(4) -0.001(3)
C7 0.027(3) 0.017(3) 0.069(4) -0.002(3) -0.018(3) 0.001(3)
C8 0.022(3) 0.028(3) 0.061(5) -0.009(3) -0.013(3) 0.002(3)
C9 0.025(3) 0.022(3) 0.064(5) -0.006(3) -0.007(3) -0.001(3)
C10 0.028(3) 0.019(3) 0.058(4) 0.000(3) -0.013(3) 0.001(3)
C11 0.039(3) 0.018(3) 0.057(4) 0.003(3) -0.021(3) 0.002(3)
C12 0.081(5) 0.026(4) 0.073(5) -0.004(4) -0.046(4) 0.014(4)
C13 0.079(5) 0.033(4) 0.059(5) 0.002(4) -0.052(4) 0.011(4)
C14 0.040(3) 0.024(3) 0.039(4) 0.012(3) -0.019(3) -0.001(3)
C15 0.027(3) 0.027(3) 0.028(3) 0.010(3) -0.011(3) 0.002(3)
C16 0.040(3) 0.024(3) 0.031(3) 0.006(3) -0.012(3) 0.010(3)
C19 0.047(3) 0.026(3) 0.032(3) 0.004(3) -0.008(3) 0.003(3)
C22 0.079(5) 0.042(4) 0.049(4) -0.008(4) -0.019(4) 0.019(4)
C23 0.094(6) 0.048(5) 0.063(5) -0.015(4) -0.037(5) 0.016(4)
C24 0.092(5) 0.044(4) 0.068(5) -0.009(4) -0.042(5) 0.021(4)
C25 0.029(3) 0.030(3) 0.025(3) 0.006(3) -0.002(3) 0.001(3)
C26 0.065(5) 0.056(4) 0.031(4) -0.004(4) -0.010(4) 0.028(4)
C27 0.059(4) 0.053(4) 0.028(4) -0.004(3) -0.005(4) 0.033(4)
C28 0.026(3) 0.026(3) 0.030(3) 0.006(3) -0.002(3) 0.009(2)
C29 0.017(3) 0.019(3) 0.027(3) 0.008(3) 0.002(3) 0.000(2)
C30 0.017(3) 0.024(3) 0.032(3) 0.007(3) 0.000(3) 0.004(2)
C31 0.039(4) 0.029(4) 0.054(4) 0.015(3) 0.014(3) 0.015(3)
C32 0.035(4) 0.035(4) 0.049(4) 0.014(3) 0.018(3) 0.012(3)
C33 0.022(3) 0.024(3) 0.040(4) 0.006(3) -0.001(3) 0.007(3)
C34 0.029(3) 0.023(3) 0.049(4) 0.011(3) 0.010(3) 0.003(3)
C35 0.023(3) 0.029(3) 0.041(4) 0.002(3) 0.011(3) 0.001(3)
C36 0.032(3) 0.025(3) 0.038(4) 0.007(3) 0.000(3) 0.008(3)
C37 0.037(4) 0.027(4) 0.101(6) 0.004(4) -0.009(4) 0.009(3)
C38 0.031(3) 0.029(4) 0.104(6) 0.003(4) -0.006(4) -0.002(3)
C39 0.020(3) 0.024(3) 0.030(3) 0.010(3) -0.001(3) 0.002(2)
C40 0.028(3) 0.032(3) 0.035(4) 0.006(3) -0.008(3) 0.003(3)
C41 0.034(3) 0.035(4) 0.035(4) 0.006(3) -0.013(3) 0.003(3)
C42 0.027(3) 0.030(3) 0.035(4) 0.005(3) -0.005(3) 0.000(3)
C43 0.030(3) 0.039(4) 0.030(3) 0.003(3) -0.008(3) 0.004(3)
C44 0.039(3) 0.049(4) 0.030(3) -0.009(3) -0.005(3) 0.008(3)
C47 0.052(4) 0.058(4) 0.031(3) -0.004(3) 0.000(3) 0.002(3)
C53 0.027(3) 0.035(3) 0.041(4) -0.002(3) -0.005(3) 0.004(3)
C54 0.046(4) 0.052(4) 0.040(4) -0.005(4) 0.000(4) 0.016(4)
C55 0.043(4) 0.044(4) 0.046(4) -0.001(4) -0.001(4) 0.013(3)
C56 0.028(3) 0.026(3) 0.046(4) -0.001(3) -0.012(3) 0.001(3)
Cl2 0.052(5) 0.059(7) 0.038(5) -0.006(4) 0.000 0.000
N10 0.077(6) 0.092(7) 0.046(5) -0.006(5) -0.012(5) -0.007(5)
C17A 0.042(5) 0.023(4) 0.028(4) 0.005(4) -0.011(4) 0.002(4)
C18A 0.044(5) 0.024(4) 0.035(5) 0.002(4) -0.006(4) -0.001(4)
C19A 0.044(5) 0.025(5) 0.032(5) 0.000(5) -0.010(5) 0.002(5)
C20A 0.047(5) 0.030(5) 0.030(5) 0.003(4) -0.007(4) -0.001(4)
C45A 0.055(6) 0.066(6) 0.031(5) -0.007(5) -0.008(5) -0.001(5)
C46A 0.055(6) 0.068(6) 0.035(5) -0.004(5) -0.006(5) -0.001(5)
C48A 0.048(6) 0.052(6) 0.028(5) -0.003(5) 0.001(5) 0.003(5)
C49A 0.046(6) 0.055(6) 0.026(5) -0.004(5) -0.004(5) 0.003(5)
C50 0.078(6) 0.093(6) 0.048(5) -0.010(5) -0.009(5) -0.010(5)
C51 0.075(6) 0.091(7) 0.038(5) -0.007(5) -0.010(5) 0.000(6)
C52 0.073(6) 0.085(7) 0.040(6) -0.012(6) -0.009(5) 0.001(6)
O1 0.18(6) 0.09(4) 0.12(5) 0.01(2) 0.000 0.000
C17 0.047(5) 0.027(5) 0.033(5) 0.002(4) -0.011(4) 0.001(4)
C18 0.046(5) 0.028(5) 0.037(5) 0.006(4) -0.011(4) 0.003(4)
C20 0.048(5) 0.027(4) 0.036(5) 0.006(4) -0.004(4) 0.003(4)
C21 0.046(4) 0.025(4) 0.027(4) 0.006(4) -0.009(4) 0.006(4)
C45 0.054(5) 0.064(6) 0.033(5) -0.006(5) -0.009(5) 0.006(5)
C46 0.060(6) 0.065(6) 0.035(5) -0.009(5) -0.008(5) 0.004(5)
C48 0.054(5) 0.057(6) 0.033(5) -0.002(5) -0.001(5) 0.001(5)
C49 0.047(5) 0.054(5) 0.031(5) 0.000(5) -0.003(5) 0.003(5)
C51A 0.074(6) 0.088(7) 0.043(5) -0.008(5) -0.009(5) -0.001(6)
N10A 0.075(6) 0.089(7) 0.047(5) -0.005(5) -0.012(5) -0.006(5)
C50A 0.073(6) 0.092(7) 0.048(5) -0.006(5) -0.013(5) -0.006(6)
N11 0.067(4) 0.075(4) 0.039(3) -0.011(3) -0.008(3) -0.005(4)
C52A 0.075(5) 0.087(6) 0.044(5) -0.008(5) -0.009(5) -0.002(5)
loop_
_atom_type_symbol
_atom_type_description
_atom_type_scat_dispersion_real
_atom_type_scat_dispersion_imag
_atom_type_scat_source
C C 0.0044 0.0020 'International Tables Vol C Tables 4.2.6.8 and 6.1.1.4'
H H 0.0000 0.0000 'International Tables Vol C Tables 4.2.6.8 and 6.1.1.4'
Cd Cd -0.6417 1.4308 'International Tables Vol C Tables 4.2.6.8 and 6.1.1.4'
Cl Cl 0.1692 0.1898 'International Tables Vol C Tables 4.2.6.8 and 6.1.1.4'
N N 0.0081 0.0039 'International Tables Vol C Tables 4.2.6.8 and 6.1.1.4'
O O 0.0141 0.0074 'International Tables Vol C Tables 4.2.6.8 and 6.1.1.4'
loop_
_geom_angle_atom_site_label_1
_geom_angle_atom_site_label_2
_geom_angle_atom_site_label_3
_geom_angle
_geom_angle_site_symmetry_1
_geom_angle_site_symmetry_3
_geom_angle_publ_flag
N3 Cd1 N7 124.8(2) . 16_655 ?
N3 Cd1 N9 141.3(2) . . ?
N6 Cd1 N3 84.4(2) . . ?
N6 Cd1 N7 102.3(2) . 16_655 ?
N6 Cd1 N9 83.2(2) . . ?
N9 Cd1 N7 93.6(2) . 16_655 ?
N12 Cd1 N3 84.1(2) . . ?
N12 Cd1 N6 142.6(2) . . ?
N12 Cd1 N7 113.4(2) . 16_655 ?
N12 Cd1 N9 84.0(2) . . ?
Cl1 Cd2 Cl2 177.8(4) . . ?
N1 Cd2 Cl1 94.84(18) 12_655 . ?
N1 Cd2 Cl1 94.84(18) . . ?
N1 Cd2 N1 91.1(3) . 12_655 ?
N1 Cd2 N4 90.0(2) 12_655 9_666 ?
N1 Cd2 N4 170.7(2) . 9_666 ?
N1 Cd2 N4 170.7(2) 12_655 4_566 ?
N1 Cd2 N4 90.0(2) . 4_566 ?
N1 Cd2 Cl2 83.7(3) . . ?
N1 Cd2 Cl2 83.7(3) 12_655 . ?
N1 Cd2 O1 86.2(9) 12_655 . ?
N1 Cd2 O1 86.2(9) . . ?
N4 Cd2 Cl1 94.29(17) 4_566 . ?
N4 Cd2 Cl1 94.29(17) 9_666 . ?
N4 Cd2 N4 87.4(4) 4_566 9_666 ?
N4 Cd2 Cl2 87.3(3) 4_566 . ?
N4 Cd2 Cl2 87.3(3) 9_666 . ?
N4 Cd2 O1 84.7(9) 4_566 . ?
N4 Cd2 O1 84.7(9) 9_666 . ?
O1 Cd2 Cl1 178.5(12) . . ?
C1 N1 Cd2 130.0(5) . . ?
C1 N1 C2 103.6(7) . . ?
C2 N1 Cd2 126.4(5) . . ?
C1 N2 C3 106.3(6) . . ?
C1 N2 C4 126.6(6) . . ?
C3 N2 C4 127.1(6) . . ?
C11 N3 Cd1 124.1(5) . . ?
C14 N3 Cd1 124.6(5) . . ?
C14 N3 C11 109.1(6) . . ?
C22 N4 Cd2 126.0(6) . 9_666 ?
C22 N4 C23 102.9(7) . . ?
C23 N4 Cd2 131.0(6) . 9_666 ?
C22 N5 C19 125.9(7) . . ?
C22 N5 C24 104.9(7) . . ?
C24 N5 C19 129.2(7) . . ?
C25 N6 Cd1 126.3(4) . . ?
C25 N6 C28 108.6(6) . . ?
C28 N6 Cd1 122.6(4) . . ?
C36 N7 Cd1 129.2(5) . 16_645 ?
C36 N7 C37 106.7(6) . . ?
C37 N7 Cd1 122.6(5) . 16_645 ?
C36 N8 C33 126.2(6) . . ?
C36 N8 C38 106.1(6) . . ?
C38 N8 C33 127.3(6) . . ?
C39 N9 Cd1 121.6(4) . . ?
C42 N9 Cd1 124.8(4) . . ?
C42 N9 C39 108.5(5) . . ?
C53 N12 Cd1 127.6(5) . . ?
C53 N12 C56 107.8(6) . . ?
C56 N12 Cd1 124.6(5) . . ?
N1 C1 N2 111.9(7) . . ?
N1 C1 H1 124.1 . . ?
N2 C1 H1 124.1 . . ?
N1 C2 H2 124.0 . . ?
C3 C2 N1 112.0(8) . . ?
C3 C2 H2 124.0 . . ?
N2 C3 H3 126.9 . . ?
C2 C3 N2 106.2(7) . . ?
C2 C3 H3 126.9 . . ?
C5 C4 N2 119.5(6) . . ?
C9 C4 N2 119.6(6) . . ?
C9 C4 C5 120.9(6) . . ?
C4 C5 H5 120.5 . . ?
C4 C5 C6 118.9(7) . . ?
C6 C5 H5 120.5 . . ?
C5 C6 H6 119.2 . . ?
C5 C6 C7 121.6(7) . . ?
C7 C6 H6 119.2 . . ?
C6 C7 C10 122.1(6) . . ?
C8 C7 C6 117.9(7) . . ?
C8 C7 C10 120.0(6) . . ?
C7 C8 H8 119.4 . . ?
C7 C8 C9 121.2(6) . . ?
C9 C8 H8 119.4 . . ?
C4 C9 C8 119.5(6) . . ?
C4 C9 H9 120.3 . . ?
C8 C9 H9 120.3 . . ?
C11 C10 C7 117.3(7) . . ?
C11 C10 C56 126.3(6) . . ?
C56 C10 C7 116.3(7) . . ?
N3 C11 C10 125.5(7) . . ?
N3 C11 C12 107.6(7) . . ?
C10 C11 C12 126.8(7) . . ?
C11 C12 H12 126.1 . . ?
C13 C12 C11 107.8(7) . . ?
C13 C12 H12 126.1 . . ?
C12 C13 H13 126.4 . . ?
C12 C13 C14 107.2(7) . . ?
C14 C13 H13 126.4 . . ?
N3 C14 C13 108.2(7) . . ?
N3 C14 C15 126.6(6) . . ?
C15 C14 C13 125.2(7) . . ?
C14 C15 C16 116.0(6) . . ?
C14 C15 C25 127.8(6) . . ?
C25 C15 C16 116.2(6) . . ?
C17A C16 C15 120.7(9) . . ?
C17A C16 C19A 122.4(10) . . ?
C19A C16 C15 116.5(8) . . ?
C17 C16 C15 119.3(8) . . ?
C21 C16 C15 127.0(8) . . ?
C21 C16 C17 113.5(10) . . ?
N5 C19 C20A 118.9(8) . . ?
C18A C19 N5 123.4(9) . . ?
C18A C19 C20A 117.4(10) . . ?
C18 C19 N5 114.4(8) . . ?
C20 C19 N5 119.8(9) . . ?
C20 C19 C18 125.6(11) . . ?
N4 C22 N5 114.4(8) . . ?
N4 C22 H22 122.8 . . ?
N5 C22 H22 122.8 . . ?
N4 C23 H23 124.9 . . ?
C24 C23 N4 110.1(8) . . ?
C24 C23 H23 124.9 . . ?
N5 C24 C23 107.6(8) . . ?
N5 C24 H24 126.2 . . ?
C23 C24 H24 126.2 . . ?
N6 C25 C15 124.6(6) . . ?
N6 C25 C26 108.4(6) . . ?
C15 C25 C26 127.0(7) . . ?
C25 C26 H26 125.9 . . ?
C27 C26 C25 108.2(7) . . ?
C27 C26 H26 125.9 . . ?
C26 C27 H27 126.5 . . ?
C26 C27 C28 107.0(7) . . ?
C28 C27 H27 126.5 . . ?
N6 C28 C27 107.7(6) . . ?
N6 C28 C29 126.3(6) . . ?
C29 C28 C27 125.9(6) . . ?
C28 C29 C30 116.9(6) . . ?
C39 C29 C28 126.4(6) . . ?
C39 C29 C30 116.7(6) . . ?
C31 C30 C29 119.4(6) . . ?
C35 C30 C29 122.5(6) . . ?
C35 C30 C31 118.0(6) . . ?
C30 C31 H31 119.4 . . ?
C32 C31 C30 121.3(7) . . ?
C32 C31 H31 119.4 . . ?
C31 C32 H32 120.8 . . ?
C33 C32 C31 118.3(7) . . ?
C33 C32 H32 120.8 . . ?
C32 C33 N8 119.5(6) . . ?
C34 C33 N8 119.0(6) . . ?
C34 C33 C32 121.4(6) . . ?
C33 C34 H34 120.2 . . ?
C33 C34 C35 119.6(6) . . ?
C35 C34 H34 120.2 . . ?
C30 C35 H35 119.4 . . ?
C34 C35 C30 121.2(6) . . ?
C34 C35 H35 119.4 . . ?
N7 C36 N8 111.2(6) . . ?
N7 C36 H36 124.4 . . ?
N8 C36 H36 124.4 . . ?
N7 C37 H37 124.9 . . ?
C38 C37 N7 110.3(7) . . ?
C38 C37 H37 124.9 . . ?
N8 C38 H38 127.2 . . ?
C37 C38 N8 105.7(7) . . ?
C37 C38 H38 127.2 . . ?
N9 C39 C29 125.7(6) . . ?
N9 C39 C40 108.3(6) . . ?
C29 C39 C40 125.9(6) . . ?
C39 C40 H40 126.4 . . ?
C41 C40 C39 107.2(6) . . ?
C41 C40 H40 126.4 . . ?
C40 C41 H41 126.3 . . ?
C40 C41 C42 107.4(6) . . ?
C42 C41 H41 126.3 . . ?
N9 C42 C41 108.6(6) . . ?
N9 C42 C43 126.0(6) . . ?
C43 C42 C41 125.4(7) . . ?
C42 C43 C44 116.1(6) . . ?
C53 C43 C42 125.8(7) . . ?
C53 C43 C44 117.9(7) . . ?
C45A C44 C43 125.1(11) . . ?
C49A C44 C43 122.7(10) . . ?
C49A C44 C45A 112.2(13) . . ?
C45 C44 C43 121.0(10) . . ?
C45 C44 C49 121.6(11) . . ?
C49 C44 C43 117.4(9) . . ?
C46A C47 N11 114.4(11) . . ?
C48A C47 C46A 127.7(14) . . ?
C48A C47 N11 117.9(11) . . ?
C46 C47 N11 121.8(9) . . ?
C48 C47 C46 118.1(11) . . ?
C48 C47 N11 120.1(10) . . ?
N12 C53 C43 125.9(7) . . ?
N12 C53 C54 108.1(6) . . ?
C54 C53 C43 126.0(7) . . ?
C53 C54 H54 125.5 . . ?
C55 C54 C53 109.0(8) . . ?
C55 C54 H54 125.5 . . ?
C54 C55 H55 126.7 . . ?
C54 C55 C56 106.5(7) . . ?
C56 C55 H55 126.7 . . ?
N12 C56 C10 126.3(7) . . ?
N12 C56 C55 108.6(6) . . ?
C10 C56 C55 124.8(7) . . ?
C51 N10 C50 105(2) . . ?
C16 C17A H17A 120.4 . . ?
C16 C17A C18A 119.1(13) . . ?
C18A C17A H17A 120.4 . . ?
C19 C18A C17A 123.6(13) . . ?
C19 C18A H18A 118.2 . . ?
C17A C18A H18A 118.2 . . ?
C16 C19A H19A 120.9 . . ?
C20A C19A C16 118.2(13) . . ?
C20A C19A H19A 120.9 . . ?
C19 C20A H20A 120.4 . . ?
C19A C20A C19 119.1(13) . . ?
C19A C20A H20A 120.4 . . ?
C44 C45A H45A 117.5 . . ?
C46A C45A C44 125(2) . . ?
C46A C45A H45A 117.5 . . ?
C47 C46A H46A 123.2 . . ?
C45A C46A C47 113.5(18) . . ?
C45A C46A H46A 123.2 . . ?
C47 C48A H48A 122.2 . . ?
C47 C48A C49A 115.5(18) . . ?
C49A C48A H48A 122.2 . . ?
C44 C49A H49A 117.0 . . ?
C48A C49A C44 125.9(17) . . ?
C48A C49A H49A 117.0 . . ?
N10 C50 H50 126.3 . . ?
N11 C50 N10 107(2) . . ?
N11 C50 H50 126.3 . . ?
N10 C51 H51 123.1 . . ?
N10 C51 C52 114(3) . . ?
C52 C51 H51 123.1 . . ?
C51 C52 H52 129.9 . . ?
C51 C52 N11 100(2) . . ?
N11 C52 H52 129.9 . . ?
Cd2 O1 H1A 109.5 . . ?
C16 C17 H17 118.4 . . ?
C18 C17 C16 123.1(14) . . ?
C18 C17 H17 118.4 . . ?
C19 C18 H18 122.2 . . ?
C17 C18 C19 115.6(13) . . ?
C17 C18 H18 122.2 . . ?
C19 C20 H20 122.2 . . ?
C19 C20 C21 115.6(14) . . ?
C21 C20 H20 122.2 . . ?
C16 C21 H21 117.1 . . ?
C20 C21 C16 125.8(13) . . ?
C20 C21 H21 117.1 . . ?
C44 C45 H45 121.2 . . ?
C44 C45 C46 117.6(15) . . ?
C46 C45 H45 121.2 . . ?
C47 C46 C45 121.2(14) . . ?
C47 C46 H46 119.4 . . ?
C45 C46 H46 119.4 . . ?
C47 C48 H48 120.3 . . ?
C49 C48 C47 119.4(14) . . ?
C49 C48 H48 120.3 . . ?
C44 C49 H49 119.0 . . ?
C48 C49 C44 122.0(14) . . ?
C48 C49 H49 119.0 . . ?
N10A C51A H51A 126.0 . . ?
N10A C51A C52A 108.0 . . ?
C52A C51A H51A 126.0 . . ?
C51A N10A C50A 108.0 . . ?
N10A C50A H50A 126.0 . . ?
N10A C50A N11 108.0 . . ?
N11 C50A H50A 126.0 . . ?
C50 N11 C47 126.5(15) . . ?
C50 N11 C52 110.9(16) . . ?
C52 N11 C47 121.4(11) . . ?
C50A N11 C47 122.0(7) . . ?
C52A N11 C47 129.9(7) . . ?
C52A N11 C50A 108.0 . . ?
C51A C52A H52A 126.0 . . ?
N11 C52A C51A 108.0 . . ?
N11 C52A H52A 126.0 . . ?
loop_
_geom_bond_atom_site_label_1
_geom_bond_atom_site_label_2
_geom_bond_distance
_geom_bond_site_symmetry_2
_geom_bond_publ_flag
Cd1 N3 2.217(5) . ?
Cd1 N6 2.216(6) . ?
Cd1 N7 2.282(6) 16_655 ?
Cd1 N9 2.243(5) . ?
Cd1 N12 2.214(6) . ?
Cd2 Cl1 2.551(3) . ?
Cd2 N1 2.309(6) 12_655 ?
Cd2 N1 2.309(6) . ?
Cd2 N4 2.329(6) 9_666 ?
Cd2 N4 2.329(6) 4_566 ?
Cd2 Cl2 2.732(17) . ?
Cd2 O1 2.49(5) . ?
N1 C1 1.317(9) . ?
N1 C2 1.355(11) . ?
N2 C1 1.348(9) . ?
N2 C3 1.350(10) . ?
N2 C4 1.435(8) . ?
N3 C11 1.368(9) . ?
N3 C14 1.359(9) . ?
N4 C22 1.308(11) . ?
N4 C23 1.352(11) . ?
N5 C19 1.430(9) . ?
N5 C22 1.324(10) . ?
N5 C24 1.334(11) . ?
N6 C25 1.362(9) . ?
N6 C28 1.384(8) . ?
N7 C36 1.298(8) . ?
N7 C37 1.366(10) . ?
N8 C33 1.415(8) . ?
N8 C36 1.363(9) . ?
N8 C38 1.396(9) . ?
N9 C39 1.371(8) . ?
N9 C42 1.354(9) . ?
N12 C53 1.373(10) . ?
N12 C56 1.378(8) . ?
C1 H1 0.9500 . ?
C2 H2 0.9500 . ?
C2 C3 1.322(11) . ?
C3 H3 0.9500 . ?
C4 C5 1.380(10) . ?
C4 C9 1.371(9) . ?
C5 H5 0.9500 . ?
C5 C6 1.388(11) . ?
C6 H6 0.9500 . ?
C6 C7 1.392(10) . ?
C7 C8 1.381(9) . ?
C7 C10 1.489(9) . ?
C8 H8 0.9500 . ?
C8 C9 1.394(10) . ?
C9 H9 0.9500 . ?
C10 C11 1.412(11) . ?
C10 C56 1.412(11) . ?
C11 C12 1.436(11) . ?
C12 H12 0.9500 . ?
C12 C13 1.357(12) . ?
C13 H13 0.9500 . ?
C13 C14 1.438(10) . ?
C14 C15 1.407(10) . ?
C15 C16 1.503(10) . ?
C15 C25 1.412(9) . ?
C16 C17A 1.310(16) . ?
C16 C19A 1.432(16) . ?
C16 C17 1.450(16) . ?
C16 C21 1.395(16) . ?
C19 C18A 1.339(16) . ?
C19 C20A 1.468(17) . ?
C19 C18 1.402(17) . ?
C19 C20 1.349(17) . ?
C22 H22 0.9500 . ?
C23 H23 0.9500 . ?
C23 C24 1.345(13) . ?
C24 H24 0.9500 . ?
C25 C26 1.428(10) . ?
C26 H26 0.9500 . ?
C26 C27 1.361(11) . ?
C27 H27 0.9500 . ?
C27 C28 1.444(10) . ?
C28 C29 1.411(9) . ?
C29 C30 1.490(8) . ?
C29 C39 1.404(9) . ?
C30 C31 1.403(10) . ?
C30 C35 1.382(9) . ?
C31 H31 0.9500 . ?
C31 C32 1.389(10) . ?
C32 H32 0.9500 . ?
C32 C33 1.383(10) . ?
C33 C34 1.371(10) . ?
C34 H34 0.9500 . ?
C34 C35 1.379(9) . ?
C35 H35 0.9500 . ?
C36 H36 0.9500 . ?
C37 H37 0.9500 . ?
C37 C38 1.345(11) . ?
C38 H38 0.9500 . ?
C39 C40 1.446(9) . ?
C40 H40 0.9500 . ?
C40 C41 1.351(10) . ?
C41 H41 0.9500 . ?
C41 C42 1.449(9) . ?
C42 C43 1.432(10) . ?
C43 C44 1.482(11) . ?
C43 C53 1.425(10) . ?
C44 C45A 1.44(2) . ?
C44 C49A 1.40(2) . ?
C44 C45 1.329(17) . ?
C44 C49 1.388(17) . ?
C47 C46A 1.43(2) . ?
C47 C48A 1.29(2) . ?
C47 C46 1.402(19) . ?
C47 C48 1.395(17) . ?
C47 N11 1.456(10) . ?
C53 C54 1.418(10) . ?
C54 H54 0.9500 . ?
C54 C55 1.351(11) . ?
C55 H55 0.9500 . ?
C55 C56 1.436(11) . ?
N10 C50 1.36(3) . ?
N10 C51 1.31(3) . ?
C17A H17A 0.9500 . ?
C17A C18A 1.40(2) . ?
C18A H18A 0.9500 . ?
C19A H19A 0.9500 . ?
C19A C20A 1.38(2) . ?
C20A H20A 0.9500 . ?
C45A H45A 0.9500 . ?
C45A C46A 1.38(3) . ?
C46A H46A 0.9500 . ?
C48A H48A 0.9500 . ?
C48A C49A 1.39(3) . ?
C49A H49A 0.9500 . ?
C50 H50 0.9500 . ?
C50 N11 1.26(3) . ?
C51 H51 0.9500 . ?
C51 C52 1.32(3) . ?
C52 H52 0.9500 . ?
C52 N11 1.41(3) . ?
O1 H1A 0.8400 . ?
C17 H17 0.9500 . ?
C17 C18 1.38(2) . ?
C18 H18 0.9500 . ?
C20 H20 0.9500 . ?
C20 C21 1.38(2) . ?
C21 H21 0.9500 . ?
C45 H45 0.9500 . ?
C45 C46 1.43(2) . ?
C46 H46 0.9500 . ?
C48 H48 0.9500 . ?
C48 C49 1.35(2) . ?
C49 H49 0.9500 . ?
C51A H51A 0.9500 . ?
C51A N10A 1.4200 . ?
C51A C52A 1.4200 . ?
N10A C50A 1.4200 . ?
C50A H50A 0.9500 . ?
C50A N11 1.4200 . ?
N11 C52A 1.4200 . ?
C52A H52A 0.9500 . ?
loop_
_geom_torsion_atom_site_label_1
_geom_torsion_atom_site_label_2
_geom_torsion_atom_site_label_3
_geom_torsion_atom_site_label_4
_geom_torsion
_geom_torsion_site_symmetry_1
_geom_torsion_site_symmetry_2
_geom_torsion_site_symmetry_3
_geom_torsion_site_symmetry_4
_geom_torsion_publ_flag
Cd1 N3 C11 C10 -22.7(11) . . . . ?
Cd1 N3 C11 C12 161.0(6) . . . . ?
Cd1 N3 C14 C13 -162.6(6) . . . . ?
Cd1 N3 C14 C15 18.3(10) . . . . ?
Cd1 N6 C25 C15 -16.9(10) . . . . ?
Cd1 N6 C25 C26 163.2(5) . . . . ?
Cd1 N6 C28 C27 -163.0(5) . . . . ?
Cd1 N6 C28 C29 19.6(9) . . . . ?
Cd1 N7 C36 N8 -166.1(5) 16_645 . . . ?
Cd1 N7 C37 C38 166.5(7) 16_645 . . . ?
Cd1 N9 C39 C29 -28.1(8) . . . . ?
Cd1 N9 C39 C40 153.9(4) . . . . ?
Cd1 N9 C42 C41 -154.0(5) . . . . ?
Cd1 N9 C42 C43 27.8(9) . . . . ?
Cd1 N12 C53 C43 -5.7(10) . . . . ?
Cd1 N12 C53 C54 175.8(5) . . . . ?
Cd1 N12 C56 C10 10.4(10) . . . . ?
Cd1 N12 C56 C55 -175.9(5) . . . . ?
Cd2 N1 C1 N2 179.7(5) . . . . ?
Cd2 N1 C2 C3 -179.4(7) . . . . ?
Cd2 N4 C22 N5 175.1(6) 9_666 . . . ?
Cd2 N4 C23 C24 -176.0(7) 9_666 . . . ?
N1 C2 C3 N2 -0.9(13) . . . . ?
N2 C4 C5 C6 179.5(9) . . . . ?
N2 C4 C9 C8 179.8(8) . . . . ?
N3 C11 C12 C13 3.6(11) . . . . ?
N3 C14 C15 C16 177.4(7) . . . . ?
N3 C14 C15 C25 -0.9(13) . . . . ?
N4 C23 C24 N5 0.7(14) . . . . ?
N5 C19 C18A C17A -175.6(12) . . . . ?
N5 C19 C20A C19A 176.5(11) . . . . ?
N5 C19 C18 C17 -177.8(10) . . . . ?
N5 C19 C20 C21 178.7(9) . . . . ?
N6 C25 C26 C27 -1.7(10) . . . . ?
N6 C28 C29 C30 -171.3(6) . . . . ?
N6 C28 C29 C39 7.5(11) . . . . ?
N7 C37 C38 N8 1.2(12) . . . . ?
N8 C33 C34 C35 174.5(7) . . . . ?
N9 C39 C40 C41 2.3(8) . . . . ?
N9 C42 C43 C44 166.6(7) . . . . ?
N9 C42 C43 C53 -9.1(12) . . . . ?
N12 C53 C54 C55 0.7(10) . . . . ?
C1 N1 C2 C3 1.0(12) . . . . ?
C1 N2 C3 C2 0.4(12) . . . . ?
C1 N2 C4 C5 -30.6(13) . . . . ?
C1 N2 C4 C9 148.1(8) . . . . ?
C2 N1 C1 N2 -0.7(10) . . . . ?
C3 N2 C1 N1 0.2(10) . . . . ?
C3 N2 C4 C5 149.2(10) . . . . ?
C3 N2 C4 C9 -32.0(13) . . . . ?
C4 N2 C1 N1 -179.9(7) . . . . ?
C4 N2 C3 C2 -179.4(9) . . . . ?
C4 C5 C6 C7 0.6(16) . . . . ?
C5 C4 C9 C8 -1.5(14) . . . . ?
C5 C6 C7 C8 -1.0(15) . . . . ?
C5 C6 C7 C10 178.1(9) . . . . ?
C6 C7 C8 C9 0.2(14) . . . . ?
C6 C7 C10 C11 58.8(12) . . . . ?
C6 C7 C10 C56 -118.5(10) . . . . ?
C7 C8 C9 C4 1.0(13) . . . . ?
C7 C10 C11 N3 177.8(7) . . . . ?
C7 C10 C11 C12 -6.6(12) . . . . ?
C7 C10 C56 N12 -171.0(7) . . . . ?
C7 C10 C56 C55 16.3(11) . . . . ?
C8 C7 C10 C11 -122.1(9) . . . . ?
C8 C7 C10 C56 60.5(11) . . . . ?
C9 C4 C5 C6 0.7(15) . . . . ?
C10 C7 C8 C9 -178.9(8) . . . . ?
C10 C11 C12 C13 -172.7(9) . . . . ?
C11 N3 C14 C13 1.2(9) . . . . ?
C11 N3 C14 C15 -178.0(7) . . . . ?
C11 C10 C56 N12 12.0(12) . . . . ?
C11 C10 C56 C55 -160.7(8) . . . . ?
C11 C12 C13 C14 -2.8(12) . . . . ?
C12 C13 C14 N3 1.1(11) . . . . ?
C12 C13 C14 C15 -179.8(8) . . . . ?
C13 C14 C15 C16 -1.6(12) . . . . ?
C13 C14 C15 C25 -179.9(8) . . . . ?
C14 N3 C11 C10 173.4(7) . . . . ?
C14 N3 C11 C12 -2.9(9) . . . . ?
C14 C15 C16 C17A -119.5(10) . . . . ?
C14 C15 C16 C19A 53.2(11) . . . . ?
C14 C15 C16 C17 -62.9(10) . . . . ?
C14 C15 C16 C21 121.1(10) . . . . ?
C14 C15 C25 N6 -0.1(12) . . . . ?
C14 C15 C25 C26 179.8(8) . . . . ?
C15 C16 C17A C18A 176.4(11) . . . . ?
C15 C16 C19A C20A -175.9(11) . . . . ?
C15 C16 C17 C18 176.7(11) . . . . ?
C15 C16 C21 C20 -176.1(11) . . . . ?
C15 C25 C26 C27 178.5(8) . . . . ?
C16 C15 C25 N6 -178.3(6) . . . . ?
C16 C15 C25 C26 1.5(11) . . . . ?
C16 C17A C18A C19 -2(2) . . . . ?
C16 C19A C20A C19 0(2) . . . . ?
C16 C17 C18 C19 -0.3(19) . . . . ?
C19 N5 C22 N4 -177.0(8) . . . . ?
C19 N5 C24 C23 177.5(9) . . . . ?
C19 C20 C21 C16 -1(2) . . . . ?
C22 N4 C23 C24 0.5(12) . . . . ?
C22 N5 C19 C18A 121.9(12) . . . . ?
C22 N5 C19 C20A -52.6(13) . . . . ?
C22 N5 C19 C18 64.9(12) . . . . ?
C22 N5 C19 C20 -120.4(11) . . . . ?
C22 N5 C24 C23 -1.7(12) . . . . ?
C23 N4 C22 N5 -1.7(12) . . . . ?
C24 N5 C19 C18A -57.1(15) . . . . ?
C24 N5 C19 C20A 128.4(12) . . . . ?
C24 N5 C19 C18 -114.0(12) . . . . ?
C24 N5 C19 C20 60.6(14) . . . . ?
C24 N5 C22 N4 2.2(12) . . . . ?
C25 N6 C28 C27 -0.1(8) . . . . ?
C25 N6 C28 C29 -177.5(6) . . . . ?
C25 C15 C16 C17A 59.0(12) . . . . ?
C25 C15 C16 C19A -128.3(9) . . . . ?
C25 C15 C16 C17 115.6(9) . . . . ?
C25 C15 C16 C21 -60.4(11) . . . . ?
C25 C26 C27 C28 1.6(10) . . . . ?
C26 C27 C28 N6 -1.0(9) . . . . ?
C26 C27 C28 C29 176.4(7) . . . . ?
C27 C28 C29 C30 11.8(10) . . . . ?
C27 C28 C29 C39 -169.4(7) . . . . ?
C28 N6 C25 C15 -179.1(6) . . . . ?
C28 N6 C25 C26 1.0(8) . . . . ?
C28 C29 C30 C31 70.4(9) . . . . ?
C28 C29 C30 C35 -112.8(8) . . . . ?
C28 C29 C39 N9 -2.4(11) . . . . ?
C28 C29 C39 C40 175.2(7) . . . . ?
C29 C30 C31 C32 174.9(7) . . . . ?
C29 C30 C35 C34 -174.8(7) . . . . ?
C29 C39 C40 C41 -175.7(6) . . . . ?
C30 C29 C39 N9 176.3(6) . . . . ?
C30 C29 C39 C40 -6.0(9) . . . . ?
C30 C31 C32 C33 -0.8(13) . . . . ?
C31 C30 C35 C34 2.0(11) . . . . ?
C31 C32 C33 N8 -174.6(7) . . . . ?
C31 C32 C33 C34 3.7(12) . . . . ?
C32 C33 C34 C35 -3.7(12) . . . . ?
C33 N8 C36 N7 173.4(7) . . . . ?
C33 N8 C38 C37 -173.7(8) . . . . ?
C33 C34 C35 C30 0.8(12) . . . . ?
C35 C30 C31 C32 -1.9(12) . . . . ?
C36 N7 C37 C38 -0.8(11) . . . . ?
C36 N8 C33 C32 33.7(12) . . . . ?
C36 N8 C33 C34 -144.6(8) . . . . ?
C36 N8 C38 C37 -1.2(10) . . . . ?
C37 N7 C36 N8 0.0(10) . . . . ?
C38 N8 C33 C32 -155.2(9) . . . . ?
C38 N8 C33 C34 26.5(12) . . . . ?
C38 N8 C36 N7 0.7(9) . . . . ?
C39 N9 C42 C41 0.9(7) . . . . ?
C39 N9 C42 C43 -177.2(7) . . . . ?
C39 C29 C30 C31 -108.5(8) . . . . ?
C39 C29 C30 C35 68.3(9) . . . . ?
C39 C40 C41 C42 -1.7(8) . . . . ?
C40 C41 C42 N9 0.5(8) . . . . ?
C40 C41 C42 C43 178.7(7) . . . . ?
C41 C42 C43 C44 -11.3(11) . . . . ?
C41 C42 C43 C53 173.0(7) . . . . ?
C42 N9 C39 C29 176.0(6) . . . . ?
C42 N9 C39 C40 -1.9(7) . . . . ?
C42 C43 C44 C45A 78.5(15) . . . . ?
C42 C43 C44 C49A -101.9(13) . . . . ?
C42 C43 C44 C45 125.3(11) . . . . ?
C42 C43 C44 C49 -54.8(11) . . . . ?
C42 C43 C53 N12 -3.3(12) . . . . ?
C42 C43 C53 C54 175.0(8) . . . . ?
C43 C44 C45A C46A -174.5(18) . . . . ?
C43 C44 C49A C48A 175.0(17) . . . . ?
C43 C44 C45 C46 177.9(12) . . . . ?
C43 C44 C49 C48 -179.9(12) . . . . ?
C43 C53 C54 C55 -177.9(8) . . . . ?
C44 C43 C53 N12 -178.9(7) . . . . ?
C44 C43 C53 C54 -0.6(12) . . . . ?
C44 C45A C46A C47 -4(3) . . . . ?
C44 C45 C46 C47 4(2) . . . . ?
C47 C48A C49A C44 3(3) . . . . ?
C47 C48 C49 C44 0(2) . . . . ?
C47 N11 C52A C51A 179.4(10) . . . . ?
C53 N12 C56 C10 -172.6(7) . . . . ?
C53 N12 C56 C55 1.1(8) . . . . ?
C53 C43 C44 C45A -105.5(14) . . . . ?
C53 C43 C44 C49A 74.1(14) . . . . ?
C53 C43 C44 C45 -58.7(13) . . . . ?
C53 C43 C44 C49 121.2(10) . . . . ?
C53 C54 C55 C56 0.0(10) . . . . ?
C54 C55 C56 N12 -0.7(9) . . . . ?
C54 C55 C56 C10 173.1(7) . . . . ?
C56 N12 C53 C43 177.4(7) . . . . ?
C56 N12 C53 C54 -1.1(8) . . . . ?
C56 C10 C11 N3 -5.2(13) . . . . ?
C56 C10 C11 C12 170.4(9) . . . . ?
N10 C50 N11 C47 -175.0(15) . . . . ?
N10 C50 N11 C52 17(3) . . . . ?
N10 C51 C52 N11 -2(3) . . . . ?
C17A C16 C19A C20A -3(2) . . . . ?
C18A C19 C20A C19A 1.7(19) . . . . ?
C19A C16 C17A C18A 4(2) . . . . ?
C20A C19 C18A C17A -1(2) . . . . ?
C45A C44 C49A C48A -5(3) . . . . ?
C46A C47 C48A C49A -1(3) . . . . ?
C46A C47 N11 C50 37(2) . . . . ?
C46A C47 N11 C52 -156.7(18) . . . . ?
C48A C47 C46A C45A 2(3) . . . . ?
C48A C47 N11 C50 -145(2) . . . . ?
C48A C47 N11 C52 22(2) . . . . ?
C49A C44 C45A C46A 6(3) . . . . ?
C50 N10 C51 C52 12(4) . . . . ?
C51 N10 C50 N11 -18(3) . . . . ?
C51 C52 N11 C47 -178.2(16) . . . . ?
C51 C52 N11 C50 -10(3) . . . . ?
C17 C16 C21 C20 7.7(17) . . . . ?
C18 C19 C20 C21 -7.3(18) . . . . ?
C20 C19 C18 C17 7.9(18) . . . . ?
C21 C16 C17 C18 -6.7(17) . . . . ?
C45 C44 C49 C48 0(2) . . . . ?
C46 C47 C48 C49 2(2) . . . . ?
C46 C47 N11 C50A -68.7(14) . . . . ?
C46 C47 N11 C52A 111.9(14) . . . . ?
C48 C47 C46 C45 -4(2) . . . . ?
C48 C47 N11 C50A 110.5(13) . . . . ?
C48 C47 N11 C52A -68.9(15) . . . . ?
C49 C44 C45 C46 -2(2) . . . . ?
C51A N10A C50A N11 0.0 . . . . ?
N10A C51A C52A N11 0.0 . . . . ?
N10A C50A N11 C47 -179.5(9) . . . . ?
N10A C50A N11 C52A 0.0 . . . . ?
C50A N11 C52A C51A 0.0 . . . . ?
N11 C47 C46A C45A -179.9(16) . . . . ?
N11 C47 C48A C49A -179.6(15) . . . . ?
N11 C47 C46 C45 175.0(12) . . . . ?
N11 C47 C48 C49 -177.1(12) . . . . ?
C52A C51A N10A C50A 0.0 . . . . ?
loop_
_platon_squeeze_void_nr
_platon_squeeze_void_average_x
_platon_squeeze_void_average_y
_platon_squeeze_void_average_z
_platon_squeeze_void_volume
_platon_squeeze_void_count_electrons
_platon_squeeze_void_content
1 0.000 0.023 0.000 1068 361 ' '
2 0.250 0.055 0.000 573 183 ' '
3 0.500 -0.002 0.000 1068 361 ' '
4 0.750 0.443 0.000 573 183 ' '
5 0.000 0.244 0.500 1068 361 ' '
6 0.500 0.744 0.500 1068 361 ' '
7 0.250 0.900 0.500 573 183 ' '
8 0.750 0.400 0.500 573 183 ' '
