#------------------------------------------------------------------------------
#$Date: 2020-12-01 04:03:42 +0200 (Tue, 01 Dec 2020) $
#$Revision: 259380 $
#$URL: file:///home/coder/svn-repositories/cod/cif/7/12/74/7127481.cif $
#------------------------------------------------------------------------------
#
# This file is available in the Crystallography Open Database (COD),
# http://www.crystallography.net/
#
# All data on this site have been placed in the public domain by the
# contributors.
#
data_7127481
loop_
_publ_author_name
'Huang, Qing'
'Niu, Qian'
'Ma, Na-Na'
'Dong, Long-Zhang'
'Li, Shun-Li'
'Li, Dong-Sheng'
'Cai, Yue-Peng'
'Lan, Ya-Qian'
_publ_section_title
;
 Axial Cl/Br atom-mediated CO<sub>2</sub> electroreduction performance in
 a stable porphyrin-based metal-organic framework.
;
_journal_issue                   94
_journal_name_full
'Chemical communications (Cambridge, England)'
_journal_page_first              14817
_journal_page_last               14820
_journal_paper_doi               10.1039/d0cc06092e
_journal_volume                  56
_journal_year                    2020
_chemical_formula_moiety         'C112 H74.799 Br1.201 Cd3 N24 O0.799'
_chemical_formula_sum            'C112 H74.8 Br1.2 Cd3 N24 O0.8'
_chemical_formula_weight         2202.65
_space_group_crystal_system      orthorhombic
_space_group_IT_number           64
_space_group_name_Hall           '-C 2ac 2'
_space_group_name_H-M_alt        'C m c e'
_atom_sites_solution_hydrogens   geom
_audit_creation_date             2020-02-25
_audit_creation_method
;
Olex2 1.3
(compiled Nov 21 2019 18:26:39 for OlexSys, GUI svn.r6003)
;
_audit_update_record
;
2020-03-27 deposited with the CCDC.	2020-10-27 downloaded from the CCDC.
;
_cell_angle_alpha                90
_cell_angle_beta                 90
_cell_angle_gamma                90
_cell_formula_units_Z            8
_cell_length_a                   47.7736(13)
_cell_length_b                   18.5513(5)
_cell_length_c                   27.2877(8)
_cell_measurement_reflns_used    9648
_cell_measurement_temperature    100
_cell_measurement_theta_max      30.201
_cell_measurement_theta_min      2.76
_cell_volume                     24184.1(12)
_computing_cell_refinement       'SAINT V8.38A (?, 2016)'
_computing_data_reduction        'SAINT V8.38A (?, 2016)'
_computing_molecular_graphics    'Olex2 1.3 (Dolomanov et al., 2009)'
_computing_publication_material  'Olex2 1.3 (Dolomanov et al., 2009)'
_computing_structure_refinement  'SHELXL 2018/3 (Sheldrick, 2015)'
_computing_structure_solution    'SHELXT 2018/2 (Sheldrick, 2018)'
_diffrn_ambient_temperature      100
_diffrn_detector_area_resol_mean 8
_diffrn_measured_fraction_theta_full 0.993
_diffrn_measured_fraction_theta_max 0.993
_diffrn_measurement_device_type  MX-300
_diffrn_measurement_method       '\f and \w scans'
_diffrn_radiation_monochromator  'silicon 111'
_diffrn_radiation_type           synchrotron
_diffrn_radiation_wavelength     0.77485
_diffrn_reflns_av_R_equivalents  0.0746
_diffrn_reflns_av_unetI/netI     0.0509
_diffrn_reflns_Laue_measured_fraction_full 0.993
_diffrn_reflns_Laue_measured_fraction_max 0.993
_diffrn_reflns_limit_h_max       57
_diffrn_reflns_limit_h_min       -57
_diffrn_reflns_limit_k_max       22
_diffrn_reflns_limit_k_min       -21
_diffrn_reflns_limit_l_max       32
_diffrn_reflns_limit_l_min       -32
_diffrn_reflns_number            71527
_diffrn_reflns_point_group_measured_fraction_full 0.993
_diffrn_reflns_point_group_measured_fraction_max 0.993
_diffrn_reflns_theta_full        27.704
_diffrn_reflns_theta_max         27.825
_diffrn_reflns_theta_min         1.520
_diffrn_source                   synchrotron
_diffrn_source_current           0.0
_diffrn_source_power             0.0
_diffrn_source_voltage           0.0
_diffrn_standards_number         0
_exptl_absorpt_coefficient_mu    1.218
_exptl_absorpt_correction_T_max  0.7460
_exptl_absorpt_correction_T_min  0.3102
_exptl_absorpt_correction_type   multi-scan
_exptl_absorpt_process_details
;
SADABS-2016/2 (Bruker,2016/2) was used for absorption correction.
wR2(int) was 0.1636 before and 0.1112 after correction.
The Ratio of minimum to maximum transmission is 0.4158.
The \l/2 correction factor is Not present.
;
_exptl_crystal_colour            'metallic dark violet'
_exptl_crystal_colour_lustre     metallic
_exptl_crystal_colour_modifier   dark
_exptl_crystal_colour_primary    violet
_exptl_crystal_density_diffrn    1.210
_exptl_crystal_description       block
_exptl_crystal_F_000             8858
_exptl_crystal_size_max          0.182
_exptl_crystal_size_mid          0.113
_exptl_crystal_size_min          0.083
_refine_diff_density_max         2.178
_refine_diff_density_min         -1.470
_refine_diff_density_rms         0.155
_refine_ls_extinction_method     none
_refine_ls_goodness_of_fit_ref   1.040
_refine_ls_hydrogen_treatment    constr
_refine_ls_matrix_type           full
_refine_ls_number_parameters     773
_refine_ls_number_reflns         11143
_refine_ls_number_restraints     810
_refine_ls_restrained_S_all      1.039
_refine_ls_R_factor_all          0.0670
_refine_ls_R_factor_gt           0.0625
_refine_ls_shift/su_max          0.002
_refine_ls_shift/su_mean         0.000
_refine_ls_structure_factor_coef Fsqd
_refine_ls_weighting_details
'w=1/[\s^2^(Fo^2^)+(0.1150P)^2^+92.3866P] where P=(Fo^2^+2Fc^2^)/3'
_refine_ls_weighting_scheme      calc
_refine_ls_wR_factor_gt          0.1729
_refine_ls_wR_factor_ref         0.1785
_reflns_Friedel_coverage         0.000
_reflns_number_gt                9943
_reflns_number_total             11143
_reflns_threshold_expression     'I > 2\s(I)'
_cod_data_source_file            d0cc06092e2.cif
_cod_data_source_block           hq_br1_0ma_sq
_cod_original_sg_symbol_Hall     '-C 2bc 2'
_cod_original_formula_sum        'C112 H74.80 Br1.20 Cd3 N24 O0.80'
_cod_database_code               7127481
_shelx_shelxl_version_number     2018/3
_shelx_space_group_comment
;
The symmetry employed for this shelxl refinement is uniquely defined
by the following loop, which should always be used as a source of
symmetry information in preference to the above space-group names.
They are only intended as comments.
;
_shelx_estimated_absorpt_t_max   0.906
_shelx_estimated_absorpt_t_min   0.809
_olex2_refinement_description
;
1. Fixed Uiso
 At 1.2 times of:
  All C(H) groups, All N(H) groups
 At 1.5 times of:
  All O(H) groups
2. Uiso/Uaniso restraints and constraints
C29 \\sim C39 \\sim C28 \\sim C25 \\sim C30 \\sim C56 \\sim C11 \\sim C33 \\sim
C32 \\sim C40 \\sim C15 \\sim C42 \\sim C53 \\sim C31 \\sim C10 \\sim C8 \\sim
C14 \\sim C41 \\sim C43 \\sim C38 \\sim C9 \\sim C4 \\sim C16 \\sim C55 \\sim
C35 \\sim C7 \\sim C34 \\sim C1 \\sim C27 \\sim C54 \\sim C13 \\sim C36 \\sim
C19 \\sim C44 \\sim C26 \\sim C6 \\sim C47 \\sim C12 \\sim C5 \\sim C37 \\sim
C22 \\sim C24 \\sim C23 \\sim C4A \\sim C3A \\sim C51 \\sim C49 \\sim C17A
\\sim C21 \\sim C20 \\sim C48 \\sim C45 \\sim C52A \\sim C18 \\sim C20A \\sim
C21A \\sim C18A \\sim C17 \\sim C50 \\sim C46 \\sim C48A \\sim C49A \\sim C2
\\sim C3 \\sim C45A \\sim C46A \\sim C52 \\sim C50A \\sim C51A \\sim N6 \\sim
N3 \\sim N9 \\sim N12 \\sim N8 \\sim N1 \\sim N2 \\sim N4 \\sim N7 \\sim N5
\\sim N11 \\sim N10A \\sim N10: within 2A with sigma of 0.01 and sigma for
terminal atoms of 0.02 within 2A
3. Others
 Sof(O1)=Sof(H1A)=0.5*(1-FVAR(2))
 Sof(Br2)=0.5*FVAR(2)
 Fixed Sof: C4A(0.5) H4A(0.5) C3A(0.5) H3A(0.5) N10A(0.5) H10A(0.5) C51(0.5)
 H51(0.5) C49(0.5) H49(0.5) C17A(0.5) H17A(0.5) C21(0.5) H21(0.5) C20(0.5)
 H20(0.5) C48(0.5) H48(0.5) C45(0.5) H45(0.5) C52A(0.5) H52A(0.5) C18(0.5)
 H18(0.5) C20A(0.5) H20A(0.5) C21A(0.5) H21A(0.5) C18A(0.5) H18A(0.5) C17(0.5)
 H17(0.5) C50(0.5) H50(0.5) C46(0.5) H46(0.5) C48A(0.5) H48A(0.5) C49A(0.5)
 H49A(0.5) C2(0.5) H2(0.5) C3(0.5) H3(0.5) C45A(0.5) H45A(0.5) C46A(0.5)
 H46A(0.5) C52(0.5) H52(0.5) C50A(0.5) H50A(0.5) C51A(0.5) H51A(0.5) N10(0.5)
 H10(0.5)
4.a Aromatic/amide H refined with riding coordinates:
 C32(H32), C40(H40), C31(H31), C8(H8), C41(H41), C38(H38), C9(H9), C55(H55),
 C35(H35), C34(H34), C1(H1), C27(H27), C54(H54), C13(H13), C36(H36), C26(H26),
 C6(H6), C12(H12), C5(H5), C37(H37), C22(H22), C24(H24), C23(H23), C4A(H4A),
 C3A(H3A), N10A(H10A), C51(H51), C49(H49), C17A(H17A), C21(H21), C20(H20),
 C48(H48), C45(H45), C52A(H52A), C18(H18), C20A(H20A), C21A(H21A), C18A(H18A),
 C17(H17), C50(H50), C46(H46), C48A(H48A), C49A(H49A), C2(H2), C3(H3),
 C45A(H45A), C46A(H46A), C52(H52), C50A(H50A), C51A(H51A), N10(H10)
4.b Tetrahedral OH refined with riding coordinates:
 O1(H1A)
;
_shelx_res_file
;
TITL hq_br1_0ma_a.res in Cmca
    hq_br1_0ma_sq.res
    created by SHELXL-2018/3 at 23:16:42 on 25-Feb-2020
REM Old TITL hq_Br1_0ma in Cmca
REM SHELXT solution in Cmca: R1 0.215, Rweak 0.007, Alpha 0.049
REM <I/s> 0.379 for 681 systematic absences, Orientation as input
REM Formula found by SHELXT: C112 N12 O11 Br Cd3
CELL 0.77485 47.7736 18.5513 27.2877 90 90 90
ZERR 8 0.0013 0.0005 0.0008 0 0 0
LATT 7
SYMM -X,0.5-Y,0.5+Z
SYMM -X,0.5+Y,0.5-Z
SYMM +X,-Y,-Z
SFAC C H Br Cd N O
DISP Br -0.7169 2.9488 12487.2325
DISP C 0.0044 0.002 13.8723
DISP Cd -0.6417 1.4308 6536.3771
DISP H -0 0 0.6274
DISP N 0.0081 0.0039 24.2971
DISP O 0.0141 0.0074 40.8892
UNIT 896 598.4 9.6 24 192 6.4
SIMU 0.01 0.02 2 $C $N

L.S. 20 0 144
PLAN  22
SIZE 0.182 0.113 0.083
TEMP -173.15
CONF
BOND
MORE -1
BOND $H
ABIN
fmap 2 53
acta
SHEL 999 0.83
OMIT 13 1 2
OMIT 2 4 3
OMIT 4 0 2
OMIT 2 0 10
OMIT 23 1 1
OMIT 3 1 1
OMIT 13 1 1
OMIT 0 2 3
OMIT 13 3 1
OMIT 18 4 1
OMIT 5 1 6
OMIT 5 1 1
OMIT 12 2 0
OMIT 4 0 0
OMIT 14 4 0
OMIT 6 4 2
OMIT 12 4 1
OMIT 26 2 1
OMIT 1 1 6
OMIT 1 1 2
OMIT 14 2 0
OMIT 25 3 2
OMIT 3 5 8
OMIT 10 2 0
OMIT 11 1 4
OMIT 2 2 5
OMIT 6 4 0
OMIT 32 2 1
OMIT 22 2 2
OMIT 8 6 3
OMIT 9 5 5
OMIT 15 5 7
OMIT 4 0 4
OMIT 18 2 11
OMIT 30 6 0
OMIT 1 7 7
OMIT 20 4 2
REM <olex2.extras>
REM <HklSrc "%.\\hq_Br1_0ma_sq.hkl">
REM </olex2.extras>

WGHT    0.115000   92.386604
FVAR       0.09294   0.20139
CD1   4    0.658531    0.821266    0.304424    11.00000    0.01222    0.02955 =
         0.04114    0.00538    0.00777    0.00267
CD2   4    0.500000    0.225652    0.306060    10.50000    0.02582    0.03639 =
         0.04123    0.00682    0.00000    0.00000
BR1   3    0.500000    0.145694    0.223951    10.50000    0.01765    0.06521 =
         0.05165   -0.00940    0.00000    0.00000
PART 1
BR2   3    0.500000    0.322152    0.390590    20.50000    0.03811    0.04058 =
         0.05982   -0.00759    0.00000    0.00000
PART 0
N6    5    0.650486    0.915266    0.352280    11.00000    0.01825    0.02980 =
         0.04268    0.00665    0.00939    0.00050
N3    5    0.622493    0.772935    0.343336    11.00000    0.02230    0.03156 =
         0.04188    0.00821    0.00762   -0.00073
N9    5    0.668566    0.906003    0.249053    11.00000    0.01165    0.03343 =
         0.03833    0.00558    0.00536   -0.00063
N12   5    0.641805    0.761799    0.240511    11.00000    0.01925    0.03553 =
         0.04588   -0.00016    0.00967   -0.00108
N8    5    0.755198    1.240575    0.323293    11.00000    0.01841    0.03246 =
         0.05438    0.00165    0.00505   -0.00555
N1    5    0.535265    0.302126    0.278933    11.00000    0.02376    0.03185 =
         0.06715   -0.00547    0.00561    0.00132
N2    5    0.563842    0.393677    0.266601    11.00000    0.01440    0.03100 =
         0.07036   -0.00703    0.01147    0.00016
C29   1    0.680957    1.001688    0.308075    11.00000    0.01387    0.02836 =
         0.04205    0.01018    0.00034   -0.00003
N4    5    0.533857    0.845619    0.654080    11.00000    0.04852    0.04421 =
         0.04003    0.00325    0.01084   -0.00302
C39   1    0.682112    0.968695    0.261609    11.00000    0.01129    0.03139 =
         0.04313    0.00921    0.00392    0.00229
N7    5    0.795666    1.295863    0.320298    11.00000    0.01977    0.03818 =
         0.06273    0.00126    0.00207   -0.00785
C28   1    0.665248    0.978875    0.349195    11.00000    0.01961    0.03143 =
         0.03978    0.00662   -0.00052   -0.00235
C25   1    0.636996    0.914529    0.396319    11.00000    0.02355    0.04048 =
         0.03660    0.00648    0.00556   -0.00410
C30   1    0.699064    1.066894    0.314705    11.00000    0.01873    0.03266 =
         0.03849    0.00825    0.00089   -0.00565
C56   1    0.625610    0.701038    0.243279    11.00000    0.02022    0.03402 =
         0.05271    0.00005    0.00970   -0.00207
C11   1    0.611216    0.707627    0.332065    11.00000    0.02642    0.02677 =
         0.06003    0.00795    0.01715   -0.00012
C33   1    0.735473    1.182561    0.322427    11.00000    0.01742    0.03140 =
         0.04702    0.00518    0.00446   -0.00692
N5    5    0.563462    0.879402    0.596936    11.00000    0.04268    0.04296 =
         0.04058    0.00470    0.01176   -0.00544
C32   1    0.711731    1.189380    0.294918    11.00000    0.02111    0.03195 =
         0.05576    0.00949   -0.00391   -0.00031
AFIX  43
H32   2    0.707733    1.233415    0.278584    11.00000   -1.20000
AFIX   0
C40   1    0.696776    0.996221    0.219050    11.00000    0.02550    0.03657 =
         0.04264    0.00910    0.00960   -0.00262
AFIX  43
H40   2    0.708377    1.037766    0.217729    11.00000   -1.20000
AFIX   0
C15   1    0.620147    0.857514    0.413635    11.00000    0.02583    0.03591 =
         0.03942    0.00744    0.00796   -0.00128
C42   1    0.672868    0.893981    0.200412    11.00000    0.01599    0.03462 =
         0.04257    0.00441    0.00437    0.00076
C53   1    0.646510    0.776345    0.192094    11.00000    0.02393    0.04716 =
         0.04270   -0.00120    0.00531   -0.00329
C31   1    0.693358    1.130943    0.291012    11.00000    0.01993    0.03589 =
         0.05658    0.00603   -0.00956   -0.00225
AFIX  43
H31   2    0.676825    1.135390    0.271903    11.00000   -1.20000
AFIX   0
C10   1    0.613518    0.672373    0.286519    11.00000    0.01791    0.03043 =
         0.06300    0.00281    0.01106    0.00212
C8    1    0.616108    0.540200    0.269220    11.00000    0.01323    0.04000 =
         0.06206   -0.01079    0.00798   -0.00217
AFIX  43
H8    2    0.635632    0.546184    0.264022    11.00000   -1.20000
AFIX   0
C14   1    0.613629    0.792000    0.388652    11.00000    0.03118    0.03293 =
         0.04691    0.00959    0.01542    0.00170
C41   1    0.690658    0.950837    0.181333    11.00000    0.02771    0.04478 =
         0.04034    0.00773    0.01363    0.00025
AFIX  43
H41   2    0.696911    0.955543    0.148439    11.00000   -1.20000
AFIX   0
C43   1    0.661534    0.835671    0.173266    11.00000    0.02233    0.04932 =
         0.03977    0.00225    0.00829   -0.00124
C38   1    0.783397    1.233822    0.325436    11.00000    0.02077    0.03331 =
         0.04453    0.00460    0.00226   -0.00511
AFIX  43
H38   2    0.792968    1.189461    0.330095    11.00000   -1.20000
AFIX   0
C9    1    0.604585    0.472643    0.264255    11.00000    0.01714    0.03402 =
         0.06887   -0.01385    0.00611    0.00076
AFIX  43
H9    2    0.616051    0.432620    0.255965    11.00000   -1.20000
AFIX   0
C4    1    0.576046    0.463511    0.271474    11.00000    0.01764    0.02867 =
         0.06655    0.00131    0.01052    0.00193
C16   1    0.606405    0.866436    0.462449    11.00000    0.03055    0.03825 =
         0.04187    0.00601    0.00971   -0.00783
C55   1    0.620648    0.674074    0.194846    11.00000    0.03718    0.05163 =
         0.06178   -0.00059   -0.00118   -0.01516
AFIX  43
H55   2    0.610403    0.632022    0.186302    11.00000   -1.20000
AFIX   0
C35   1    0.722650    1.063000    0.344354    11.00000    0.03293    0.04188 =
         0.05633    0.02014   -0.01260   -0.01143
AFIX  43
H35   2    0.726071    1.020211    0.362518    11.00000   -1.20000
AFIX   0
C7    1    0.600135    0.599693    0.281550    11.00000    0.02040    0.02788 =
         0.06640    0.00243    0.01171   -0.00003
C34   1    0.741333    1.119940    0.348133    11.00000    0.03050    0.04770 =
         0.05586    0.01676   -0.01600   -0.01146
AFIX  43
H34   2    0.757681    1.116123    0.367783    11.00000   -1.20000
AFIX   0
C1    1    0.541009    0.368336    0.290658    11.00000    0.02948    0.03407 =
         0.06890   -0.00045    0.01554   -0.00161
AFIX  43
H1    2    0.530443    0.395867    0.313452    11.00000   -1.20000
AFIX   0
C27   1    0.660638    1.019645    0.392813    11.00000    0.05771    0.05201 =
         0.04265   -0.00616    0.01065   -0.03076
AFIX  43
H27   2    0.668296    1.065630    0.400222    11.00000   -1.20000
AFIX   0
C54   1    0.633578    0.720841    0.163292    11.00000    0.04397    0.06134 =
         0.04962   -0.00364   -0.00207   -0.01793
AFIX  43
H54   2    0.633924    0.717194    0.128572    11.00000   -1.20000
AFIX   0
N11   5    0.668228    0.876035   -0.034624    11.00000    0.06379    0.08474 =
         0.04406   -0.00774    0.00997    0.00308
C13   1    0.595985    0.735511    0.407694    11.00000    0.07272    0.03307 =
         0.07177    0.00222    0.04634   -0.00974
AFIX  43
H13   2    0.586674    0.735549    0.438456    11.00000   -1.20000
AFIX   0
C36   1    0.749629    1.312437    0.315089    11.00000    0.02468    0.03462 =
         0.11857    0.00224    0.01052   -0.00117
AFIX  43
H36   2    0.731775    1.334226    0.311149    11.00000   -1.20000
AFIX   0
C19   1    0.578999    0.877622    0.551778    11.00000    0.04318    0.04339 =
         0.03689    0.00516    0.00672   -0.00740
C44   1    0.663738    0.842740    0.118792    11.00000    0.03494    0.05948 =
         0.04285   -0.00072    0.00731   -0.01240
C26   1    0.643266    0.980399    0.421701    11.00000    0.06306    0.06329 =
         0.03710   -0.00798    0.01649   -0.02946
AFIX  43
H26   2    0.636470    0.994034    0.453079    11.00000   -1.20000
AFIX   0
C6    1    0.571765    0.588139    0.290348    11.00000    0.02734    0.03109 =
         0.12811    0.00308    0.02946    0.00274
AFIX  43
H6    2    0.560449    0.627562    0.300407    11.00000   -1.20000
AFIX   0
C47   1    0.666234    0.863785    0.017229    11.00000    0.04366    0.07422 =
         0.04640   -0.00114    0.00699   -0.00307
C12   1    0.595134    0.683380    0.374325    11.00000    0.07740    0.03103 =
         0.08676    0.00304    0.04851   -0.01318
AFIX  43
H12   2    0.585747    0.638471    0.377459    11.00000   -1.20000
AFIX   0
C5    1    0.559628    0.521259    0.284900    11.00000    0.01973    0.02899 =
         0.12620    0.01136    0.02579    0.00200
AFIX  43
H5    2    0.540137    0.515033    0.290347    11.00000   -1.20000
AFIX   0
C37   1    0.774846    1.345544    0.313804    11.00000    0.03196    0.03509 =
         0.12196    0.00132    0.01436   -0.00900
AFIX  43
H37   2    0.777669    1.395760    0.309098    11.00000   -1.20000
AFIX   0
C22   1    0.546362    0.828227    0.613448    11.00000    0.08095    0.05531 =
         0.05425   -0.01046    0.02508   -0.02982
AFIX  43
H22   2    0.543577    0.783517    0.597188    11.00000   -1.20000
AFIX   0
C24   1    0.563127    0.930633    0.630823    11.00000    0.09438    0.05351 =
         0.07878   -0.01471    0.04672   -0.02621
AFIX  43
H24   2    0.573806    0.973830    0.630726    11.00000   -1.20000
AFIX   0
C23   1    0.544498    0.909378    0.665852    11.00000    0.09427    0.05825 =
         0.07270   -0.01777    0.04527   -0.02338
AFIX  43
H23   2    0.539845    0.936186    0.694375    11.00000   -1.20000
AFIX   0
PART 1
C4A   1    0.552305    0.292936    0.236267    10.50000    0.03126    0.03294 =
         0.08178   -0.00876    0.00998   -0.00077
AFIX  43
H4A   2    0.550973    0.253200    0.214430    10.50000   -1.20000
AFIX   0
C3A   1    0.570318    0.347428    0.231115    10.50000    0.02795    0.03371 =
         0.07836   -0.01011    0.01451   -0.00468
AFIX  43
H3A   2    0.584674    0.352158    0.207241    10.50000   -1.20000
AFIX   0
PART 0
PART 2
N10A  5    0.681712    0.876151   -0.109855    10.50000    0.07554    0.10720 =
         0.05112   -0.00398    0.01393    0.00716
AFIX  43
H10A  2    0.691520    0.866859   -0.136412    10.50000   -1.20000
AFIX   0
PART 0
PART 1
C51   1    0.661844    0.893600   -0.112605    10.50000    0.06303    0.10034 =
         0.04695   -0.00738    0.00623    0.00408
AFIX  43
H51   2    0.652126    0.898566   -0.142791    10.50000   -1.20000
AFIX   0
PART 0
PART 2
C49   1    0.652845    0.906479    0.097292    10.50000    0.03341    0.05435 =
         0.03613   -0.00200   -0.00026   -0.00635
AFIX  43
H49   2    0.644556    0.942352    0.117457    10.50000   -1.20000
AFIX   0
C17A  1    0.620157    0.876304    0.507116    10.50000    0.03918    0.04126 =
         0.03848    0.01248    0.00820   -0.00434
AFIX  43
H17A  2    0.640007    0.879348    0.507209    10.50000   -1.20000
AFIX   0
PART 0
PART 1
C21   1    0.589992    0.920474    0.471543    10.50000    0.03115    0.03961 =
         0.04195    0.00908    0.01035   -0.00280
AFIX  43
H21   2    0.587200    0.956301    0.447153    10.50000   -1.20000
AFIX   0
C20   1    0.576326    0.926893    0.516674    10.50000    0.03901    0.03865 =
         0.04300    0.00034    0.00859    0.00009
AFIX  43
H20   2    0.564778    0.967713    0.522431    10.50000   -1.20000
AFIX   0
PART 0
PART 2
C48   1    0.654224    0.916654    0.047248    10.50000    0.03748    0.06047 =
         0.04081   -0.00072    0.00214   -0.00414
AFIX  43
H48   2    0.647012    0.959617    0.033125    10.50000   -1.20000
AFIX   0
C45   1    0.675051    0.789525    0.091786    10.50000    0.04354    0.06385 =
         0.04476   -0.00774    0.01494   -0.01558
AFIX  43
H45   2    0.682367    0.747547    0.107068    10.50000   -1.20000
AFIX   0
C52A  1    0.686918    0.851912   -0.064670    10.50000    0.07431    0.10298 =
         0.05383   -0.00777    0.01580    0.01026
AFIX  43
H52A  2    0.702105    0.821460   -0.055924    10.50000   -1.20000
AFIX   0
PART 0
PART 1
C18   1    0.597396    0.817189    0.542973    10.50000    0.04006    0.05152 =
         0.04234    0.01197    0.00183    0.00540
AFIX  43
H18   2    0.600261    0.781901    0.567698    10.50000   -1.20000
AFIX   0
PART 0
PART 2
C20A  1    0.562095    0.876236    0.509228    10.50000    0.03235    0.05229 =
         0.04842    0.00394    0.01558   -0.00587
AFIX  43
H20A  2    0.542255    0.878725    0.510849    10.50000   -1.20000
AFIX   0
C21A  1    0.576380    0.870975    0.464606    10.50000    0.03552    0.04696 =
         0.04170   -0.00133    0.01117   -0.00546
AFIX  43
H21A  2    0.565967    0.870387    0.434949    10.50000   -1.20000
AFIX   0
C18A  1    0.606045    0.881828    0.551237    10.50000    0.04033    0.04217 =
         0.03789    0.01063    0.00622   -0.00386
AFIX  43
H18A  2    0.616122    0.888650    0.580890    10.50000   -1.20000
AFIX   0
PART 0
PART 1
C17   1    0.610791    0.811154    0.498267    10.50000    0.04189    0.04826 =
         0.04610    0.00496    0.00710    0.00735
AFIX  43
H17   2    0.622634    0.771256    0.491455    10.50000   -1.20000
AFIX   0
C50   1    0.650063    0.879209   -0.069286    10.50000    0.06276    0.09210 =
         0.04554   -0.00310    0.00229    0.00136
AFIX  43
H50   2    0.630546    0.872150   -0.064655    10.50000   -1.20000
AFIX   0
PART 0
PART 2
C46   1    0.675864    0.797212    0.040065    10.50000    0.05027    0.06958 =
         0.04928   -0.01483    0.01589   -0.01298
AFIX  43
H46   2    0.682695    0.758913    0.020289    10.50000   -1.20000
AFIX   0
PART 0
PART 1
C48A  1    0.643405    0.880287    0.040030    10.50000    0.04823    0.07281 =
         0.04990    0.00669    0.00303    0.00383
AFIX  43
H48A  2    0.628141    0.901155    0.022807    10.50000   -1.20000
AFIX   0
C49A  1    0.641482    0.867292    0.089449    10.50000    0.04571    0.07617 =
         0.05193    0.00260    0.00626    0.00406
AFIX  43
H49A  2    0.623937    0.875431    0.104870    10.50000   -1.20000
AFIX   0
PART 0
PART 2
C2    1    0.557672    0.275493    0.254828    10.50000    0.02196    0.03095 =
         0.08001   -0.00199    0.00749   -0.00183
AFIX  43
H2    2    0.560129    0.226605    0.245398    10.50000   -1.20000
AFIX   0
C3    1    0.575900    0.328958    0.246311    10.50000    0.02170    0.02938 =
         0.08136   -0.00745    0.01103    0.00535
AFIX  43
H3    2    0.593408    0.324986    0.230027    10.50000   -1.20000
AFIX   0
PART 0
PART 1
C45A  1    0.686284    0.820329    0.090664    10.50000    0.05178    0.08990 =
         0.05235   -0.00180    0.00973    0.01293
AFIX  43
H45A  2    0.701209    0.796573    0.107047    10.50000   -1.20000
AFIX   0
C46A  1    0.688704    0.829874    0.040743    10.50000    0.05103    0.09445 =
         0.05506   -0.00332    0.01257    0.01017
AFIX  43
H46A  2    0.704779    0.814257    0.023214    10.50000   -1.20000
AFIX   0
C52   1    0.694782    0.891286   -0.059911    10.50000    0.06360    0.10856 =
         0.05153   -0.00421    0.01333    0.00452
AFIX  43
H52   2    0.712487    0.894202   -0.044185    10.50000   -1.20000
AFIX   0
PART 0
PART 2
C50A  1    0.650700    0.918777   -0.061759    10.50000    0.06281    0.10151 =
         0.04449   -0.00287    0.00440    0.00567
AFIX  43
H50A  2    0.635191    0.945204   -0.049430    10.50000   -1.20000
AFIX   0
C51A  1    0.658830    0.917104   -0.107068    10.50000    0.06528    0.10439 =
         0.04914   -0.00196    0.00408    0.00123
AFIX  43
H51A  2    0.650000    0.940961   -0.133714    10.50000   -1.20000
AFIX   0
PART 0
PART 1
N10   5    0.690807    0.900179   -0.106338    10.50000    0.05941    0.10681 =
         0.04808   -0.00544    0.01167    0.00419
AFIX  43
H10   2    0.703500    0.908526   -0.129009    10.50000   -1.20000
AFIX   0
PART 0
PART 2
O1    6    0.500000    0.298109    0.382651   -20.50000    0.06794    0.03113 =
         0.11252    0.00902    0.00000    0.00000
AFIX  83
H1A   2    0.500000    0.342179    0.375582   -20.50000   -1.50000
AFIX   0
HKLF 4




REM  hq_br1_0ma_a.res in Cmca
REM wR2 = 0.1785, GooF = S = 1.040, Restrained GooF = 1.039 for all data
REM R1 = 0.0625 for 9943 Fo > 4sig(Fo) and 0.0670 for all 11143 data
REM 773 parameters refined using 810 restraints

END

WGHT      0.1147     92.4324

REM Highest difference peak  2.178,  deepest hole -1.470,  1-sigma level  0.155
Q1    1   0.5000  0.1399  0.2605  10.50000  0.05    2.18
Q2    1   0.5000  0.2359  0.3402  10.50000  0.05    2.08
Q3    1   0.6599  0.7946  0.3241  11.00000  0.05    2.06
Q4    1   0.6600  0.8509  0.3144  11.00000  0.05    1.59
Q5    1   0.6599  0.8039  0.2870  11.00000  0.05    1.46
Q6    1   0.5000  0.2536  0.2827  10.50000  0.05    1.20
Q7    1   0.5000  0.1980  0.2292  10.50000  0.05    1.14
Q8    1   0.5000  0.1439  0.1763  10.50000  0.05    0.98
Q9    1   0.5000  0.1951  0.2758  10.50000  0.05    0.91
Q10   1   0.5000  0.1010  0.1958  10.50000  0.05    0.76
Q11   1   0.5000  0.2866  0.4153  10.50000  0.05    0.53
Q12   1   0.5000  0.2590  0.3860  10.50000  0.05    0.49
Q13   1   0.5000  0.1122  0.2931  10.50000  0.05    0.47
Q14   1   0.6818  0.9840  0.2821  11.00000  0.05    0.44
Q15   1   0.6842  0.9144  0.1973  11.00000  0.05    0.43
Q16   1   0.6402  0.9197  0.3784  11.00000  0.05    0.43
Q17   1   0.6994  0.9606  0.2021  11.00000  0.05    0.42
Q18   1   0.7148  1.0554  0.3018  11.00000  0.05    0.42
Q19   1   0.6382  0.9031  0.3213  11.00000  0.05    0.41
Q20   1   0.6225  0.6815  0.2630  11.00000  0.05    0.40
Q21   1   0.6609  0.8954  0.2562  11.00000  0.05    0.39
Q22   1   0.7417  1.1182  0.3016  11.00000  0.05    0.38
;
_shelx_res_checksum              11507
_shelx_fab_file
;
    4    0    0   1119.98      0.00
    8    0    0    398.72      0.00
   10    0    0    362.93      0.00
   14    0    0    310.96      0.00
   16    0    0    127.68      0.00
   28    0    0     76.46      0.00
   30    0    0     28.95      0.00
   32    0    0    130.55      0.00
   34    0    0     61.47      0.00
   36    0    0    119.01      0.00
   38    0    0     44.57      0.00
   40    0    0     57.28      0.00
   42    0    0     31.69      0.00
   44    0    0     42.34      0.00
   46    0    0     23.41      0.00
   48    0    0     40.67      0.00
   50    0    0     13.50      0.00
   52    0    0     33.43      0.00
   54    0    0      1.38      0.00
   56    0    0     16.06      0.00
   58    0    0      1.13      0.00
   60    0    0     10.73      0.00
    2    2    0    164.32      0.00
    4    2    0     44.33      0.00
    6    2    0   -104.19      0.00
   10    2    0    153.88      0.00
   12    2    0    241.59      0.00
   14    2    0    110.65      0.00
   16    2    0     17.58      0.00
   18    2    0     44.26      0.00
   20    2    0     36.84      0.00
   22    2    0    110.89      0.00
   24    2    0     30.63      0.00
   26    2    0     38.09      0.00
   28    2    0    -22.16      0.00
   30    2    0      9.64      0.00
   32    2    0      1.07      0.00
   34    2    0     18.97      0.00
   36    2    0      7.59      0.00
   38    2    0      6.13      0.00
   40    2    0     -0.35      0.00
   42    2    0     11.63      0.00
   44    2    0      3.13      0.00
   46    2    0     14.21      0.00
   48    2    0     -0.62      0.00
   50    2    0      8.57      0.00
   52    2    0     -1.72      0.00
   54    2    0      0.99      0.00
   56    2    0     -7.46      0.00
   58    2    0     -1.07      0.00
   60    2    0     -0.42      0.00
    2    4    0     48.06      0.00
    4    4    0     28.97      0.00
    6    4    0     45.67      0.00
   10    4    0     43.56      0.00
   12    4    0    112.56      0.00
   14    4    0    -56.09      0.00
   16    4    0    -26.52      0.00
   18    4    0     71.71      0.00
   20    4    0     50.40      0.00
   22    4    0    118.20      0.00
   24    4    0     29.77      0.00
   26    4    0     32.55      0.00
   28    4    0     18.84      0.00
   30    4    0     28.57      0.00
   32    4    0     30.21      0.00
   34    4    0     28.48      0.00
   36    4    0     14.75      0.00
   38    4    0     15.18      0.00
   40    4    0      9.54      0.00
   42    4    0     17.06      0.00
   44    4    0      3.28      0.00
   46    4    0      6.94      0.00
   48    4    0     -9.93      0.00
   50    4    0      6.07      0.00
   52    4    0      4.20      0.00
   54    4    0     11.96      0.00
   56    4    0      9.13      0.00
   58    4    0      7.00      0.00
   60    4    0      5.36      0.00
    2    6    0    -80.21      0.00
    4    6    0    -24.62      0.00
    6    6    0    -76.52      0.00
    8    6    0    -42.52      0.00
   10    6    0     26.36      0.00
   12    6    0    -46.32      0.00
   14    6    0      3.66      0.00
   16    6    0    -76.06      0.00
   18    6    0      6.39      0.00
   20    6    0    -31.64      0.00
   22    6    0     18.47      0.00
   24    6    0    -28.02      0.00
   26    6    0    -13.17      0.00
   28    6    0    -30.97      0.00
   30    6    0    -20.09      0.00
   32    6    0    -14.51      0.00
   34    6    0    -14.93      0.00
   36    6    0    -15.54      0.00
   38    6    0    -24.74      0.00
   40    6    0    -12.93      0.00
   42    6    0    -12.98      0.00
   44    6    0      1.30      0.00
   46    6    0     -6.80      0.00
   48    6    0     -7.58      0.00
   50    6    0     -4.92      0.00
   52    6    0     -3.71      0.00
   54    6    0      3.97      0.00
   56    6    0      7.71      0.00
   58    6    0      8.56      0.00
   60    6    0     14.21      0.00
    0    8    0     79.32      0.00
    2    8    0     -1.78      0.00
    4    8    0     22.45      0.00
    6    8    0    -18.69      0.00
    8    8    0      0.41      0.00
   10    8    0     40.77      0.00
   12    8    0     16.16      0.00
   14    8    0     46.75      0.00
   16    8    0      1.14      0.00
   18    8    0     16.69      0.00
   20    8    0     -8.82      0.00
   22    8    0      7.39      0.00
   24    8    0     -4.24      0.00
   26    8    0     12.73      0.00
   28    8    0     -0.06      0.00
   30    8    0      9.36      0.00
   32    8    0      3.87      0.00
   34    8    0      8.13      0.00
   36    8    0      2.73      0.00
   38    8    0      1.21      0.00
   40    8    0      2.53      0.00
   42    8    0      5.47      0.00
   44    8    0      8.72      0.00
   46    8    0      3.83      0.00
   48    8    0      6.13      0.00
   50    8    0      4.37      0.00
   52    8    0      6.63      0.00
   54    8    0      3.07      0.00
   56    8    0      0.49      0.00
   58    8    0      0.10      0.00
    0   10    0     23.13      0.00
    2   10    0    -36.94      0.00
    4   10    0     -6.92      0.00
    6   10    0    -52.58      0.00
    8   10    0    -22.59      0.00
   10   10    0    -41.99      0.00
   12   10    0    -28.53      0.00
   14   10    0    -46.92      0.00
   16   10    0    -42.64      0.00
   18   10    0    -38.88      0.00
   20   10    0    -34.01      0.00
   22   10    0    -21.87      0.00
   24   10    0    -18.81      0.00
   26   10    0    -18.84      0.00
   28   10    0     -8.77      0.00
   30   10    0    -21.84      0.00
   32   10    0      0.48      0.00
   34   10    0    -22.57      0.00
   36   10    0     -3.25      0.00
   38   10    0    -18.93      0.00
   40   10    0     -4.33      0.00
   42   10    0     -8.16      0.00
   44   10    0     -3.22      0.00
   46   10    0    -12.28      0.00
   48   10    0     -1.72      0.00
   50   10    0     -9.92      0.00
   52   10    0      3.34      0.00
   54   10    0     -6.93      0.00
   56   10    0      0.93      0.00
    0   12    0      9.89      0.00
    2   12    0     10.90      0.00
    4   12    0      2.62      0.00
    6   12    0      0.70      0.00
    8   12    0     14.17      0.00
   10   12    0     13.63      0.00
   12   12    0     16.93      0.00
   14   12    0     10.85      0.00
   16   12    0     -0.81      0.00
   18   12    0     14.67      0.00
   20   12    0      0.72      0.00
   22   12    0     21.28      0.00
   24   12    0      2.21      0.00
   26   12    0      0.73      0.00
   28   12    0    -10.04      0.00
   30   12    0    -11.26      0.00
   32   12    0     -9.50      0.00
   34   12    0     -0.63      0.00
   36   12    0     -1.62      0.00
   38   12    0      0.94      0.00
   40   12    0      4.59      0.00
   42   12    0      0.44      0.00
   44   12    0      3.37      0.00
   46   12    0      5.39      0.00
   48   12    0      1.08      0.00
   50   12    0      6.63      0.00
   52   12    0     -0.79      0.00
    0   14    0      1.88      0.00
    2   14    0     -3.67      0.00
    4   14    0     -2.36      0.00
    6   14    0     -5.31      0.00
    8   14    0     -6.39      0.00
   10   14    0     -3.89      0.00
   12   14    0     -9.31      0.00
   14   14    0     -5.56      0.00
   16   14    0     -6.05      0.00
   18   14    0     -9.83      0.00
   20   14    0     -1.18      0.00
   22   14    0    -10.76      0.00
   24   14    0     -0.83      0.00
   26   14    0     -5.03      0.00
   28   14    0     -5.61      0.00
   30   14    0      0.48      0.00
   32   14    0     -2.48      0.00
   34   14    0      5.76      0.00
   36   14    0      0.86      0.00
   38   14    0      0.87      0.00
   40   14    0     -5.71      0.00
   42   14    0     -9.02      0.00
   44   14    0    -10.52      0.00
   46   14    0     -8.90      0.00
   48   14    0     -3.82      0.00
   50   14    0     -1.56      0.00
    0   16    0      8.94      0.00
    2   16    0     -6.55      0.00
    4   16    0      9.08      0.00
    6   16    0      1.91      0.00
    8   16    0      9.96      0.00
   10   16    0      6.77      0.00
   12   16    0     10.57      0.00
   14   16    0     10.16      0.00
   16   16    0     14.39      0.00
   18   16    0     13.53      0.00
   20   16    0     12.72      0.00
   22   16    0      9.02      0.00
   24   16    0      9.46      0.00
   26   16    0      3.86      0.00
   28   16    0      5.31      0.00
   30   16    0      3.08      0.00
   32   16    0      3.82      0.00
   34   16    0      4.86      0.00
   36   16    0      1.65      0.00
   38   16    0      4.04      0.00
   40   16    0      1.16      0.00
   42   16    0      7.44      0.00
   44   16    0      1.40      0.00
   46   16    0      4.11      0.00
    0   18    0      0.23      0.00
    2   18    0      5.88      0.00
    4   18    0      3.01      0.00
    6   18    0      2.78      0.00
    8   18    0     10.04      0.00
   10   18    0      0.16      0.00
   12   18    0      6.16      0.00
   14   18    0     -1.48      0.00
   16   18    0      2.31      0.00
   18   18    0      3.35      0.00
   20   18    0      1.97      0.00
   22   18    0      0.36      0.00
   24   18    0     -1.37      0.00
   26   18    0     -5.61      0.00
   28   18    0     -1.24      0.00
   30   18    0     -3.31      0.00
   32   18    0      3.88      0.00
   34   18    0     -1.69      0.00
   36   18    0     -0.19      0.00
   38   18    0     -6.70      0.00
   40   18    0     -1.76      0.00
    0   20    0     12.37      0.00
    2   20    0      6.84      0.00
    4   20    0     10.93      0.00
    6   20    0      8.55      0.00
    8   20    0      8.75      0.00
   10   20    0      9.76      0.00
   12   20    0      6.79      0.00
   14   20    0      7.16      0.00
   16   20    0      9.18      0.00
   18   20    0      1.90      0.00
   20   20    0      8.38      0.00
   22   20    0     -1.79      0.00
   24   20    0      6.87      0.00
   26   20    0     -2.70      0.00
   28   20    0      3.99      0.00
   30   20    0     -1.89      0.00
   32   20    0      5.68      0.00
   34   20    0      2.52      0.00
    0   22    0     -6.72      0.00
    2   22    0      1.69      0.00
    4   22    0     -1.24      0.00
    6   22    0      5.81      0.00
    8   22    0     -6.39      0.00
   10   22    0     -6.74      0.00
   12   22    0    -11.60      0.00
   14   22    0     -6.31      0.00
   16   22    0     -6.11      0.00
   18   22    0     -9.54      0.00
   20   22    0    -13.38      0.00
   22   22    0    -11.56      0.00
   24   22    0     -3.54      0.00
    1    1    1   -281.30      0.00
    3    1    1   -132.01      0.00
    5    1    1    432.64      0.00
    7    1    1    183.29      0.00
    9    1    1    189.01      0.00
   11    1    1   -115.92      0.00
   13    1    1    -99.59      0.00
   15    1    1     80.17      0.00
   17    1    1    107.68      0.00
   19    1    1    140.23      0.00
   21    1    1     34.71      0.00
   23    1    1     -6.70      0.00
   25    1    1     -8.89      0.00
   27    1    1      9.03      0.00
   29    1    1      7.06      0.00
   31    1    1    -14.02      0.00
   33    1    1    -14.64      0.00
   35    1    1    -38.84      0.00
   37    1    1      5.15      0.00
   39    1    1    -14.70      0.00
   41    1    1      9.93      0.00
   43    1    1     -8.33      0.00
   45    1    1     -2.70      0.00
   47    1    1     -3.81      0.00
   49    1    1      0.87      0.00
   51    1    1     -2.94      0.00
   53    1    1      8.10      0.00
   55    1    1      0.43      0.00
   57    1    1     11.21      0.00
   59    1    1     -2.01      0.00
   61    1    1      3.85      0.00
    0    2    1    266.20      0.00
    2    2    1    138.54      0.00
    8    2    1      9.62      0.00
   12    2    1    113.59      0.00
   14    2    1    108.31      0.00
   18    2    1     22.72      0.00
   20    2    1     10.41      0.00
   22    2    1     11.33      0.00
   24    2    1     26.39      0.00
   26    2    1     13.39      0.00
   28    2    1      3.29      0.00
   30    2    1    -11.67      0.00
   32    2    1    -11.14      0.00
   34    2    1     -0.87      0.00
   36    2    1     -1.55      0.00
   38    2    1      3.67      0.00
   40    2    1     -8.48      0.00
   42    2    1     -5.18      0.00
   44    2    1     -6.01      0.00
   46    2    1      0.85      0.00
   48    2    1      5.90      0.00
   50    2    1      5.09      0.00
   52    2    1      5.16      0.00
   54    2    1      0.70      0.00
   56    2    1      1.61      0.00
   58    2    1      0.97      0.00
   60    2    1      1.45      0.00
    1    3    1    -78.10      0.00
    3    3    1    158.30      0.00
    5    3    1   -196.50      0.00
    7    3    1    146.31      0.00
    9    3    1   -279.72      0.00
   11    3    1     29.84      0.00
   13    3    1    -70.48      0.00
   15    3    1    112.36      0.00
   17    3    1     10.43      0.00
   19    3    1     30.17      0.00
   21    3    1    -82.15      0.00
   23    3    1      9.18      0.00
   25    3    1    -20.97      0.00
   27    3    1     39.34      0.00
   29    3    1      6.62      0.00
   31    3    1     11.20      0.00
   33    3    1    -11.30      0.00
   35    3    1      7.93      0.00
   37    3    1     -8.14      0.00
   39    3    1     12.69      0.00
   41    3    1     -5.57      0.00
   43    3    1      4.77      0.00
   45    3    1     -2.21      0.00
   47    3    1      9.69      0.00
   49    3    1     -1.12      0.00
   51    3    1      4.08      0.00
   53    3    1     -6.73      0.00
   55    3    1      2.31      0.00
   57    3    1     -1.23      0.00
   59    3    1      4.12      0.00
   61    3    1     -1.38      0.00
    0    4    1     39.10      0.00
    2    4    1     53.41      0.00
    4    4    1     25.19      0.00
    6    4    1      7.89      0.00
    8    4    1     31.60      0.00
   12    4    1     74.72      0.00
   14    4    1     58.89      0.00
   16    4    1     71.09      0.00
   18    4    1     35.10      0.00
   20    4    1     34.42      0.00
   22    4    1     21.73      0.00
   24    4    1     28.02      0.00
   26    4    1     23.60      0.00
   28    4    1      9.46      0.00
   30    4    1      4.09      0.00
   32    4    1     -5.49      0.00
   34    4    1      3.58      0.00
   36    4    1      2.18      0.00
   38    4    1      3.19      0.00
   40    4    1      0.24      0.00
   42    4    1     -2.59      0.00
   44    4    1      1.60      0.00
   46    4    1      2.30      0.00
   48    4    1      6.59      0.00
   50    4    1      5.09      0.00
   52    4    1      5.02      0.00
   54    4    1      1.40      0.00
   56    4    1      0.27      0.00
   58    4    1     -0.75      0.00
   60    4    1     -0.19      0.00
    1    5    1    -32.78      0.00
    3    5    1     11.55      0.00
    5    5    1    -38.36      0.00
    7    5    1     -3.94      0.00
    9    5    1    -87.29      0.00
   11    5    1    -15.78      0.00
   13    5    1    -14.70      0.00
   15    5    1     21.34      0.00
   17    5    1    -32.31      0.00
   19    5    1    -46.99      0.00
   21    5    1    -86.95      0.00
   23    5    1    -28.33      0.00
   25    5    1    -29.61      0.00
   27    5    1      4.71      0.00
   29    5    1     -6.93      0.00
   31    5    1    -14.27      0.00
   33    5    1     -9.58      0.00
   35    5    1     -6.65      0.00
   37    5    1      5.12      0.00
   39    5    1     12.91      0.00
   41    5    1      3.73      0.00
   43    5    1      6.18      0.00
   45    5    1      1.19      0.00
   47    5    1      9.20      0.00
   49    5    1      4.96      0.00
   51    5    1      5.28      0.00
   53    5    1     -5.20      0.00
   55    5    1     -0.19      0.00
   57    5    1     -4.22      0.00
   59    5    1     -0.45      0.00
    0    6    1     45.11      0.00
    2    6    1     22.86      0.00
    4    6    1     36.01      0.00
    6    6    1     28.68      0.00
    8    6    1     23.98      0.00
   10    6    1     21.59      0.00
   12    6    1     16.75      0.00
   14    6    1      2.79      0.00
   16    6    1      8.42      0.00
   18    6    1     -5.28      0.00
   20    6    1      2.98      0.00
   22    6    1      0.81      0.00
   24    6    1      1.33      0.00
   26    6    1      4.13      0.00
   28    6    1     -1.62      0.00
   30    6    1      2.57      0.00
   32    6    1      3.99      0.00
   34    6    1      7.89      0.00
   36    6    1     11.39      0.00
   38    6    1     12.42      0.00
   40    6    1      9.64      0.00
   42    6    1     10.54      0.00
   44    6    1      4.23      0.00
   46    6    1      5.15      0.00
   48    6    1      2.65      0.00
   50    6    1      4.92      0.00
   52    6    1      2.47      0.00
   54    6    1      1.50      0.00
   56    6    1     -2.85      0.00
   58    6    1     -1.94      0.00
   60    6    1     -2.19      0.00
    1    7    1    -10.49      0.00
    3    7    1     13.70      0.00
    5    7    1     65.25      0.00
    7    7    1     48.04      0.00
    9    7    1     10.38      0.00
   11    7    1     13.41      0.00
   13    7    1    -40.24      0.00
   15    7    1     25.60      0.00
   17    7    1    -19.85      0.00
   19    7    1     19.75      0.00
   21    7    1      9.49      0.00
   23    7    1     12.32      0.00
   25    7    1     32.59      0.00
   27    7    1     13.11      0.00
   29    7    1     30.95      0.00
   31    7    1      2.11      0.00
   33    7    1      8.30      0.00
   35    7    1     -2.45      0.00
   37    7    1      4.82      0.00
   39    7    1      6.78      0.00
   41    7    1      1.93      0.00
   43    7    1     -6.17      0.00
   45    7    1     -1.82      0.00
   47    7    1     -7.38      0.00
   49    7    1      3.92      0.00
   51    7    1     -2.53      0.00
   53    7    1      3.06      0.00
   55    7    1      4.45      0.00
   57    7    1      3.34      0.00
   59    7    1      3.15      0.00
    0    8    1     21.95      0.00
    2    8    1     22.72      0.00
    4    8    1     21.09      0.00
    6    8    1     16.74      0.00
    8    8    1     22.33      0.00
   10    8    1     16.40      0.00
   12    8    1     20.70      0.00
   14    8    1     10.25      0.00
   16    8    1     12.20      0.00
   18    8    1      3.86      0.00
   20    8    1     14.09      0.00
   22    8    1     11.65      0.00
   24    8    1     20.49      0.00
   26    8    1     11.66      0.00
   28    8    1     12.06      0.00
   30    8    1      6.52      0.00
   32    8    1      5.45      0.00
   34    8    1      9.99      0.00
   36    8    1      3.34      0.00
   38    8    1      9.08      0.00
   40    8    1      3.08      0.00
   42    8    1      6.08      0.00
   44    8    1      1.68      0.00
   46    8    1      0.66      0.00
   48    8    1     -2.03      0.00
   50    8    1     -0.95      0.00
   52    8    1     -1.27      0.00
   54    8    1     -0.49      0.00
   56    8    1     -0.32      0.00
   58    8    1      0.59      0.00
    1    9    1    -18.35      0.00
    3    9    1     -6.56      0.00
    5    9    1     16.72      0.00
    7    9    1     11.97      0.00
    9    9    1      4.13      0.00
   11    9    1      2.87      0.00
   13    9    1      2.12      0.00
   15    9    1     14.32      0.00
   17    9    1     22.39      0.00
   19    9    1     16.35      0.00
   21    9    1     28.98      0.00
   23    9    1      3.38      0.00
   25    9    1     16.77      0.00
   27    9    1     -8.13      0.00
   29    9    1      4.27      0.00
   31    9    1    -10.14      0.00
   33    9    1      2.94      0.00
   35    9    1     -6.31      0.00
   37    9    1     10.76      0.00
   39    9    1     -0.75      0.00
   41    9    1      5.87      0.00
   43    9    1      3.60      0.00
   45    9    1      6.14      0.00
   47    9    1      9.25      0.00
   49    9    1      5.31      0.00
   51    9    1     -1.92      0.00
   53    9    1      1.00      0.00
   55    9    1     -2.66      0.00
   57    9    1      2.57      0.00
    0   10    1     -0.36      0.00
    2   10    1     -0.07      0.00
    4   10    1      4.70      0.00
    6   10    1      1.08      0.00
    8   10    1      2.55      0.00
   10   10    1     -3.56      0.00
   12   10    1     -2.88      0.00
   14   10    1      1.31      0.00
   16   10    1     -2.66      0.00
   18   10    1      2.83      0.00
   20   10    1     -2.45      0.00
   22   10    1      3.01      0.00
   24   10    1      3.33      0.00
   26   10    1      6.86      0.00
   28   10    1      4.54      0.00
   30   10    1      5.76      0.00
   32   10    1      2.13      0.00
   34   10    1      3.73      0.00
   36   10    1      0.27      0.00
   38   10    1      3.26      0.00
   40   10    1     -0.32      0.00
   42   10    1      1.67      0.00
   44   10    1     -2.81      0.00
   46   10    1     -4.17      0.00
   48   10    1     -3.99      0.00
   50   10    1     -3.62      0.00
   52   10    1     -1.42      0.00
   54   10    1     -1.12      0.00
   56   10    1     -1.71      0.00
    1   11    1     22.55      0.00
    3   11    1     35.10      0.00
    5   11    1     23.64      0.00
    7   11    1     32.98      0.00
    9   11    1      6.10      0.00
   11   11    1     16.79      0.00
   13   11    1     17.00      0.00
   15   11    1     19.73      0.00
   17   11    1     26.57      0.00
   19   11    1      7.09      0.00
   21   11    1      4.94      0.00
   23   11    1     -0.11      0.00
   25   11    1     -0.84      0.00
   27   11    1     10.52      0.00
   29   11    1      8.54      0.00
   31   11    1      9.26      0.00
   33   11    1      7.51      0.00
   35   11    1      4.77      0.00
   37   11    1      6.78      0.00
   39   11    1      1.34      0.00
   41   11    1      4.16      0.00
   43   11    1     -2.06      0.00
   45   11    1      6.71      0.00
   47   11    1      1.98      0.00
   49   11    1      2.99      0.00
   51   11    1      2.21      0.00
   53   11    1     -0.08      0.00
   55   11    1      2.66      0.00
    0   12    1    -14.04      0.00
    2   12    1    -13.53      0.00
    4   12    1    -15.74      0.00
    6   12    1    -12.84      0.00
    8   12    1    -13.53      0.00
   10   12    1    -10.66      0.00
   12   12    1     -6.53      0.00
   14   12    1    -11.84      0.00
   16   12    1     -5.42      0.00
   18   12    1    -11.40      0.00
   20   12    1     -4.48      0.00
   22   12    1     -5.03      0.00
   24   12    1     -3.76      0.00
   26   12    1     -4.35      0.00
   28   12    1     -5.50      0.00
   30   12    1     -5.35      0.00
   32   12    1     -4.10      0.00
   34   12    1     -5.89      0.00
   36   12    1     -3.60      0.00
   38   12    1     -5.10      0.00
   40   12    1     -1.66      0.00
   42   12    1     -1.76      0.00
   44   12    1     -2.83      0.00
   46   12    1     -3.78      0.00
   48   12    1     -5.79      0.00
   50   12    1     -5.35      0.00
   52   12    1     -4.23      0.00
    1   13    1     -4.88      0.00
    3   13    1      5.42      0.00
    5   13    1     -2.13      0.00
    7   13    1      7.42      0.00
    9   13    1     -5.97      0.00
   11   13    1      0.86      0.00
   13   13    1     -3.20      0.00
   15   13    1      6.02      0.00
   17   13    1     -2.50      0.00
   19   13    1      3.31      0.00
   21   13    1    -10.07      0.00
   23   13    1     -2.71      0.00
   25   13    1     -7.19      0.00
   27   13    1      2.55      0.00
   29   13    1      1.44      0.00
   31   13    1      3.83      0.00
   33   13    1     -5.15      0.00
   35   13    1     -1.98      0.00
   37   13    1    -10.05      0.00
   39   13    1     -1.70      0.00
   41   13    1      0.06      0.00
   43   13    1      1.80      0.00
   45   13    1      9.12      0.00
   47   13    1      0.61      0.00
   49   13    1      3.58      0.00
   51   13    1      2.30      0.00
    0   14    1     -0.14      0.00
    2   14    1     -0.81      0.00
    4   14    1     -4.26      0.00
    6   14    1     -6.78      0.00
    8   14    1     -3.96      0.00
   10   14    1     -3.97      0.00
   12   14    1     -2.81      0.00
   14   14    1     -6.45      0.00
   16   14    1     -6.75      0.00
   18   14    1     -7.18      0.00
   20   14    1     -2.53      0.00
   22   14    1     -1.58      0.00
   24   14    1     -0.91      0.00
   26   14    1     -2.11      0.00
   28   14    1     -3.93      0.00
   30   14    1     -3.46      0.00
   32   14    1     -4.99      0.00
   34   14    1     -3.94      0.00
   36   14    1     -4.02      0.00
   38   14    1     -3.47      0.00
   40   14    1     -2.43      0.00
   42   14    1     -5.00      0.00
   44   14    1     -3.31      0.00
   46   14    1     -4.73      0.00
   48   14    1     -2.28      0.00
   50   14    1     -2.78      0.00
    1   15    1      2.18      0.00
    3   15    1     -1.07      0.00
    5   15    1      7.51      0.00
    7   15    1      2.22      0.00
    9   15    1      6.29      0.00
   11   15    1      6.43      0.00
   13   15    1     -0.24      0.00
   15   15    1      3.01      0.00
   17   15    1     -6.01      0.00
   19   15    1     -0.56      0.00
   21   15    1     -2.20      0.00
   23   15    1     -1.27      0.00
   25   15    1      1.91      0.00
   27   15    1     -0.08      0.00
   29   15    1      2.37      0.00
   31   15    1      0.20      0.00
   33   15    1     -1.29      0.00
   35   15    1     -1.37      0.00
   37   15    1      1.00      0.00
   39   15    1      0.59      0.00
   41   15    1      4.18      0.00
   43   15    1      3.66      0.00
   45   15    1      4.01      0.00
   47   15    1      4.34      0.00
    0   16    1     -5.88      0.00
    2   16    1     -4.67      0.00
    4   16    1     -4.95      0.00
    6   16    1     -4.29      0.00
    8   16    1     -3.10      0.00
   10   16    1     -5.17      0.00
   12   16    1     -4.04      0.00
   14   16    1     -6.97      0.00
   16   16    1     -3.92      0.00
   18   16    1     -4.65      0.00
   20   16    1     -1.11      0.00
   22   16    1     -3.45      0.00
   24   16    1     -2.20      0.00
   26   16    1     -2.43      0.00
   28   16    1     -1.95      0.00
   30   16    1      1.55      0.00
   32   16    1     -2.63      0.00
   34   16    1      0.90      0.00
   36   16    1     -4.68      0.00
   38   16    1     -0.39      0.00
   40   16    1     -3.79      0.00
   42   16    1     -2.81      0.00
   44   16    1     -3.99      0.00
   46   16    1     -4.67      0.00
    1   17    1     -9.10      0.00
    3   17    1     -9.35      0.00
    5   17    1    -10.97      0.00
    7   17    1    -13.30      0.00
    9   17    1     -9.60      0.00
   11   17    1    -13.63      0.00
   13   17    1     -3.42      0.00
   15   17    1    -12.23      0.00
   17   17    1     -6.17      0.00
   19   17    1     -8.65      0.00
   21   17    1     -9.30      0.00
   23   17    1     -1.91      0.00
   25   17    1     -7.92      0.00
   27   17    1     -0.10      0.00
   29   17    1     -5.45      0.00
   31   17    1     -2.35      0.00
   33   17    1     -3.76      0.00
   35   17    1     -2.35      0.00
   37   17    1      1.57      0.00
   39   17    1     -3.28      0.00
   41   17    1      1.15      0.00
   43   17    1     -5.34      0.00
    0   18    1     -3.80      0.00
    2   18    1     -2.83      0.00
    4   18    1     -2.59      0.00
    6   18    1     -1.08      0.00
    8   18    1     -0.93      0.00
   10   18    1     -1.20      0.00
   12   18    1     -0.79      0.00
   14   18    1     -1.91      0.00
   16   18    1     -0.01      0.00
   18   18    1     -0.74      0.00
   20   18    1     -0.35      0.00
   22   18    1     -0.58      0.00
   24   18    1     -0.48      0.00
   26   18    1      0.63      0.00
   28   18    1      1.19      0.00
   30   18    1      0.17      0.00
   32   18    1     -0.76      0.00
   34   18    1     -1.87      0.00
   36   18    1     -2.27      0.00
   38   18    1     -1.10      0.00
   40   18    1     -2.34      0.00
    1   19    1      3.36      0.00
    3   19    1      4.11      0.00
    5   19    1      1.78      0.00
    7   19    1      0.92      0.00
    9   19    1      0.84      0.00
   11   19    1      0.84      0.00
   13   19    1      4.19      0.00
   15   19    1      2.12      0.00
   17   19    1      1.75      0.00
   19   19    1      0.64      0.00
   21   19    1     -0.84      0.00
   23   19    1      2.30      0.00
   25   19    1     -0.47      0.00
   27   19    1      3.33      0.00
   29   19    1     -1.50      0.00
   31   19    1     -2.41      0.00
   33   19    1     -3.17      0.00
   35   19    1     -2.03      0.00
   37   19    1      4.14      0.00
    0   20    1      8.32      0.00
    2   20    1      4.50      0.00
    4   20    1      5.77      0.00
    6   20    1      2.75      0.00
    8   20    1      3.57      0.00
   10   20    1      1.45      0.00
   12   20    1      1.60      0.00
   14   20    1      0.13      0.00
   16   20    1      2.59      0.00
   18   20    1      3.32      0.00
   20   20    1      3.90      0.00
   22   20    1      2.56      0.00
   24   20    1      0.93      0.00
   26   20    1     -0.56      0.00
   28   20    1      1.46      0.00
   30   20    1     -0.52      0.00
   32   20    1      2.70      0.00
   34   20    1     -0.24      0.00
    1   21    1     -0.04      0.00
    3   21    1     -4.31      0.00
    5   21    1     -0.26      0.00
    7   21    1     -3.66      0.00
    9   21    1      3.76      0.00
   11   21    1      4.77      0.00
   13   21    1     -0.37      0.00
   15   21    1      3.56      0.00
   17   21    1     -5.45      0.00
   19   21    1      5.42      0.00
   21   21    1     -1.36      0.00
   23   21    1      1.86      0.00
   25   21    1     -4.95      0.00
   27   21    1     -0.98      0.00
   29   21    1      0.12      0.00
    0   22    1     10.84      0.00
    2   22    1      7.93      0.00
    4   22    1      5.99      0.00
    6   22    1      3.07      0.00
    8   22    1      3.12      0.00
   10   22    1      4.72      0.00
   12   22    1      5.07      0.00
   14   22    1      5.28      0.00
   16   22    1      6.14      0.00
   18   22    1      1.25      0.00
   20   22    1      4.62      0.00
   22   22    1     -2.79      0.00
   24   22    1      3.26      0.00
    1   23    1     -0.96      0.00
    3   23    1     -1.31      0.00
    5   23    1     -8.20      0.00
    7   23    1      2.37      0.00
    9   23    1     -0.95      0.00
   11   23    1     10.77      0.00
   13   23    1      3.15      0.00
   15   23    1      1.62      0.00
   17   23    1      0.60      0.00
    2    0    2    -44.89      0.00
    4    0    2    547.11      0.00
    8    0    2    121.84      0.00
   10    0    2    112.46      0.00
   12    0    2    233.46      0.00
   16    0    2     48.38      0.00
   20    0    2     37.37      0.00
   22    0    2     41.89      0.00
   24    0    2     68.21      0.00
   26    0    2     32.30      0.00
   28    0    2     47.56      0.00
   30    0    2     11.90      0.00
   34    0    2     25.20      0.00
   36    0    2     68.09      0.00
   38    0    2      7.55      0.00
   40    0    2     24.00      0.00
   42    0    2     10.94      0.00
   44    0    2     24.96      0.00
   46    0    2      8.49      0.00
   48    0    2     22.05      0.00
   50    0    2     -2.88      0.00
   52    0    2     18.13      0.00
   54    0    2     -5.55      0.00
   56    0    2     10.01      0.00
   58    0    2     -3.68      0.00
   60    0    2      4.15      0.00
    1    1    2    166.28      0.00
    5    1    2    339.64      0.00
    7    1    2    225.06      0.00
    9    1    2    185.71      0.00
   11    1    2    -10.57      0.00
   13    1    2    -50.03      0.00
   15    1    2    -71.35      0.00
   17    1    2    -14.41      0.00
   19    1    2     -0.67      0.00
   21    1    2     -4.88      0.00
   23    1    2    -30.10      0.00
   25    1    2    -33.60      0.00
   27    1    2    -22.93      0.00
   29    1    2     10.15      0.00
   31    1    2     12.07      0.00
   33    1    2     29.48      0.00
   35    1    2      9.55      0.00
   37    1    2     20.64      0.00
   39    1    2     11.98      0.00
   41    1    2     17.01      0.00
   43    1    2     14.29      0.00
   45    1    2      6.22      0.00
   47    1    2      3.24      0.00
   49    1    2     -2.63      0.00
   51    1    2     -1.07      0.00
   53    1    2     -0.45      0.00
   55    1    2     -0.11      0.00
   57    1    2      0.25      0.00
   59    1    2     -1.48      0.00
   61    1    2     -0.48      0.00
    2    2    2     12.83      0.00
    4    2    2    -61.40      0.00
    6    2    2   -151.60      0.00
   10    2    2     29.42      0.00
   12    2    2     83.33      0.00
   16    2    2    -77.30      0.00
   18    2    2    -39.32      0.00
   20    2    2    -29.92      0.00
   22    2    2     40.68      0.00
   24    2    2    -14.61      0.00
   26    2    2     -2.37      0.00
   28    2    2    -42.66      0.00
   30    2    2     -7.00      0.00
   32    2    2     -8.95      0.00
   34    2    2      9.27      0.00
   36    2    2      0.17      0.00
   38    2    2      0.54      0.00
   40    2    2     -4.33      0.00
   42    2    2      7.25      0.00
   44    2    2     -2.63      0.00
   46    2    2      6.81      0.00
   48    2    2     -8.45      0.00
   50    2    2      0.51      0.00
   52    2    2     -7.48      0.00
   54    2    2     -2.48      0.00
   56    2    2     -8.76      0.00
   58    2    2     -2.97      0.00
   60    2    2     -3.68      0.00
    1    3    2     32.47      0.00
    3    3    2    127.94      0.00
    5    3    2    165.71      0.00
    9    3    2    102.73      0.00
   11    3    2     33.14      0.00
   13    3    2    -42.05      0.00
   15    3    2      4.13      0.00
   17    3    2     25.34      0.00
   19    3    2     86.18      0.00
   21    3    2     39.60      0.00
   23    3    2     21.79      0.00
   25    3    2    -22.73      0.00
   27    3    2     -9.03      0.00
   29    3    2      4.35      0.00
   31    3    2     21.70      0.00
   33    3    2     11.71      0.00
   35    3    2      8.09      0.00
   37    3    2     -7.53      0.00
   39    3    2      7.27      0.00
   41    3    2      1.25      0.00
   43    3    2     11.55      0.00
   45    3    2      1.03      0.00
   47    3    2      1.70      0.00
   49    3    2     -1.11      0.00
   51    3    2      0.69      0.00
   53    3    2      3.87      0.00
   55    3    2      1.83      0.00
   57    3    2      1.46      0.00
   59    3    2     -3.15      0.00
   61    3    2     -0.34      0.00
    0    4    2     -3.58      0.00
    2    4    2     96.66      0.00
    4    4    2     60.68      0.00
    6    4    2     66.03      0.00
    8    4    2    192.65      0.00
   10    4    2     33.92      0.00
   12    4    2     99.50      0.00
   14    4    2    -34.15      0.00
   16    4    2    -11.22      0.00
   18    4    2     63.12      0.00
   20    4    2     38.44      0.00
   22    4    2     91.36      0.00
   24    4    2     21.23      0.00
   26    4    2     19.43      0.00
   28    4    2      7.78      0.00
   30    4    2     15.96      0.00
   32    4    2     18.07      0.00
   34    4    2     21.36      0.00
   36    4    2      7.48      0.00
   38    4    2      7.16      0.00
   40    4    2      2.27      0.00
   42    4    2      8.53      0.00
   44    4    2      2.48      0.00
   46    4    2      5.88      0.00
   48    4    2     -7.18      0.00
   50    4    2      4.01      0.00
   52    4    2      2.04      0.00
   54    4    2      8.42      0.00
   56    4    2      6.07      0.00
   58    4    2      2.99      0.00
   60    4    2      0.88      0.00
    1    5    2    -21.39      0.00
    3    5    2    -12.59      0.00
    5    5    2    -40.95      0.00
    7    5    2     -6.35      0.00
    9    5    2    -41.23      0.00
   11    5    2      6.04      0.00
   13    5    2    -24.08      0.00
   15    5    2     14.61      0.00
   17    5    2      1.56      0.00
   19    5    2     22.54      0.00
   21    5    2      6.47      0.00
   23    5    2      6.88      0.00
   25    5    2    -14.98      0.00
   27    5    2      3.30      0.00
   29    5    2     -9.84      0.00
   31    5    2     18.09      0.00
   33    5    2     -5.00      0.00
   35    5    2      8.31      0.00
   37    5    2     -8.46      0.00
   39    5    2      0.74      0.00
   41    5    2     -1.92      0.00
   43    5    2      2.47      0.00
   45    5    2      2.12      0.00
   47    5    2      0.04      0.00
   49    5    2     -2.66      0.00
   51    5    2     -6.57      0.00
   53    5    2     -3.98      0.00
   55    5    2     -2.74      0.00
   57    5    2      1.42      0.00
   59    5    2      0.10      0.00
    0    6    2     46.33      0.00
    2    6    2    -59.24      0.00
    4    6    2    -11.67      0.00
    6    6    2    -52.73      0.00
    8    6    2    -42.55      0.00
   10    6    2      7.82      0.00
   12    6    2    -47.73      0.00
   14    6    2     13.41      0.00
   16    6    2    -42.60      0.00
   18    6    2     26.45      0.00
   20    6    2    -14.94      0.00
   22    6    2     18.22      0.00
   24    6    2    -20.66      0.00
   26    6    2    -10.19      0.00
   28    6    2    -19.54      0.00
   30    6    2    -13.61      0.00
   32    6    2     -6.98      0.00
   34    6    2     -8.98      0.00
   36    6    2    -10.69      0.00
   38    6    2    -17.71      0.00
   40    6    2     -8.92      0.00
   42    6    2     -7.47      0.00
   44    6    2      5.29      0.00
   46    6    2     -2.45      0.00
   48    6    2     -3.83      0.00
   50    6    2     -3.09      0.00
   52    6    2     -3.60      0.00
   54    6    2      1.81      0.00
   56    6    2      0.56      0.00
   58    6    2      0.40      0.00
    1    7    2     -8.46      0.00
    3    7    2     -6.92      0.00
    5    7    2      7.82      0.00
    7    7    2     14.29      0.00
    9    7    2     -1.77      0.00
   11    7    2     25.88      0.00
   13    7    2    -11.84      0.00
   15    7    2     28.06      0.00
   17    7    2     -8.26      0.00
   19    7    2     13.97      0.00
   21    7    2    -12.37      0.00
   23    7    2      1.75      0.00
   25    7    2     -7.52      0.00
   27    7    2     10.80      0.00
   29    7    2      3.44      0.00
   31    7    2      8.40      0.00
   33    7    2     -0.32      0.00
   35    7    2     -1.53      0.00
   37    7    2      0.87      0.00
   39    7    2     -0.69      0.00
   41    7    2     -0.53      0.00
   43    7    2     -1.88      0.00
   45    7    2     -4.02      0.00
   47    7    2     -2.70      0.00
   49    7    2     -5.60      0.00
   51    7    2     -3.55      0.00
   53    7    2     -1.79      0.00
   55    7    2      4.34      0.00
   57    7    2      3.97      0.00
   59    7    2      4.40      0.00
    0    8    2    102.19      0.00
    2    8    2     35.03      0.00
    4    8    2     49.66      0.00
    6    8    2     15.37      0.00
    8    8    2     26.93      0.00
   10    8    2     59.98      0.00
   12    8    2     45.25      0.00
   14    8    2     63.00      0.00
   16    8    2     34.32      0.00
   18    8    2     36.96      0.00
   20    8    2     21.08      0.00
   22    8    2     23.41      0.00
   24    8    2     13.04      0.00
   26    8    2     21.05      0.00
   28    8    2     13.83      0.00
   30    8    2     22.15      0.00
   32    8    2     19.13      0.00
   34    8    2     19.19      0.00
   36    8    2     13.68      0.00
   38    8    2     10.58      0.00
   40    8    2     10.92      0.00
   42    8    2     12.82      0.00
   44    8    2     11.68      0.00
   46    8    2      7.42      0.00
   48    8    2      6.91      0.00
   50    8    2      6.99      0.00
   52    8    2      8.13      0.00
   54    8    2      3.01      0.00
   56    8    2     -0.54      0.00
   58    8    2     -4.26      0.00
    1    9    2    -17.10      0.00
    3    9    2     -7.86      0.00
    5    9    2    -10.54      0.00
    7    9    2      1.09      0.00
    9    9    2     10.14      0.00
   11    9    2     -1.60      0.00
   13    9    2      7.13      0.00
   15    9    2     -8.28      0.00
   17    9    2     -3.04      0.00
   19    9    2      0.50      0.00
   21    9    2     -3.09      0.00
   23    9    2      2.99      0.00
   25    9    2     -0.90      0.00
   27    9    2      0.07      0.00
   29    9    2      6.14      0.00
   31    9    2     -3.87      0.00
   33    9    2      2.69      0.00
   35    9    2     -4.34      0.00
   37    9    2     -2.23      0.00
   39    9    2      0.38      0.00
   41    9    2     -5.17      0.00
   43    9    2      0.82      0.00
   45    9    2     -2.51      0.00
   47    9    2      2.52      0.00
   49    9    2     -0.44      0.00
   51    9    2      1.47      0.00
   53    9    2      1.05      0.00
   55    9    2      3.76      0.00
   57    9    2      2.38      0.00
    0   10    2     28.91      0.00
    2   10    2    -18.13      0.00
    4   10    2     10.89      0.00
    6   10    2    -22.46      0.00
    8   10    2      8.95      0.00
   10   10    2     -6.85      0.00
   12   10    2      7.02      0.00
   14   10    2    -14.35      0.00
   16   10    2     -7.35      0.00
   18   10    2    -10.70      0.00
   20   10    2     -3.16      0.00
   22   10    2      2.62      0.00
   24   10    2      2.08      0.00
   26   10    2      2.23      0.00
   28   10    2      7.42      0.00
   30   10    2     -1.97      0.00
   32   10    2     11.81      0.00
   34   10    2     -7.86      0.00
   36   10    2      3.98      0.00
   38   10    2     -7.77      0.00
   40   10    2      2.30      0.00
   42   10    2     -1.00      0.00
   44   10    2      0.27      0.00
   46   10    2     -7.28      0.00
   48   10    2      0.11      0.00
   50   10    2     -3.90      0.00
   52   10    2      6.92      0.00
   54   10    2     -0.79      0.00
   56   10    2      3.63      0.00
    1   11    2     12.72      0.00
    3   11    2      5.36      0.00
    5   11    2      5.47      0.00
    7   11    2     -2.14      0.00
    9   11    2     -1.23      0.00
   11   11    2     -5.86      0.00
   13   11    2     -8.88      0.00
   15   11    2    -11.15      0.00
   17   11    2     -9.96      0.00
   19   11    2     -5.00      0.00
   21   11    2     -3.56      0.00
   23   11    2     -0.21      0.00
   25   11    2     -2.18      0.00
   27   11    2      0.51      0.00
   29   11    2     -3.93      0.00
   31   11    2     -0.08      0.00
   33   11    2     -1.29      0.00
   35   11    2      0.24      0.00
   37   11    2      6.48      0.00
   39   11    2     -0.42      0.00
   41   11    2      4.59      0.00
   43   11    2      0.16      0.00
   45   11    2      2.04      0.00
   47   11    2      2.48      0.00
   49   11    2     -0.59      0.00
   51   11    2     -2.15      0.00
   53   11    2     -2.32      0.00
   55   11    2     -2.36      0.00
    0   12    2     15.01      0.00
    2   12    2     12.61      0.00
    4   12    2     12.13      0.00
    6   12    2      9.79      0.00
    8   12    2     21.43      0.00
   10   12    2     18.29      0.00
   12   12    2     19.66      0.00
   14   12    2     15.91      0.00
   16   12    2      7.18      0.00
   18   12    2     23.20      0.00
   20   12    2     10.18      0.00
   22   12    2     25.64      0.00
   24   12    2      8.24      0.00
   26   12    2      7.36      0.00
   28   12    2     -0.49      0.00
   30   12    2      0.13      0.00
   32   12    2     -0.03      0.00
   34   12    2      7.42      0.00
   36   12    2      5.95      0.00
   38   12    2      9.58      0.00
   40   12    2     11.53      0.00
   42   12    2      6.90      0.00
   44   12    2      5.93      0.00
   46   12    2      5.19      0.00
   48   12    2      0.65      0.00
   50   12    2      6.00      0.00
   52   12    2      0.08      0.00
    1   13    2      6.87      0.00
    3   13    2      6.53      0.00
    5   13    2      9.15      0.00
    7   13    2      1.24      0.00
    9   13    2     -4.53      0.00
   11   13    2     -8.59      0.00
   13   13    2     -7.37      0.00
   15   13    2     -1.54      0.00
   17   13    2      2.91      0.00
   19   13    2     -2.14      0.00
   21   13    2     -4.83      0.00
   23   13    2     -8.89      0.00
   25   13    2     -9.02      0.00
   27   13    2     -3.44      0.00
   29   13    2     -3.80      0.00
   31   13    2     -1.88      0.00
   33   13    2     -3.52      0.00
   35   13    2     -4.57      0.00
   37   13    2     -4.82      0.00
   39   13    2     -7.82      0.00
   41   13    2     -2.91      0.00
   43   13    2     -6.43      0.00
   45   13    2      1.76      0.00
   47   13    2     -1.74      0.00
   49   13    2      1.24      0.00
   51   13    2      0.24      0.00
    0   14    2      0.39      0.00
    2   14    2     -5.99      0.00
    4   14    2     -7.73      0.00
    6   14    2    -13.44      0.00
    8   14    2    -13.04      0.00
   10   14    2    -10.55      0.00
   12   14    2    -13.15      0.00
   14   14    2    -11.43      0.00
   16   14    2    -12.97      0.00
   18   14    2    -14.89      0.00
   20   14    2     -7.67      0.00
   22   14    2    -11.65      0.00
   24   14    2     -4.33      0.00
   26   14    2     -6.31      0.00
   28   14    2     -8.23      0.00
   30   14    2     -3.77      0.00
   32   14    2     -8.37      0.00
   34   14    2     -1.40      0.00
   36   14    2     -5.29      0.00
   38   14    2     -3.54      0.00
   40   14    2     -6.40      0.00
   42   14    2     -7.96      0.00
   44   14    2     -8.21      0.00
   46   14    2     -6.31      0.00
   48   14    2     -4.30      0.00
   50   14    2     -1.65      0.00
    1   15    2      5.56      0.00
    3   15    2      7.43      0.00
    5   15    2      7.90      0.00
    7   15    2      6.01      0.00
    9   15    2      6.53      0.00
   11   15    2      3.26      0.00
   13   15    2      6.53      0.00
   15   15    2      7.46      0.00
   17   15    2      1.48      0.00
   19   15    2      3.53      0.00
   21   15    2     -4.47      0.00
   23   15    2      1.31      0.00
   25   15    2      1.21      0.00
   27   15    2      3.20      0.00
   29   15    2      2.79      0.00
   31   15    2      1.36      0.00
   33   15    2      1.19      0.00
   35   15    2     -0.51      0.00
   37   15    2     -1.89      0.00
   39   15    2     -2.38      0.00
   41   15    2     -2.23      0.00
   43   15    2     -0.29      0.00
   45   15    2     -0.31      0.00
   47   15    2     -4.15      0.00
    0   16    2      5.38      0.00
    2   16    2     -7.97      0.00
    4   16    2      4.14      0.00
    6   16    2     -3.02      0.00
    8   16    2      4.31      0.00
   10   16    2      1.83      0.00
   12   16    2      5.14      0.00
   14   16    2      4.49      0.00
   16   16    2      6.93      0.00
   18   16    2      6.35      0.00
   20   16    2      5.98      0.00
   22   16    2      3.09      0.00
   24   16    2      3.44      0.00
   26   16    2      0.06      0.00
   28   16    2      0.99      0.00
   30   16    2     -0.46      0.00
   32   16    2     -0.38      0.00
   34   16    2     -0.19      0.00
   36   16    2     -0.64      0.00
   38   16    2      1.37      0.00
   40   16    2     -0.57      0.00
   42   16    2      4.11      0.00
   44   16    2     -1.28      0.00
   46   16    2      2.35      0.00
    1   17    2     -2.93      0.00
    3   17    2     -4.15      0.00
    5   17    2     -2.64      0.00
    7   17    2     -3.62      0.00
    9   17    2     -2.01      0.00
   11   17    2     -0.70      0.00
   13   17    2     -1.13      0.00
   15   17    2     -0.26      0.00
   17   17    2     -2.04      0.00
   19   17    2     -0.53      0.00
   21   17    2     -0.55      0.00
   23   17    2      1.89      0.00
   25   17    2      2.24      0.00
   27   17    2     -0.68      0.00
   29   17    2      1.60      0.00
   31   17    2     -4.09      0.00
   33   17    2      1.96      0.00
   35   17    2     -2.76      0.00
   37   17    2      0.32      0.00
   39   17    2     -2.91      0.00
   41   17    2     -2.45      0.00
   43   17    2     -1.69      0.00
    0   18    2    -14.67      0.00
    2   18    2     -6.98      0.00
    4   18    2     -9.51      0.00
    6   18    2     -7.51      0.00
    8   18    2     -2.64      0.00
   10   18    2    -11.22      0.00
   12   18    2     -4.92      0.00
   14   18    2    -11.11      0.00
   16   18    2     -6.49      0.00
   18   18    2     -5.83      0.00
   20   18    2     -6.28      0.00
   22   18    2     -6.43      0.00
   24   18    2     -5.50      0.00
   26   18    2     -6.96      0.00
   28   18    2     -2.64      0.00
   30   18    2     -4.29      0.00
   32   18    2     -1.23      0.00
   34   18    2     -4.73      0.00
   36   18    2     -3.72      0.00
   38   18    2     -6.21      0.00
   40   18    2     -1.80      0.00
    1   19    2     -1.27      0.00
    3   19    2     -3.20      0.00
    5   19    2     -2.90      0.00
    7   19    2     -4.47      0.00
    9   19    2     -1.82      0.00
   11   19    2      0.46      0.00
   13   19    2      2.53      0.00
   15   19    2      2.70      0.00
   17   19    2      1.78      0.00
   19   19    2      2.61      0.00
   21   19    2      1.95      0.00
   23   19    2      6.29      0.00
   25   19    2      0.89      0.00
   27   19    2      4.67      0.00
   29   19    2     -1.57      0.00
   31   19    2      0.43      0.00
   33   19    2      0.58      0.00
   35   19    2     -2.83      0.00
   37   19    2      1.67      0.00
    0   20    2      0.48      0.00
    2   20    2     -3.42      0.00
    4   20    2      3.06      0.00
    6   20    2      2.37      0.00
    8   20    2      1.36      0.00
   10   20    2      1.84      0.00
   12   20    2     -1.42      0.00
   14   20    2      2.04      0.00
   16   20    2      4.67      0.00
   18   20    2      1.64      0.00
   20   20    2      5.59      0.00
   22   20    2     -0.49      0.00
   24   20    2      5.18      0.00
   26   20    2     -0.57      0.00
   28   20    2      3.81      0.00
   30   20    2     -2.62      0.00
   32   20    2      2.99      0.00
   34   20    2     -0.14      0.00
    1   21    2     -1.37      0.00
    3   21    2     -1.29      0.00
    5   21    2      6.42      0.00
    7   21    2      1.48      0.00
    9   21    2      6.57      0.00
   11   21    2      2.33      0.00
   13   21    2      4.64      0.00
   15   21    2      5.15      0.00
   17   21    2      3.30      0.00
   19   21    2      4.32      0.00
   21   21    2      2.69      0.00
   23   21    2      2.10      0.00
   25   21    2      2.26      0.00
   27   21    2     -1.95      0.00
   29   21    2     -0.01      0.00
    0   22    2     -4.76      0.00
    2   22    2     -1.26      0.00
    4   22    2     -1.95      0.00
    6   22    2      1.43      0.00
    8   22    2     -5.20      0.00
   10   22    2     -5.53      0.00
   12   22    2     -7.48      0.00
   14   22    2     -3.39      0.00
   16   22    2      0.11      0.00
   18   22    2     -1.00      0.00
   20   22    2     -0.91      0.00
   22   22    2     -2.50      0.00
   24   22    2      1.86      0.00
    1   23    2      0.76      0.00
    3   23    2      2.03      0.00
    5   23    2      4.03      0.00
    7   23    2      4.52      0.00
    9   23    2      1.95      0.00
   11   23    2      1.37      0.00
   13   23    2     -7.43      0.00
   15   23    2     -4.79      0.00
   17   23    2    -11.93      0.00
    1    1    3   -121.72      0.00
    3    1    3   -133.02      0.00
    5    1    3    188.14      0.00
    7    1    3    -13.86      0.00
    9    1    3    107.13      0.00
   11    1    3    -42.80      0.00
   13    1    3      0.76      0.00
   15    1    3     59.82      0.00
   17    1    3     44.18      0.00
   19    1    3     36.34      0.00
   21    1    3      8.79      0.00
   23    1    3      4.80      0.00
   25    1    3     34.74      0.00
   27    1    3     46.20      0.00
   29    1    3     30.11      0.00
   31    1    3      6.33      0.00
   33    1    3      2.86      0.00
   35    1    3    -11.47      0.00
   37    1    3     26.12      0.00
   39    1    3      6.86      0.00
   41    1    3     21.87      0.00
   43    1    3      1.49      0.00
   45    1    3      2.35      0.00
   47    1    3      0.64      0.00
   49    1    3      3.23      0.00
   51    1    3     -0.79      0.00
   53    1    3      4.82      0.00
   55    1    3     -3.53      0.00
   57    1    3      7.08      0.00
   59    1    3     -2.12      0.00
   61    1    3      5.19      0.00
    0    2    3    268.11      0.00
    2    2    3     25.93      0.00
    4    2    3     -0.53      0.00
    6    2    3   -217.29      0.00
   12    2    3    100.11      0.00
   14    2    3    121.04      0.00
   16    2    3     61.87      0.00
   18    2    3     -8.95      0.00
   20    2    3    -24.68      0.00
   22    2    3     -7.70      0.00
   24    2    3     31.00      0.00
   26    2    3     20.10      0.00
   28    2    3      2.03      0.00
   30    2    3    -20.88      0.00
   32    2    3    -28.52      0.00
   34    2    3     -1.65      0.00
   36    2    3    -11.22      0.00
   38    2    3      8.02      0.00
   40    2    3    -21.42      0.00
   42    2    3    -11.28      0.00
   44    2    3    -16.93      0.00
   46    2    3     -4.96      0.00
   48    2    3      3.15      0.00
   50    2    3      1.45      0.00
   52    2    3      2.32      0.00
   54    2    3     -4.61      0.00
   56    2    3     -2.01      0.00
   58    2    3     -1.86      0.00
   60    2    3      0.13      0.00
    1    3    3     83.20      0.00
    3    3    3    218.29      0.00
    5    3    3    -31.70      0.00
    7    3    3    170.41      0.00
    9    3    3   -110.26      0.00
   11    3    3     57.24      0.00
   13    3    3     -3.66      0.00
   15    3    3     83.97      0.00
   17    3    3     35.77      0.00
   19    3    3     34.53      0.00
   21    3    3    -36.51      0.00
   23    3    3     14.35      0.00
   25    3    3      1.62      0.00
   27    3    3     35.51      0.00
   29    3    3     22.76      0.00
   31    3    3     13.91      0.00
   33    3    3      1.47      0.00
   35    3    3      9.24      0.00
   37    3    3      1.71      0.00
   39    3    3     11.25      0.00
   41    3    3      2.37      0.00
   43    3    3      2.63      0.00
   45    3    3      0.25      0.00
   47    3    3      4.68      0.00
   49    3    3     -0.26      0.00
   51    3    3      4.04      0.00
   53    3    3     -3.32      0.00
   55    3    3      1.96      0.00
   57    3    3      1.20      0.00
   59    3    3      5.04      0.00
   61    3    3      3.48      0.00
    0    4    3    -15.66      0.00
    2    4    3     12.51      0.00
    4    4    3    -43.75      0.00
    6    4    3    -75.89      0.00
    8    4    3     -8.10      0.00
   12    4    3     77.64      0.00
   14    4    3     25.93      0.00
   16    4    3     46.34      0.00
   18    4    3    -18.41      0.00
   20    4    3     -2.68      0.00
   22    4    3    -12.14      0.00
   24    4    3     14.08      0.00
   26    4    3     10.35      0.00
   28    4    3     -9.34      0.00
   30    4    3    -12.85      0.00
   32    4    3    -27.90      0.00
   34    4    3     -4.02      0.00
   36    4    3     -3.25      0.00
   38    4    3      2.72      0.00
   40    4    3     -0.63      0.00
   42    4    3     -9.54      0.00
   44    4    3     -2.96      0.00
   46    4    3     -4.93      0.00
   48    4    3      5.83      0.00
   50    4    3      3.20      0.00
   52    4    3      5.49      0.00
   54    4    3     -1.44      0.00
   56    4    3     -0.93      0.00
   58    4    3     -1.42      0.00
   60    4    3      1.42      0.00
    1    5    3     10.45      0.00
    3    5    3     26.90      0.00
    5    5    3    -28.24      0.00
    7    5    3      7.27      0.00
    9    5    3    -14.10      0.00
   11    5    3     29.45      0.00
   13    5    3     47.54      0.00
   15    5    3     51.32      0.00
   17    5    3     26.91      0.00
   19    5    3     26.23      0.00
   21    5    3    -10.04      0.00
   23    5    3     26.01      0.00
   25    5    3     -4.22      0.00
   27    5    3     17.15      0.00
   29    5    3     -0.95      0.00
   31    5    3     -3.99      0.00
   33    5    3     -3.96      0.00
   35    5    3     -3.92      0.00
   37    5    3     -3.00      0.00
   39    5    3      5.03      0.00
   41    5    3     -7.81      0.00
   43    5    3     -2.01      0.00
   45    5    3     -4.20      0.00
   47    5    3      6.35      0.00
   49    5    3      9.60      0.00
   51    5    3      8.56      0.00
   53    5    3      0.20      0.00
   55    5    3     -1.59      0.00
   57    5    3     -3.72      0.00
   59    5    3     -1.62      0.00
    0    6    3     44.21      0.00
    2    6    3     -0.52      0.00
    4    6    3     35.96      0.00
    6    6    3     25.76      0.00
    8    6    3     12.74      0.00
   10    6    3      4.97      0.00
   12    6    3     -9.01      0.00
   14    6    3    -35.86      0.00
   16    6    3    -13.93      0.00
   18    6    3    -37.82      0.00
   20    6    3    -14.61      0.00
   22    6    3    -13.55      0.00
   24    6    3    -17.77      0.00
   26    6    3     -4.38      0.00
   28    6    3    -21.46      0.00
   30    6    3     -9.91      0.00
   32    6    3     -5.95      0.00
   34    6    3     -1.69      0.00
   36    6    3      7.55      0.00
   38    6    3      5.54      0.00
   40    6    3      3.49      0.00
   42    6    3      6.86      0.00
   44    6    3     -1.24      0.00
   46    6    3      2.03      0.00
   48    6    3     -0.90      0.00
   50    6    3      3.10      0.00
   52    6    3      1.44      0.00
   54    6    3      0.22      0.00
   56    6    3     -5.18      0.00
   58    6    3     -3.24      0.00
    1    7    3     12.46      0.00
    3    7    3      7.44      0.00
    5    7    3     43.37      0.00
    7    7    3     18.31      0.00
    9    7    3      7.40      0.00
   11    7    3      9.39      0.00
   13    7    3    -27.95      0.00
   15    7    3     12.31      0.00
   17    7    3    -22.21      0.00
   19    7    3     10.98      0.00
   21    7    3     -3.58      0.00
   23    7    3      8.50      0.00
   25    7    3      9.12      0.00
   27    7    3      3.43      0.00
   29    7    3      9.24      0.00
   31    7    3     -1.66      0.00
   33    7    3      6.84      0.00
   35    7    3      1.98      0.00
   37    7    3      9.23      0.00
   39    7    3      4.38      0.00
   41    7    3      2.15      0.00
   43    7    3     -2.83      0.00
   45    7    3      2.62      0.00
   47    7    3      1.60      0.00
   49    7    3      6.63      0.00
   51    7    3     -0.90      0.00
   53    7    3     -0.41      0.00
   55    7    3      1.09      0.00
   57    7    3      2.69      0.00
   59    7    3      2.91      0.00
    0    8    3     18.43      0.00
    2    8    3     15.27      0.00
    4    8    3     17.68      0.00
    6    8    3      4.53      0.00
    8    8    3     13.77      0.00
   10    8    3     -2.38      0.00
   12    8    3      8.23      0.00
   14    8    3     -6.14      0.00
   16    8    3      6.05      0.00
   18    8    3     -7.43      0.00
   20    8    3     12.93      0.00
   22    8    3      0.64      0.00
   24    8    3     19.42      0.00
   26    8    3     -1.41      0.00
   28    8    3      5.92      0.00
   30    8    3     -5.00      0.00
   32    8    3     -3.51      0.00
   34    8    3      5.22      0.00
   36    8    3     -5.76      0.00
   38    8    3      6.91      0.00
   40    8    3     -1.81      0.00
   42    8    3      6.83      0.00
   44    8    3      1.82      0.00
   46    8    3      1.33      0.00
   48    8    3     -1.76      0.00
   50    8    3     -0.50      0.00
   52    8    3     -2.22      0.00
   54    8    3     -2.74      0.00
   56    8    3     -4.43      0.00
   58    8    3     -2.57      0.00
    1    9    3    -22.28      0.00
    3    9    3    -10.29      0.00
    5    9    3      8.42      0.00
    7    9    3     11.26      0.00
    9    9    3      2.75      0.00
   11    9    3      8.42      0.00
   13    9    3      3.76      0.00
   15    9    3     17.87      0.00
   17    9    3     20.12      0.00
   19    9    3     10.47      0.00
   21    9    3     19.87      0.00
   23    9    3      1.84      0.00
   25    9    3     13.67      0.00
   27    9    3     -0.59      0.00
   29    9    3      1.39      0.00
   31    9    3     -4.91      0.00
   33    9    3      1.86      0.00
   35    9    3      2.33      0.00
   37    9    3     11.32      0.00
   39    9    3      4.57      0.00
   41    9    3      4.53      0.00
   43    9    3      4.11      0.00
   45    9    3      4.28      0.00
   47    9    3     10.34      0.00
   49    9    3      2.37      0.00
   51    9    3      1.99      0.00
   53    9    3     -2.35      0.00
   55    9    3      1.40      0.00
   57    9    3      2.60      0.00
    0   10    3      3.92      0.00
    2   10    3      5.03      0.00
    4   10    3     13.61      0.00
    6   10    3      6.40      0.00
    8   10    3     13.81      0.00
   10   10    3      1.73      0.00
   12   10    3      4.43      0.00
   14   10    3     13.98      0.00
   16   10    3      3.39      0.00
   18   10    3     17.44      0.00
   20   10    3     -0.19      0.00
   22   10    3      8.77      0.00
   24   10    3      3.73      0.00
   26   10    3     10.66      0.00
   28   10    3      7.85      0.00
   30   10    3     13.55      0.00
   32   10    3      7.09      0.00
   34   10    3     12.17      0.00
   36   10    3      2.69      0.00
   38   10    3      9.36      0.00
   40   10    3      1.46      0.00
   42   10    3      6.58      0.00
   44   10    3      0.47      0.00
   46   10    3     -1.09      0.00
   48   10    3      1.28      0.00
   50   10    3      0.47      0.00
   52   10    3      3.88      0.00
   54   10    3      1.82      0.00
   56   10    3      0.08      0.00
    1   11    3     15.85      0.00
    3   11    3     18.46      0.00
    5   11    3     15.66      0.00
    7   11    3     15.34      0.00
    9   11    3      8.28      0.00
   11   11    3     11.86      0.00
   13   11    3     14.14      0.00
   15   11    3     13.04      0.00
   17   11    3     12.60      0.00
   19   11    3      4.86      0.00
   21   11    3      5.06      0.00
   23   11    3     11.91      0.00
   25   11    3     10.36      0.00
   27   11    3     19.47      0.00
   29   11    3     10.48      0.00
   31   11    3     13.47      0.00
   33   11    3      9.30      0.00
   35   11    3     10.30      0.00
   37   11    3      6.31      0.00
   39   11    3      2.52      0.00
   41   11    3     -1.41      0.00
   43   11    3     -1.11      0.00
   45   11    3      0.94      0.00
   47   11    3      1.61      0.00
   49   11    3     -0.93      0.00
   51   11    3     -0.17      0.00
   53   11    3     -1.08      0.00
    0   12    3     -9.60      0.00
    2   12    3     -8.27      0.00
    4   12    3    -11.04      0.00
    6   12    3     -3.63      0.00
    8   12    3     -6.51      0.00
   10   12    3     -1.25      0.00
   12   12    3      4.44      0.00
   14   12    3     -6.40      0.00
   16   12    3      7.28      0.00
   18   12    3     -6.33      0.00
   20   12    3      7.14      0.00
   22   12    3      5.25      0.00
   24   12    3      7.13      0.00
   26   12    3      7.49      0.00
   28   12    3      3.12      0.00
   30   12    3      2.84      0.00
   32   12    3      4.67      0.00
   34   12    3      1.27      0.00
   36   12    3      5.56      0.00
   38   12    3      0.80      0.00
   40   12    3      3.57      0.00
   42   12    3      2.34      0.00
   44   12    3     -0.86      0.00
   46   12    3     -0.39      0.00
   48   12    3     -2.81      0.00
   50   12    3     -2.23      0.00
   52   12    3     -0.67      0.00
    1   13    3    -20.52      0.00
    3   13    3    -13.99      0.00
    5   13    3    -14.93      0.00
    7   13    3     -7.94      0.00
    9   13    3    -12.28      0.00
   11   13    3     -7.65      0.00
   13   13    3     -6.43      0.00
   15   13    3     -0.53      0.00
   17   13    3     -3.88      0.00
   19   13    3      1.99      0.00
   21   13    3     -8.65      0.00
   23   13    3      0.39      0.00
   25   13    3     -7.10      0.00
   27   13    3     -1.15      0.00
   29   13    3     -4.63      0.00
   31   13    3     -3.64      0.00
   33   13    3     -7.69      0.00
   35   13    3     -2.97      0.00
   37   13    3     -9.40      0.00
   39   13    3     -1.71      0.00
   41   13    3     -3.66      0.00
   43   13    3     -0.45      0.00
   45   13    3      3.70      0.00
   47   13    3      0.67      0.00
   49   13    3      1.51      0.00
   51   13    3      1.60      0.00
    0   14    3      6.19      0.00
    2   14    3      5.51      0.00
    4   14    3      1.82      0.00
    6   14    3     -1.66      0.00
    8   14    3      4.05      0.00
   10   14    3      2.32      0.00
   12   14    3      5.16      0.00
   14   14    3     -0.74      0.00
   16   14    3      0.13      0.00
   18   14    3      0.19      0.00
   20   14    3      6.97      0.00
   22   14    3      8.52      0.00
   24   14    3      7.76      0.00
   26   14    3      5.62      0.00
   28   14    3     -0.68      0.00
   30   14    3      1.03      0.00
   32   14    3     -2.80      0.00
   34   14    3      1.09      0.00
   36   14    3      1.40      0.00
   38   14    3      1.18      0.00
   40   14    3      3.43      0.00
   42   14    3     -3.74      0.00
   44   14    3      0.18      0.00
   46   14    3     -3.52      0.00
   48   14    3      1.47      0.00
   50   14    3      1.00      0.00
    1   15    3      4.07      0.00
    3   15    3      5.75      0.00
    5   15    3     13.15      0.00
    7   15    3      9.28      0.00
    9   15    3      8.59      0.00
   11   15    3      5.20      0.00
   13   15    3      2.02      0.00
   15   15    3      8.76      0.00
   17   15    3      4.45      0.00
   19   15    3      8.97      0.00
   21   15    3      3.19      0.00
   23   15    3      1.22      0.00
   25   15    3     -0.84      0.00
   27   15    3     -2.22      0.00
   29   15    3     -1.88      0.00
   31   15    3     -0.26      0.00
   33   15    3     -1.77      0.00
   35   15    3     -1.34      0.00
   37   15    3     -1.97      0.00
   39   15    3     -2.43      0.00
   41   15    3      1.13      0.00
   43   15    3      1.28      0.00
   45   15    3      1.54      0.00
   47   15    3      1.30      0.00
    0   16    3      1.34      0.00
    2   16    3      1.94      0.00
    4   16    3      2.02      0.00
    6   16    3      0.64      0.00
    8   16    3      2.75      0.00
   10   16    3     -2.10      0.00
   12   16    3      0.58      0.00
   14   16    3     -4.41      0.00
   16   16    3      0.72      0.00
   18   16    3     -2.11      0.00
   20   16    3      3.31      0.00
   22   16    3     -1.84      0.00
   24   16    3     -0.30      0.00
   26   16    3     -2.47      0.00
   28   16    3     -3.70      0.00
   30   16    3      1.93      0.00
   32   16    3     -5.63      0.00
   34   16    3      3.08      0.00
   36   16    3     -7.90      0.00
   38   16    3      1.19      0.00
   40   16    3     -5.79      0.00
   42   16    3     -2.25      0.00
   44   16    3     -3.19      0.00
   46   16    3     -4.05      0.00
    1   17    3     -1.66      0.00
    3   17    3     -1.41      0.00
    5   17    3     -5.11      0.00
    7   17    3     -2.29      0.00
    9   17    3     -2.35      0.00
   11   17    3     -1.06      0.00
   13   17    3      1.78      0.00
   15   17    3     -3.01      0.00
   17   17    3     -1.96      0.00
   19   17    3     -2.54      0.00
   21   17    3     -3.61      0.00
   23   17    3      1.48      0.00
   25   17    3     -2.03      0.00
   27   17    3     -0.35      0.00
   29   17    3     -2.65      0.00
   31   17    3     -1.98      0.00
   33   17    3     -1.13      0.00
   35   17    3     -1.18      0.00
   37   17    3     -0.42      0.00
   39   17    3     -4.33      0.00
   41   17    3     -1.65      0.00
   43   17    3     -4.24      0.00
    0   18    3     -3.17      0.00
    2   18    3     -1.45      0.00
    4   18    3      0.74      0.00
    6   18    3      2.96      0.00
    8   18    3      3.15      0.00
   10   18    3      1.03      0.00
   12   18    3      2.16      0.00
   14   18    3     -0.36      0.00
   16   18    3      2.75      0.00
   18   18    3      0.03      0.00
   20   18    3     -0.58      0.00
   22   18    3     -1.74      0.00
   24   18    3     -3.27      0.00
   26   18    3     -2.12      0.00
   28   18    3     -2.08      0.00
   30   18    3     -2.90      0.00
   32   18    3     -3.06      0.00
   34   18    3     -4.13      0.00
   36   18    3     -5.23      0.00
   38   18    3     -1.81      0.00
   40   18    3     -4.14      0.00
    1   19    3      0.09      0.00
    3   19    3      0.02      0.00
    5   19    3     -3.21      0.00
    7   19    3      1.12      0.00
    9   19    3      2.01      0.00
   11   19    3      5.60      0.00
   13   19    3      3.69      0.00
   15   19    3      1.80      0.00
   17   19    3      0.28      0.00
   19   19    3      1.45      0.00
   21   19    3      2.12      0.00
   23   19    3      3.51      0.00
   25   19    3      0.96      0.00
   27   19    3      1.24      0.00
   29   19    3      0.78      0.00
   31   19    3      0.21      0.00
   33   19    3      2.00      0.00
   35   19    3     -0.93      0.00
   37   19    3      0.70      0.00
    0   20    3      3.72      0.00
    2   20    3      1.47      0.00
    4   20    3      3.37      0.00
    6   20    3      2.43      0.00
    8   20    3      0.07      0.00
   10   20    3     -2.58      0.00
   12   20    3     -2.77      0.00
   14   20    3     -5.25      0.00
   16   20    3     -0.91      0.00
   18   20    3     -3.00      0.00
   20   20    3     -1.02      0.00
   22   20    3     -2.45      0.00
   24   20    3     -0.85      0.00
   26   20    3     -2.60      0.00
   28   20    3      2.94      0.00
   30   20    3     -1.54      0.00
   32   20    3      5.54      0.00
   34   20    3     -0.03      0.00
    1   21    3     -2.06      0.00
    3   21    3     -8.19      0.00
    5   21    3     -5.03      0.00
    7   21    3    -10.67      0.00
    9   21    3     -0.88      0.00
   11   21    3      0.05      0.00
   13   21    3      0.56      0.00
   15   21    3      1.60      0.00
   17   21    3     -4.59      0.00
   19   21    3      0.16      0.00
   21   21    3     -2.21      0.00
   23   21    3      1.79      0.00
   25   21    3     -1.74      0.00
   27   21    3      1.40      0.00
   29   21    3     -1.09      0.00
    0   22    3      6.67      0.00
    2   22    3      1.97      0.00
    4   22    3      2.53      0.00
    6   22    3     -1.41      0.00
    8   22    3     -2.00      0.00
   10   22    3      1.38      0.00
   12   22    3      0.93      0.00
   14   22    3      4.09      0.00
   16   22    3      5.29      0.00
   18   22    3     -3.29      0.00
   20   22    3      4.94      0.00
   22   22    3     -7.78      0.00
   24   22    3      5.79      0.00
    1   23    3     -4.67      0.00
    3   23    3     -2.05      0.00
    5   23    3     -4.23      0.00
    7   23    3      3.11      0.00
    9   23    3     -1.20      0.00
   11   23    3      6.21      0.00
   13   23    3      1.82      0.00
   15   23    3      3.74      0.00
   17   23    3      2.39      0.00
    0    0    4    148.64      0.00
    2    0    4   -393.21      0.00
    4    0    4     86.54      0.00
    6    0    4   -190.25      0.00
    8    0    4     12.78      0.00
   10    0    4    -12.04      0.00
   12    0    4    -14.79      0.00
   14    0    4     -2.68      0.00
   16    0    4     34.66      0.00
   18    0    4     38.88      0.00
   20    0    4     95.27      0.00
   22    0    4     64.01      0.00
   24    0    4     35.44      0.00
   26    0    4     13.98      0.00
   28    0    4     24.48      0.00
   30    0    4     12.07      0.00
   32    0    4     53.03      0.00
   34    0    4     -6.73      0.00
   36    0    4      7.62      0.00
   38    0    4    -26.86      0.00
   40    0    4     -7.17      0.00
   42    0    4     -1.17      0.00
   44    0    4     13.60      0.00
   46    0    4      3.51      0.00
   48    0    4     10.46      0.00
   50    0    4     -8.05      0.00
   52    0    4      8.98      0.00
   54    0    4     -0.89      0.00
   56    0    4     12.81      0.00
   58    0    4      2.84      0.00
   60    0    4      5.36      0.00
    1    1    4    -74.60      0.00
    3    1    4    -53.89      0.00
    5    1    4    145.35      0.00
    7    1    4     66.28      0.00
    9    1    4    119.13      0.00
   11    1    4    -32.25      0.00
   13    1    4    -43.31      0.00
   15    1    4    -62.42      0.00
   17    1    4    -13.94      0.00
   19    1    4      4.76      0.00
   21    1    4     10.10      0.00
   23    1    4    -13.63      0.00
   25    1    4    -18.00      0.00
   27    1    4    -17.88      0.00
   29    1    4      8.63      0.00
   31    1    4      1.14      0.00
   33    1    4     16.61      0.00
   35    1    4     -7.23      0.00
   37    1    4      5.42      0.00
   39    1    4      3.26      0.00
   41    1    4      7.26      0.00
   43    1    4     11.28      0.00
   45    1    4     -0.18      0.00
   47    1    4      0.64      0.00
   49    1    4     -5.94      0.00
   51    1    4     -2.80      0.00
   53    1    4     -2.97      0.00
   55    1    4     -2.68      0.00
   57    1    4     -3.63      0.00
   59    1    4     -5.91      0.00
   61    1    4     -5.30      0.00
    0    2    4    -99.02      0.00
    2    2    4    -95.82      0.00
    4    2    4    -90.60      0.00
    6    2    4    -65.81      0.00
    8    2    4    -31.14      0.00
   10    2    4    -32.00      0.00
   12    2    4    -43.32      0.00
   14    2    4    -82.03      0.00
   16    2    4    -84.16      0.00
   18    2    4    -49.64      0.00
   20    2    4    -30.36      0.00
   22    2    4     -5.78      0.00
   24    2    4    -37.26      0.00
   26    2    4    -33.59      0.00
   28    2    4    -44.08      0.00
   30    2    4    -11.82      0.00
   32    2    4     -8.59      0.00
   34    2    4     -0.84      0.00
   36    2    4     -8.49      0.00
   38    2    4     -8.65      0.00
   40    2    4     -8.42      0.00
   42    2    4      2.49      0.00
   44    2    4     -5.73      0.00
   46    2    4      2.51      0.00
   48    2    4    -11.55      0.00
   50    2    4     -4.50      0.00
   52    2    4     -9.91      0.00
   54    2    4     -3.35      0.00
   56    2    4     -5.90      0.00
   58    2    4     -2.01      0.00
   60    2    4     -5.87      0.00
    1    3    4    -73.29      0.00
    3    3    4     38.81      0.00
    5    3    4     79.62      0.00
    7    3    4    150.82      0.00
    9    3    4     38.23      0.00
   11    3    4    -17.01      0.00
   13    3    4    -98.20      0.00
   15    3    4    -40.73      0.00
   17    3    4    -33.35      0.00
   19    3    4     49.95      0.00
   21    3    4     -1.82      0.00
   23    3    4     10.03      0.00
   25    3    4    -25.34      0.00
   27    3    4     -5.22      0.00
   29    3    4     15.54      0.00
   31    3    4     24.71      0.00
   33    3    4     18.00      0.00
   35    3    4     12.83      0.00
   37    3    4     -5.07      0.00
   39    3    4     15.07      0.00
   41    3    4      5.10      0.00
   43    3    4     21.77      0.00
   45    3    4      4.27      0.00
   47    3    4      3.55      0.00
   49    3    4     -5.54      0.00
   51    3    4     -2.95      0.00
   53    3    4      2.91      0.00
   55    3    4      6.13      0.00
   57    3    4      7.19      0.00
   59    3    4      2.75      0.00
   61    3    4      3.20      0.00
    0    4    4     18.71      0.00
    2    4    4    126.42      0.00
    4    4    4     65.57      0.00
    6    4    4     69.93      0.00
    8    4    4    110.93      0.00
   10    4    4      6.85      0.00
   12    4    4     52.57      0.00
   14    4    4     -8.42      0.00
   16    4    4     -0.72      0.00
   18    4    4     34.60      0.00
   20    4    4     14.73      0.00
   22    4    4     39.12      0.00
   24    4    4     15.08      0.00
   26    4    4      8.19      0.00
   28    4    4      7.74      0.00
   30    4    4     13.39      0.00
   32    4    4     10.66      0.00
   34    4    4     22.03      0.00
   36    4    4      7.05      0.00
   38    4    4     10.20      0.00
   40    4    4      4.20      0.00
   42    4    4      4.49      0.00
   44    4    4      4.16      0.00
   46    4    4      5.57      0.00
   48    4    4     -1.10      0.00
   50    4    4      4.97      0.00
   52    4    4      1.52      0.00
   54    4    4      7.06      0.00
   56    4    4      3.63      0.00
   58    4    4      1.14      0.00
   60    4    4     -2.84      0.00
    1    5    4     -9.79      0.00
    3    5    4      6.46      0.00
    5    5    4    -31.92      0.00
    7    5    4     10.30      0.00
    9    5    4    -43.63      0.00
   11    5    4     14.98      0.00
   13    5    4    -19.26      0.00
   15    5    4     26.01      0.00
   17    5    4     10.34      0.00
   19    5    4     18.61      0.00
   21    5    4      2.46      0.00
   23    5    4     -2.02      0.00
   25    5    4    -18.52      0.00
   27    5    4      2.59      0.00
   29    5    4    -16.63      0.00
   31    5    4     12.07      0.00
   33    5    4    -17.78      0.00
   35    5    4     -1.31      0.00
   37    5    4    -16.79      0.00
   39    5    4     -5.44      0.00
   41    5    4     -4.42      0.00
   43    5    4     -0.99      0.00
   45    5    4     -0.16      0.00
   47    5    4     -3.97      0.00
   49    5    4     -5.83      0.00
   51    5    4     -7.44      0.00
   53    5    4     -1.52      0.00
   55    5    4      0.57      0.00
   57    5    4      6.58      0.00
   59    5    4      2.62      0.00
    0    6    4    -30.24      0.00
    2    6    4    -59.61      0.00
    4    6    4    -34.60      0.00
    6    6    4    -44.28      0.00
    8    6    4    -59.79      0.00
   10    6    4    -36.53      0.00
   12    6    4    -62.39      0.00
   14    6    4     -3.65      0.00
   16    6    4    -28.41      0.00
   18    6    4     14.20      0.00
   20    6    4    -22.26      0.00
   22    6    4    -10.09      0.00
   24    6    4    -25.77      0.00
   26    6    4    -22.74      0.00
   28    6    4    -11.57      0.00
   30    6    4    -14.11      0.00
   32    6    4     -5.06      0.00
   34    6    4     -6.93      0.00
   36    6    4     -9.57      0.00
   38    6    4     -6.16      0.00
   40    6    4     -4.01      0.00
   42    6    4     -1.10      0.00
   44    6    4      4.19      0.00
   46    6    4     -2.48      0.00
   48    6    4     -3.50      0.00
   50    6    4     -2.80      0.00
   52    6    4     -4.43      0.00
   54    6    4      0.35      0.00
   56    6    4     -5.41      0.00
   58    6    4     -4.51      0.00
    1    7    4     26.88      0.00
    3    7    4     10.53      0.00
    5    7    4     10.86      0.00
    7    7    4     12.69      0.00
    9    7    4     -2.11      0.00
   11    7    4     50.32      0.00
   13    7    4     -1.75      0.00
   15    7    4     52.79      0.00
   17    7    4     -2.76      0.00
   19    7    4     25.77      0.00
   21    7    4     -1.22      0.00
   23    7    4     10.54      0.00
   25    7    4     -0.48      0.00
   27    7    4     14.31      0.00
   29    7    4      4.51      0.00
   31    7    4     10.11      0.00
   33    7    4      2.95      0.00
   35    7    4     -3.32      0.00
   37    7    4      4.48      0.00
   39    7    4     -4.49      0.00
   41    7    4      1.22      0.00
   43    7    4     -3.53      0.00
   45    7    4     -1.91      0.00
   47    7    4      0.12      0.00
   49    7    4     -1.35      0.00
   51    7    4     -1.57      0.00
   53    7    4     -0.73      0.00
   55    7    4      3.05      0.00
   57    7    4      3.06      0.00
    0    8    4     80.21      0.00
    2    8    4     47.19      0.00
    4    8    4     50.70      0.00
    6    8    4     34.90      0.00
    8    8    4     32.11      0.00
   10    8    4     43.42      0.00
   12    8    4     47.11      0.00
   14    8    4     36.10      0.00
   16    8    4     44.46      0.00
   18    8    4     19.91      0.00
   20    8    4     29.39      0.00
   22    8    4     10.29      0.00
   24    8    4     10.59      0.00
   26    8    4      5.31      0.00
   28    8    4      9.63      0.00
   30    8    4     13.40      0.00
   32    8    4     18.41      0.00
   34    8    4     11.40      0.00
   36    8    4     11.63      0.00
   38    8    4      6.99      0.00
   40    8    4      9.27      0.00
   42    8    4     11.83      0.00
   44    8    4      6.19      0.00
   46    8    4      5.50      0.00
   48    8    4      1.40      0.00
   50    8    4      5.28      0.00
   52    8    4      6.71      0.00
   54    8    4      2.18      0.00
   56    8    4     -0.08      0.00
   58    8    4     -7.73      0.00
    1    9    4     14.26      0.00
    3    9    4     18.71      0.00
    5    9    4      3.25      0.00
    7    9    4      7.47      0.00
    9    9    4     13.20      0.00
   11    9    4     -1.31      0.00
   13    9    4     15.40      0.00
   15    9    4     -6.98      0.00
   17    9    4     -1.88      0.00
   19    9    4     -0.02      0.00
   21    9    4     -6.36      0.00
   23    9    4      3.86      0.00
   25    9    4     -0.38      0.00
   27    9    4     -5.99      0.00
   29    9    4      6.52      0.00
   31    9    4    -11.81      0.00
   33    9    4      4.94      0.00
   35    9    4     -6.09      0.00
   37    9    4     -0.77      0.00
   39    9    4      0.55      0.00
   41    9    4     -5.35      0.00
   43    9    4      1.88      0.00
   45    9    4     -1.06      0.00
   47    9    4      3.17      0.00
   49    9    4     -0.31      0.00
   51    9    4     -0.48      0.00
   53    9    4     -0.84      0.00
   55    9    4      1.80      0.00
   57    9    4      1.13      0.00
    0   10    4      2.14      0.00
    2   10    4    -20.21      0.00
    4   10    4      3.33      0.00
    6   10    4    -10.63      0.00
    8   10    4     12.51      0.00
   10   10    4     -0.38      0.00
   12   10    4     12.31      0.00
   14   10    4     -9.96      0.00
   16   10    4      6.78      0.00
   18   10    4     -6.58      0.00
   20   10    4      8.37      0.00
   22   10    4      3.65      0.00
   24   10    4      0.69      0.00
   26   10    4      2.86      0.00
   28   10    4      1.98      0.00
   30   10    4      0.89      0.00
   32   10    4      0.54      0.00
   34   10    4    -10.91      0.00
   36   10    4     -9.23      0.00
   38   10    4    -10.76      0.00
   40   10    4     -4.24      0.00
   42   10    4     -3.26      0.00
   44   10    4     -5.16      0.00
   46   10    4     -6.97      0.00
   48   10    4     -4.71      0.00
   50   10    4     -0.61      0.00
   52   10    4      4.58      0.00
   54   10    4      2.52      0.00
   56   10    4      2.67      0.00
    1   11    4     22.41      0.00
    3   11    4     17.96      0.00
    5   11    4     16.37      0.00
    7   11    4     13.34      0.00
    9   11    4     13.77      0.00
   11   11    4     15.27      0.00
   13   11    4     11.51      0.00
   15   11    4     10.80      0.00
   17   11    4      6.81      0.00
   19   11    4      8.70      0.00
   21   11    4      8.34      0.00
   23   11    4      8.56      0.00
   25   11    4      5.20      0.00
   27   11    4      5.63      0.00
   29   11    4      0.89      0.00
   31   11    4      2.91      0.00
   33   11    4      3.09      0.00
   35   11    4      0.61      0.00
   37   11    4      9.11      0.00
   39   11    4      0.90      0.00
   41   11    4      7.34      0.00
   43   11    4      3.44      0.00
   45   11    4      2.74      0.00
   47   11    4      4.29      0.00
   49   11    4     -0.45      0.00
   51   11    4      1.22      0.00
   53   11    4      1.50      0.00
    0   12    4     12.59      0.00
    2   12    4      4.09      0.00
    4   12    4     19.14      0.00
    6   12    4     15.74      0.00
    8   12    4     23.51      0.00
   10   12    4     16.15      0.00
   12   12    4     14.46      0.00
   14   12    4     14.73      0.00
   16   12    4     10.49      0.00
   18   12    4     22.49      0.00
   20   12    4     12.31      0.00
   22   12    4     16.69      0.00
   24   12    4      5.87      0.00
   26   12    4      5.25      0.00
   28   12    4      3.99      0.00
   30   12    4      6.55      0.00
   32   12    4      4.31      0.00
   34   12    4      8.40      0.00
   36   12    4      5.73      0.00
   38   12    4     11.24      0.00
   40   12    4     10.39      0.00
   42   12    4      8.86      0.00
   44   12    4      4.86      0.00
   46   12    4      3.69      0.00
   48   12    4      1.01      0.00
   50   12    4      5.22      0.00
   52   12    4      1.78      0.00
    1   13    4      5.14      0.00
    3   13    4      1.05      0.00
    5   13    4      3.94      0.00
    7   13    4     -3.15      0.00
    9   13    4     -4.28      0.00
   11   13    4     -2.71      0.00
   13   13    4     -3.81      0.00
   15   13    4      0.81      0.00
   17   13    4      1.33      0.00
   19   13    4     -2.01      0.00
   21   13    4     -3.19      0.00
   23   13    4     -5.35      0.00
   25   13    4     -6.44      0.00
   27   13    4      1.08      0.00
   29   13    4      0.50      0.00
   31   13    4      6.38      0.00
   33   13    4      2.23      0.00
   35   13    4      2.04      0.00
   37   13    4      0.17      0.00
   39   13    4     -2.61      0.00
   41   13    4      2.36      0.00
   43   13    4     -2.98      0.00
   45   13    4      2.18      0.00
   47   13    4     -3.40      0.00
   49   13    4     -2.61      0.00
   51   13    4     -1.29      0.00
    0   14    4     -3.10      0.00
    2   14    4     -6.56      0.00
    4   14    4    -12.79      0.00
    6   14    4    -19.29      0.00
    8   14    4    -17.02      0.00
   10   14    4    -14.15      0.00
   12   14    4    -12.63      0.00
   14   14    4    -13.34      0.00
   16   14    4    -19.39      0.00
   18   14    4    -17.96      0.00
   20   14    4    -16.35      0.00
   22   14    4     -8.68      0.00
   24   14    4     -5.84      0.00
   26   14    4     -2.43      0.00
   28   14    4     -6.38      0.00
   30   14    4     -3.39      0.00
   32   14    4     -9.29      0.00
   34   14    4     -2.29      0.00
   36   14    4     -4.48      0.00
   38   14    4     -1.23      0.00
   40   14    4     -1.16      0.00
   42   14    4     -3.14      0.00
   44   14    4     -2.58      0.00
   46   14    4     -0.49      0.00
   48   14    4     -1.56      0.00
   50   14    4      1.73      0.00
    1   15    4     -3.02      0.00
    3   15    4     -1.31      0.00
    5   15    4     -1.95      0.00
    7   15    4     -2.16      0.00
    9   15    4     -0.41      0.00
   11   15    4     -2.29      0.00
   13   15    4      1.08      0.00
   15   15    4      3.47      0.00
   17   15    4     -1.99      0.00
   19   15    4      4.10      0.00
   21   15    4     -6.22      0.00
   23   15    4      0.38      0.00
   25   15    4     -3.44      0.00
   27   15    4      0.89      0.00
   29   15    4      0.33      0.00
   31   15    4      0.40      0.00
   33   15    4     -1.47      0.00
   35   15    4     -1.89      0.00
   37   15    4     -3.04      0.00
   39   15    4     -1.36      0.00
   41   15    4     -0.97      0.00
   43   15    4     -0.45      0.00
   45   15    4      2.14      0.00
   47   15    4     -2.86      0.00
    0   16    4      5.09      0.00
    2   16    4     -0.42      0.00
    4   16    4      1.88      0.00
    6   16    4     -2.85      0.00
    8   16    4      0.92      0.00
   10   16    4      0.29      0.00
   12   16    4      3.20      0.00
   14   16    4      2.88      0.00
   16   16    4      2.86      0.00
   18   16    4      3.34      0.00
   20   16    4      3.78      0.00
   22   16    4      3.18      0.00
   24   16    4      3.53      0.00
   26   16    4      4.05      0.00
   28   16    4      3.35      0.00
   30   16    4      3.52      0.00
   32   16    4      1.73      0.00
   34   16    4      0.60      0.00
   36   16    4      3.52      0.00
   38   16    4      4.28      0.00
   40   16    4      3.51      0.00
   42   16    4      4.22      0.00
   44   16    4     -0.67      0.00
    1   17    4      2.70      0.00
    3   17    4     -1.32      0.00
    5   17    4      0.87      0.00
    7   17    4     -3.95      0.00
    9   17    4      1.20      0.00
   11   17    4     -0.30      0.00
   13   17    4      0.44      0.00
   15   17    4      0.53      0.00
   17   17    4     -2.22      0.00
   19   17    4      0.20      0.00
   21   17    4     -3.94      0.00
   23   17    4     -0.99      0.00
   25   17    4     -4.64      0.00
   27   17    4     -3.88      0.00
   29   17    4     -3.59      0.00
   31   17    4     -7.71      0.00
   33   17    4     -2.53      0.00
   35   17    4     -6.29      0.00
   37   17    4     -0.51      0.00
   39   17    4     -2.33      0.00
   41   17    4     -2.20      0.00
   43   17    4     -0.94      0.00
    0   18    4    -12.06      0.00
    2   18    4     -3.65      0.00
    4   18    4     -6.20      0.00
    6   18    4     -2.74      0.00
    8   18    4     -3.72      0.00
   10   18    4     -9.63      0.00
   12   18    4     -5.19      0.00
   14   18    4     -9.00      0.00
   16   18    4     -4.87      0.00
   18   18    4     -6.50      0.00
   20   18    4     -7.19      0.00
   22   18    4     -6.90      0.00
   24   18    4     -4.08      0.00
   26   18    4     -2.86      0.00
   28   18    4     -0.07      0.00
   30   18    4     -1.49      0.00
   32   18    4     -3.99      0.00
   34   18    4     -3.23      0.00
   36   18    4     -3.23      0.00
   38   18    4      0.02      0.00
   40   18    4      1.47      0.00
    1   19    4      1.09      0.00
    3   19    4     -1.80      0.00
    5   19    4     -3.58      0.00
    7   19    4     -1.36      0.00
    9   19    4      0.50      0.00
   11   19    4      5.09      0.00
   13   19    4      2.27      0.00
   15   19    4      2.80      0.00
   17   19    4      0.78      0.00
   19   19    4      3.49      0.00
   21   19    4      1.05      0.00
   23   19    4      4.64      0.00
   25   19    4     -1.47      0.00
   27   19    4      3.82      0.00
   29   19    4     -1.57      0.00
   31   19    4     -0.17      0.00
   33   19    4      1.03      0.00
   35   19    4     -2.15      0.00
   37   19    4      5.74      0.00
    0   20    4      1.90      0.00
    2   20    4     -0.69      0.00
    4   20    4      6.60      0.00
    6   20    4      6.21      0.00
    8   20    4      2.95      0.00
   10   20    4      1.33      0.00
   12   20    4     -3.11      0.00
   14   20    4      2.00      0.00
   16   20    4      4.12      0.00
   18   20    4      6.01      0.00
   20   20    4      4.90      0.00
   22   20    4      3.17      0.00
   24   20    4      1.88      0.00
   26   20    4      2.33      0.00
   28   20    4      3.63      0.00
   30   20    4     -0.32      0.00
   32   20    4      2.55      0.00
    1   21    4     -1.07      0.00
    3   21    4     -5.15      0.00
    5   21    4      2.49      0.00
    7   21    4     -0.95      0.00
    9   21    4      8.32      0.00
   11   21    4      6.23      0.00
   13   21    4      2.99      0.00
   15   21    4      3.92      0.00
   17   21    4     -1.09      0.00
   19   21    4      3.57      0.00
   21   21    4     -0.61      0.00
   23   21    4     -1.56      0.00
   25   21    4     -1.97      0.00
   27   21    4     -3.09      0.00
   29   21    4      2.75      0.00
    0   22    4      2.62      0.00
    2   22    4     -0.44      0.00
    4   22    4      2.96      0.00
    6   22    4      1.02      0.00
    8   22    4      1.68      0.00
   10   22    4     -0.26      0.00
   12   22    4      0.87      0.00
   14   22    4      0.33      0.00
   16   22    4      5.80      0.00
   18   22    4      3.29      0.00
   20   22    4      6.78      0.00
   22   22    4      0.04      0.00
   24   22    4      2.15      0.00
    1   23    4     -5.81      0.00
    3   23    4     -6.55      0.00
    5   23    4     -3.80      0.00
    7   23    4     -4.85      0.00
    9   23    4     -1.07      0.00
   11   23    4     -2.30      0.00
   13   23    4     -4.63      0.00
   15   23    4     -0.95      0.00
   17   23    4     -6.32      0.00
    1    1    5    224.67      0.00
    3    1    5     93.85      0.00
    5    1    5    161.83      0.00
    7    1    5    -12.49      0.00
    9    1    5    131.53      0.00
   11    1    5     84.41      0.00
   13    1    5    145.88      0.00
   15    1    5     92.00      0.00
   17    1    5     56.88      0.00
   19    1    5     -9.73      0.00
   21    1    5     18.91      0.00
   23    1    5     23.99      0.00
   25    1    5     63.25      0.00
   27    1    5     56.84      0.00
   29    1    5     22.93      0.00
   31    1    5      5.45      0.00
   33    1    5      6.88      0.00
   35    1    5     11.59      0.00
   37    1    5     37.77      0.00
   39    1    5     19.30      0.00
   41    1    5     22.30      0.00
   43    1    5      6.64      0.00
   45    1    5      7.46      0.00
   47    1    5      9.38      0.00
   49    1    5     11.29      0.00
   51    1    5      9.15      0.00
   53    1    5      9.10      0.00
   55    1    5     -1.21      0.00
   57    1    5      4.77      0.00
   59    1    5     -1.93      0.00
   61    1    5      7.84      0.00
    0    2    5     50.09      0.00
    2    2    5   -101.58      0.00
    4    2    5    -69.93      0.00
    6    2    5   -178.51      0.00
    8    2    5   -127.33      0.00
   10    2    5    -53.73      0.00
   12    2    5     -6.25      0.00
   14    2    5     47.00      0.00
   16    2    5      0.03      0.00
   18    2    5    -14.05      0.00
   20    2    5    -35.98      0.00
   22    2    5    -16.59      0.00
   24    2    5      4.10      0.00
   26    2    5     13.84      0.00
   28    2    5     -1.50      0.00
   30    2    5     -1.82      0.00
   32    2    5    -27.08      0.00
   34    2    5      7.14      0.00
   36    2    5    -20.03      0.00
   38    2    5     14.63      0.00
   40    2    5    -17.04      0.00
   42    2    5      1.44      0.00
   44    2    5     -8.65      0.00
   46    2    5     -0.83      0.00
   48    2    5      1.05      0.00
   50    2    5     -1.12      0.00
   52    2    5     -2.20      0.00
   54    2    5     -4.28      0.00
   56    2    5     -1.93      0.00
   58    2    5      0.12      0.00
   60    2    5      2.83      0.00
    1    3    5     87.72      0.00
    5    3    5     -0.39      0.00
    7    3    5     63.36      0.00
    9    3    5     -7.27      0.00
   11    3    5     44.76      0.00
   13    3    5     47.42      0.00
   15    3    5     41.98      0.00
   17    3    5     41.87      0.00
   19    3    5     23.53      0.00
   21    3    5     17.62      0.00
   23    3    5     30.57      0.00
   25    3    5     41.42      0.00
   27    3    5     36.17      0.00
   29    3    5     34.42      0.00
   31    3    5     15.77      0.00
   33    3    5     11.12      0.00
   35    3    5     11.76      0.00
   37    3    5      6.45      0.00
   39    3    5      4.94      0.00
   41    3    5      4.00      0.00
   43    3    5     -1.38      0.00
   45    3    5      3.28      0.00
   47    3    5      1.17      0.00
   49    3    5      2.00      0.00
   51    3    5      3.37      0.00
   53    3    5      0.48      0.00
   55    3    5     -0.23      0.00
   57    3    5      1.55      0.00
   59    3    5      0.65      0.00
    0    4    5    -11.40      0.00
    2    4    5      7.52      0.00
    4    4    5    -25.10      0.00
    6    4    5    -53.49      0.00
    8    4    5     16.91      0.00
   10    4    5    -25.76      0.00
   12    4    5     47.81      0.00
   14    4    5    -24.77      0.00
   16    4    5    -15.88      0.00
   18    4    5    -55.79      0.00
   20    4    5    -31.39      0.00
   22    4    5    -29.79      0.00
   24    4    5     -0.24      0.00
   26    4    5     -7.14      0.00
   28    4    5    -12.88      0.00
   30    4    5    -12.77      0.00
   32    4    5    -22.87      0.00
   34    4    5     -3.32      0.00
   36    4    5     -0.45      0.00
   38    4    5      4.62      0.00
   40    4    5      6.76      0.00
   42    4    5     -6.07      0.00
   44    4    5     -0.65      0.00
   46    4    5     -7.95      0.00
   48    4    5      3.36      0.00
   50    4    5     -1.69      0.00
   52    4    5      2.72      0.00
   54    4    5     -5.34      0.00
   56    4    5     -1.27      0.00
   58    4    5     -1.86      0.00
   60    4    5      2.08      0.00
    1    5    5    -52.84      0.00
    3    5    5    -38.55      0.00
    5    5    5    -62.55      0.00
    7    5    5    -29.73      0.00
    9    5    5      0.46      0.00
   11    5    5     -3.93      0.00
   13    5    5     36.31      0.00
   15    5    5     10.62      0.00
   17    5    5     14.68      0.00
   19    5    5     28.50      0.00
   21    5    5     -3.94      0.00
   23    5    5     32.25      0.00
   25    5    5     -8.90      0.00
   27    5    5     11.37      0.00
   29    5    5     -4.59      0.00
   31    5    5      0.43      0.00
   33    5    5      2.87      0.00
   35    5    5      7.82      0.00
   37    5    5     -4.81      0.00
   39    5    5      7.19      0.00
   41    5    5    -11.51      0.00
   43    5    5      3.18      0.00
   45    5    5     -2.78      0.00
   47    5    5      3.80      0.00
   49    5    5      4.14      0.00
   51    5    5      3.02      0.00
   53    5    5      0.41      0.00
   55    5    5     -0.06      0.00
   57    5    5     -0.78      0.00
   59    5    5      0.08      0.00
    0    6    5      2.77      0.00
    2    6    5    -28.32      0.00
    4    6    5     14.22      0.00
    6    6    5     18.53      0.00
    8    6    5      2.08      0.00
   10    6    5     -3.80      0.00
   12    6    5    -22.84      0.00
   14    6    5    -39.36      0.00
   16    6    5     -5.93      0.00
   18    6    5    -20.87      0.00
   20    6    5      2.32      0.00
   22    6    5     10.49      0.00
   24    6    5     -8.28      0.00
   26    6    5     17.37      0.00
   28    6    5     -9.82      0.00
   30    6    5     -0.04      0.00
   32    6    5      2.03      0.00
   34    6    5     -5.71      0.00
   36    6    5      7.67      0.00
   38    6    5     -3.75      0.00
   40    6    5     -1.34      0.00
   42    6    5     -2.74      0.00
   44    6    5     -5.56      0.00
   46    6    5     -3.56      0.00
   48    6    5     -3.05      0.00
   50    6    5     -2.77      0.00
   52    6    5     -0.24      0.00
   54    6    5     -3.22      0.00
   56    6    5     -2.40      0.00
   58    6    5     -2.59      0.00
    1    7    5      9.76      0.00
    3    7    5    -12.26      0.00
    5    7    5     10.13      0.00
    7    7    5    -16.01      0.00
    9    7    5     -5.49      0.00
   11    7    5    -12.09      0.00
   13    7    5    -28.87      0.00
   15    7    5    -20.34      0.00
   17    7    5    -33.98      0.00
   19    7    5    -12.77      0.00
   21    7    5    -21.93      0.00
   23    7    5      2.43      0.00
   25    7    5     -9.66      0.00
   27    7    5      5.79      0.00
   29    7    5     -4.54      0.00
   31    7    5      1.80      0.00
   33    7    5      4.52      0.00
   35    7    5      4.54      0.00
   37    7    5      8.70      0.00
   39    7    5      0.13      0.00
   41    7    5     -2.25      0.00
   43    7    5     -4.86      0.00
   45    7    5     -3.61      0.00
   47    7    5     -1.52      0.00
   49    7    5     -0.95      0.00
   51    7    5     -3.29      0.00
   53    7    5     -1.66      0.00
   55    7    5      0.93      0.00
   57    7    5      5.76      0.00
    0    8    5     -8.60      0.00
    2    8    5    -20.67      0.00
    4    8    5     -1.29      0.00
    6    8    5    -15.74      0.00
    8    8    5    -11.57      0.00
   10    8    5    -32.03      0.00
   12    8    5    -24.61      0.00
   14    8    5    -24.16      0.00
   16    8    5     -2.86      0.00
   18    8    5     -7.78      0.00
   20    8    5      5.28      0.00
   22    8    5    -18.44      0.00
   24    8    5      0.15      0.00
   26    8    5    -20.80      0.00
   28    8    5     -1.12      0.00
   30    8    5    -11.93      0.00
   32    8    5     -5.18      0.00
   34    8    5     -3.18      0.00
   36    8    5     -7.72      0.00
   38    8    5      0.69      0.00
   40    8    5     -3.18      0.00
   42    8    5      3.34      0.00
   44    8    5      1.82      0.00
   46    8    5      0.70      0.00
   48    8    5      1.21      0.00
   50    8    5      0.34      0.00
   52    8    5     -0.99      0.00
   54    8    5     -2.87      0.00
   56    8    5     -6.16      0.00
    1    9    5    -25.38      0.00
    3    9    5    -25.74      0.00
    5    9    5    -21.34      0.00
    7    9    5    -17.88      0.00
    9    9    5    -23.55      0.00
   11    9    5    -11.07      0.00
   13    9    5    -22.45      0.00
   15    9    5     -9.80      0.00
   17    9    5    -11.51      0.00
   19    9    5    -17.68      0.00
   21    9    5     -7.75      0.00
   23    9    5    -15.86      0.00
   25    9    5     -7.89      0.00
   27    9    5     -7.72      0.00
   29    9    5    -14.80      0.00
   31    9    5     -7.15      0.00
   33    9    5     -9.29      0.00
   35    9    5      1.27      0.00
   37    9    5      1.43      0.00
   39    9    5     -0.15      0.00
   41    9    5     -2.24      0.00
   43    9    5     -1.15      0.00
   45    9    5     -0.60      0.00
   47    9    5      5.91      0.00
   49    9    5     -3.80      0.00
   51    9    5     -0.09      0.00
   53    9    5     -9.36      0.00
   55    9    5     -1.23      0.00
    0   10    5      6.88      0.00
    2   10    5     10.92      0.00
    4   10    5     14.22      0.00
    6   10    5      7.14      0.00
    8   10    5     16.82      0.00
   10   10    5      2.62      0.00
   12   10    5      4.20      0.00
   14   10    5     12.91      0.00
   16   10    5      0.17      0.00
   18   10    5     18.80      0.00
   20   10    5     -6.76      0.00
   22   10    5      0.38      0.00
   24   10    5    -11.57      0.00
   26   10    5     -4.04      0.00
   28   10    5     -2.53      0.00
   30   10    5      7.24      0.00
   32   10    5      2.89      0.00
   34   10    5     11.27      0.00
   36   10    5     -0.03      0.00
   38   10    5      7.16      0.00
   40   10    5      0.27      0.00
   42   10    5      4.02      0.00
   44   10    5      3.61      0.00
   46   10    5      1.82      0.00
   48   10    5      6.35      0.00
   50   10    5      2.94      0.00
   52   10    5      4.99      0.00
   54   10    5      0.48      0.00
    1   11    5     14.39      0.00
    3   11    5      0.93      0.00
    5   11    5      4.42      0.00
    7   11    5    -11.19      0.00
    9   11    5      4.42      0.00
   11   11    5     -1.13      0.00
   13   11    5      4.78      0.00
   15   11    5     -3.52      0.00
   17   11    5    -10.45      0.00
   19   11    5    -11.74      0.00
   21   11    5    -11.08      0.00
   23   11    5      1.26      0.00
   25   11    5      0.93      0.00
   27   11    5      7.81      0.00
   29   11    5     -1.66      0.00
   31   11    5      3.98      0.00
   33   11    5      1.71      0.00
   35   11    5      6.20      0.00
   37   11    5      0.80      0.00
   39   11    5     -1.03      0.00
   41   11    5     -6.98      0.00
   43   11    5     -0.93      0.00
   45   11    5     -1.86      0.00
   47   11    5      3.04      0.00
   49   11    5     -1.14      0.00
   51   11    5      0.57      0.00
   53   11    5     -0.59      0.00
    0   12    5     -1.17      0.00
    2   12    5     -1.26      0.00
    4   12    5      1.84      0.00
    6   12    5      9.61      0.00
    8   12    5      3.94      0.00
   10   12    5      6.11      0.00
   12   12    5      4.17      0.00
   14   12    5     -2.57      0.00
   16   12    5     10.31      0.00
   18   12    5     -1.02      0.00
   20   12    5      7.75      0.00
   22   12    5      4.19      0.00
   24   12    5      4.17      0.00
   26   12    5      9.37      0.00
   28   12    5      4.74      0.00
   30   12    5      4.37      0.00
   32   12    5      3.80      0.00
   34   12    5     -0.40      0.00
   36   12    5      2.50      0.00
   38   12    5     -1.02      0.00
   40   12    5     -3.32      0.00
   42   12    5     -2.39      0.00
   44   12    5     -6.18      0.00
   46   12    5     -1.17      0.00
   48   12    5      0.99      0.00
   50   12    5      1.17      0.00
   52   12    5      2.43      0.00
    1   13    5    -14.29      0.00
    3   13    5    -15.05      0.00
    5   13    5    -12.05      0.00
    7   13    5    -13.29      0.00
    9   13    5     -7.89      0.00
   11   13    5    -12.15      0.00
   13   13    5     -6.00      0.00
   15   13    5     -7.55      0.00
   17   13    5     -4.34      0.00
   19   13    5     -1.00      0.00
   21   13    5     -7.77      0.00
   23   13    5     -0.84      0.00
   25   13    5     -7.14      0.00
   27   13    5     -2.49      0.00
   29   13    5     -2.17      0.00
   31   13    5     -3.47      0.00
   33   13    5     -2.82      0.00
   35   13    5     -2.86      0.00
   37   13    5     -7.18      0.00
   39   13    5     -1.45      0.00
   41   13    5     -3.91      0.00
   43   13    5      1.33      0.00
   45   13    5      0.41      0.00
   47   13    5      1.07      0.00
   49   13    5     -1.57      0.00
   51   13    5      1.62      0.00
    0   14    5      1.63      0.00
    2   14    5      0.86      0.00
    4   14    5      6.42      0.00
    6   14    5      5.06      0.00
    8   14    5      8.29      0.00
   10   14    5      1.35      0.00
   12   14    5      3.00      0.00
   14   14    5      0.12      0.00
   16   14    5      2.35      0.00
   18   14    5      3.35      0.00
   20   14    5      3.80      0.00
   22   14    5      5.98      0.00
   24   14    5      3.91      0.00
   26   14    5      4.18      0.00
   28   14    5     -4.02      0.00
   30   14    5     -1.76      0.00
   32   14    5     -5.21      0.00
   34   14    5      0.05      0.00
   36   14    5      1.72      0.00
   38   14    5     -1.35      0.00
   40   14    5      2.19      0.00
   42   14    5     -5.57      0.00
   44   14    5     -0.13      0.00
   46   14    5     -2.91      0.00
   48   14    5      1.52      0.00
    1   15    5     -2.09      0.00
    3   15    5      3.83      0.00
    5   15    5      7.55      0.00
    7   15    5      8.91      0.00
    9   15    5      5.76      0.00
   11   15    5      0.00      0.00
   13   15    5      1.36      0.00
   15   15    5      6.17      0.00
   17   15    5      9.19      0.00
   19   15    5     12.61      0.00
   21   15    5      6.74      0.00
   23   15    5      4.91      0.00
   25   15    5      1.93      0.00
   27   15    5      3.32      0.00
   29   15    5      4.41      0.00
   31   15    5      8.53      0.00
   33   15    5      6.21      0.00
   35   15    5      7.12      0.00
   37   15    5      2.22      0.00
   39   15    5      1.98      0.00
   41   15    5      2.55      0.00
   43   15    5      2.99      0.00
   45   15    5      2.21      0.00
   47   15    5      0.70      0.00
    0   16    5      0.75      0.00
    2   16    5     -2.30      0.00
    4   16    5      0.03      0.00
    6   16    5     -4.80      0.00
    8   16    5     -1.83      0.00
   10   16    5     -5.12      0.00
   12   16    5     -2.51      0.00
   14   16    5     -3.65      0.00
   16   16    5     -2.20      0.00
   18   16    5     -4.35      0.00
   20   16    5     -1.69      0.00
   22   16    5     -2.86      0.00
   24   16    5     -1.38      0.00
   26   16    5     -3.29      0.00
   28   16    5     -6.13      0.00
   30   16    5     -3.12      0.00
   32   16    5     -6.67      0.00
   34   16    5      1.08      0.00
   36   16    5     -7.08      0.00
   38   16    5     -0.98      0.00
   40   16    5     -6.06      0.00
   42   16    5     -2.33      0.00
   44   16    5     -1.24      0.00
    1   17    5      3.74      0.00
    3   17    5      3.85      0.00
    5   17    5     -1.22      0.00
    7   17    5      3.09      0.00
    9   17    5     -1.88      0.00
   11   17    5      3.11      0.00
   13   17    5     -0.06      0.00
   15   17    5      1.62      0.00
   17   17    5      1.13      0.00
   19   17    5      3.33      0.00
   21   17    5      2.68      0.00
   23   17    5      4.62      0.00
   25   17    5      3.02      0.00
   27   17    5      1.28      0.00
   29   17    5      2.96      0.00
   31   17    5      2.80      0.00
   33   17    5      5.75      0.00
   35   17    5      3.73      0.00
   37   17    5      1.43      0.00
   39   17    5     -2.15      0.00
   41   17    5     -1.88      0.00
   43   17    5     -1.81      0.00
    0   18    5     -2.14      0.00
    2   18    5     -0.65      0.00
    4   18    5      4.14      0.00
    6   18    5      5.01      0.00
    8   18    5      4.75      0.00
   10   18    5      1.31      0.00
   12   18    5      3.45      0.00
   14   18    5      3.52      0.00
   16   18    5      5.35      0.00
   18   18    5      3.40      0.00
   20   18    5      0.90      0.00
   22   18    5      1.21      0.00
   24   18    5     -1.75      0.00
   26   18    5     -1.24      0.00
   28   18    5     -3.16      0.00
   30   18    5     -2.35      0.00
   32   18    5     -1.20      0.00
   34   18    5     -1.95      0.00
   36   18    5     -5.73      0.00
   38   18    5     -2.72      0.00
   40   18    5     -6.22      0.00
    1   19    5     10.35      0.00
    3   19    5      8.84      0.00
    5   19    5      5.03      0.00
    7   19    5      7.20      0.00
    9   19    5      6.93      0.00
   11   19    5     10.37      0.00
   13   19    5      6.97      0.00
   15   19    5      7.13      0.00
   17   19    5      4.49      0.00
   19   19    5      5.58      0.00
   21   19    5      6.07      0.00
   23   19    5      4.89      0.00
   25   19    5      2.36      0.00
   27   19    5     -0.63      0.00
   29   19    5     -0.67      0.00
   31   19    5     -0.63      0.00
   33   19    5      2.18      0.00
   35   19    5     -0.05      0.00
   37   19    5     -0.21      0.00
    0   20    5     -4.64      0.00
    2   20    5      4.29      0.00
    4   20    5      0.38      0.00
    6   20    5      8.84      0.00
    8   20    5     -3.28      0.00
   10   20    5     -0.61      0.00
   12   20    5     -2.86      0.00
   14   20    5     -1.94      0.00
   16   20    5      1.03      0.00
   18   20    5     -5.57      0.00
   20   20    5     -1.18      0.00
   22   20    5     -1.08      0.00
   24   20    5      6.93      0.00
   26   20    5      3.66      0.00
   28   20    5      6.55      0.00
   30   20    5     -0.52      0.00
   32   20    5      4.19      0.00
    1   21    5      6.60      0.00
    3   21    5      1.48      0.00
    5   21    5      3.53      0.00
    7   21    5     -2.11      0.00
    9   21    5      4.13      0.00
   11   21    5      3.27      0.00
   13   21    5      3.52      0.00
   15   21    5      0.37      0.00
   17   21    5     -3.32      0.00
   19   21    5     -3.88      0.00
   21   21    5     -0.56      0.00
   23   21    5      2.89      0.00
   25   21    5      3.18      0.00
   27   21    5      4.05      0.00
   29   21    5     -0.42      0.00
    0   22    5     -0.20      0.00
    2   22    5     -2.84      0.00
    4   22    5      3.41      0.00
    6   22    5      2.08      0.00
    8   22    5     -0.97      0.00
   10   22    5      0.99      0.00
   12   22    5     -3.43      0.00
   14   22    5      3.27      0.00
   16   22    5      1.74      0.00
   18   22    5     -0.65      0.00
   20   22    5      5.48      0.00
   22   22    5     -0.67      0.00
    1   23    5     -0.82      0.00
    3   23    5      2.57      0.00
    5   23    5      2.67      0.00
    7   23    5      6.99      0.00
    9   23    5      2.30      0.00
   11   23    5      4.49      0.00
   13   23    5     -0.97      0.00
   15   23    5      1.18      0.00
    0    0    6     20.18      0.00
    4    0    6     97.67      0.00
    6    0    6     86.24      0.00
    8    0    6     83.31      0.00
   10    0    6     39.84      0.00
   12    0    6    -35.97      0.00
   14    0    6    -23.98      0.00
   16    0    6     31.82      0.00
   18    0    6     68.15      0.00
   20    0    6    101.61      0.00
   22    0    6     59.45      0.00
   24    0    6     19.96      0.00
   26    0    6      0.74      0.00
   28    0    6     31.67      0.00
   30    0    6     34.18      0.00
   32    0    6     63.49      0.00
   34    0    6     11.49      0.00
   36    0    6      7.96      0.00
   38    0    6    -12.89      0.00
   40    0    6     -2.12      0.00
   42    0    6      5.26      0.00
   44    0    6      7.63      0.00
   46    0    6      3.01      0.00
   48    0    6      5.42      0.00
   50    0    6     -1.01      0.00
   52    0    6      7.60      0.00
   54    0    6      6.12      0.00
   56    0    6     12.93      0.00
   58    0    6      8.38      0.00
   60    0    6      7.18      0.00
    1    1    6    -87.48      0.00
    3    1    6    -99.64      0.00
    5    1    6     10.74      0.00
    7    1    6    -28.88      0.00
    9    1    6     57.51      0.00
   11    1    6      6.42      0.00
   13    1    6     14.12      0.00
   15    1    6     -3.85      0.00
   17    1    6     -4.30      0.00
   19    1    6      3.36      0.00
   21    1    6     13.38      0.00
   23    1    6      5.24      0.00
   25    1    6      6.30      0.00
   27    1    6     -7.29      0.00
   29    1    6     -0.88      0.00
   31    1    6    -14.92      0.00
   33    1    6     -3.10      0.00
   35    1    6    -14.48      0.00
   37    1    6     -5.82      0.00
   39    1    6      1.11      0.00
   41    1    6     -2.66      0.00
   43    1    6      8.79      0.00
   45    1    6     -2.42      0.00
   47    1    6      3.53      0.00
   49    1    6     -1.07      0.00
   51    1    6      2.15      0.00
   53    1    6     -0.30      0.00
   55    1    6     -0.22      0.00
   57    1    6     -5.04      0.00
   59    1    6     -5.48      0.00
    2    2    6   -138.04      0.00
    4    2    6    -99.92      0.00
    6    2    6     -0.25      0.00
    8    2    6    -28.48      0.00
   10    2    6    -19.27      0.00
   12    2    6    -49.91      0.00
   14    2    6    -45.31      0.00
   16    2    6      6.65      0.00
   18    2    6     13.51      0.00
   20    2    6     34.06      0.00
   22    2    6     -2.60      0.00
   24    2    6    -28.32      0.00
   26    2    6    -34.94      0.00
   28    2    6    -25.99      0.00
   30    2    6     -3.40      0.00
   32    2    6      1.41      0.00
   34    2    6     -9.02      0.00
   36    2    6    -12.96      0.00
   38    2    6    -17.76      0.00
   40    2    6     -9.98      0.00
   42    2    6     -2.39      0.00
   44    2    6     -5.48      0.00
   46    2    6      2.02      0.00
   48    2    6     -7.03      0.00
   50    2    6     -2.01      0.00
   52    2    6     -6.24      0.00
   54    2    6     -3.67      0.00
   56    2    6     -3.30      0.00
   58    2    6     -1.15      0.00
   60    2    6     -4.21      0.00
    1    3    6     29.31      0.00
    3    3    6     72.74      0.00
    5    3    6     65.40      0.00
    7    3    6    105.77      0.00
    9    3    6     54.40      0.00
   11    3    6     47.58      0.00
   13    3    6      3.85      0.00
   15    3    6     25.71      0.00
   17    3    6     -4.87      0.00
   19    3    6     47.00      0.00
   21    3    6      5.59      0.00
   23    3    6     35.58      0.00
   25    3    6     17.17      0.00
   27    3    6     13.42      0.00
   29    3    6     26.18      0.00
   31    3    6      9.66      0.00
   33    3    6     14.84      0.00
   35    3    6     10.03      0.00
   37    3    6      1.18      0.00
   39    3    6     17.28      0.00
   41    3    6      5.64      0.00
   43    3    6     21.76      0.00
   45    3    6      6.12      0.00
   47    3    6      9.31      0.00
   49    3    6      0.26      0.00
   51    3    6      3.82      0.00
   53    3    6      4.82      0.00
   55    3    6      8.55      0.00
   57    3    6      6.24      0.00
   59    3    6      4.43      0.00
    0    4    6     -7.01      0.00
    2    4    6     93.96      0.00
    4    4    6     30.67      0.00
    6    4    6     56.69      0.00
    8    4    6     40.54      0.00
   10    4    6     -2.77      0.00
   12    4    6     -0.44      0.00
   14    4    6     -6.81      0.00
   16    4    6    -12.32      0.00
   18    4    6      5.72      0.00
   20    4    6      2.63      0.00
   22    4    6     -2.02      0.00
   24    4    6     15.82      0.00
   26    4    6      5.79      0.00
   28    4    6     23.60      0.00
   30    4    6     28.27      0.00
   32    4    6     13.80      0.00
   34    4    6     27.45      0.00
   36    4    6      9.76      0.00
   38    4    6     25.31      0.00
   40    4    6     17.88      0.00
   42    4    6     16.51      0.00
   44    4    6      7.70      0.00
   46    4    6      8.10      0.00
   48    4    6      1.63      0.00
   50    4    6     10.49      0.00
   52    4    6      1.68      0.00
   54    4    6      8.70      0.00
   56    4    6      0.13      0.00
   58    4    6      2.02      0.00
   60    4    6     -3.49      0.00
    1    5    6     56.72      0.00
    3    5    6     61.31      0.00
    5    5    6     19.97      0.00
    7    5    6     42.55      0.00
    9    5    6      1.40      0.00
   11    5    6     42.36      0.00
   13    5    6     23.78      0.00
   15    5    6     41.53      0.00
   17    5    6     35.24      0.00
   19    5    6     18.67      0.00
   21    5    6     22.75      0.00
   23    5    6      5.68      0.00
   25    5    6      5.62      0.00
   27    5    6      9.77      0.00
   29    5    6     -3.54      0.00
   31    5    6     10.63      0.00
   33    5    6     -9.15      0.00
   35    5    6     -2.56      0.00
   37    5    6     -8.99      0.00
   39    5    6     -5.73      0.00
   41    5    6      2.33      0.00
   43    5    6      0.87      0.00
   45    5    6      4.49      0.00
   47    5    6     -0.70      0.00
   49    5    6     -1.47      0.00
   51    5    6     -1.36      0.00
   53    5    6      2.79      0.00
   55    5    6      2.15      0.00
   57    5    6      6.50      0.00
   59    5    6      0.26      0.00
    0    6    6    -58.63      0.00
    2    6    6    -41.28      0.00
    4    6    6    -45.45      0.00
    6    6    6    -31.50      0.00
    8    6    6    -35.41      0.00
   10    6    6    -24.56      0.00
   12    6    6    -31.73      0.00
   14    6    6    -10.16      0.00
   16    6    6    -33.18      0.00
   18    6    6    -10.10      0.00
   20    6    6    -30.38      0.00
   22    6    6    -20.36      0.00
   24    6    6    -14.97      0.00
   26    6    6    -23.92      0.00
   28    6    6     -1.79      0.00
   30    6    6    -14.14      0.00
   32    6    6     -8.39      0.00
   34    6    6     -6.42      0.00
   36    6    6    -12.69      0.00
   38    6    6      5.18      0.00
   40    6    6      0.22      0.00
   42    6    6      3.81      0.00
   44    6    6     -0.81      0.00
   46    6    6     -5.10      0.00
   48    6    6     -5.49      0.00
   50    6    6     -2.35      0.00
   52    6    6     -5.67      0.00
   54    6    6     -1.53      0.00
   56    6    6     -5.29      0.00
   58    6    6     -1.96      0.00
    1    7    6     55.11      0.00
    3    7    6     29.72      0.00
    5    7    6     19.87      0.00
    7    7    6     16.84      0.00
    9    7    6     10.20      0.00
   11    7    6     63.59      0.00
   13    7    6     16.17      0.00
   15    7    6     58.52      0.00
   17    7    6      7.50      0.00
   19    7    6     27.96      0.00
   21    7    6     20.35      0.00
   23    7    6     22.16      0.00
   25    7    6     17.74      0.00
   27    7    6     18.23      0.00
   29    7    6     13.37      0.00
   31    7    6     18.76      0.00
   33    7    6     22.66      0.00
   35    7    6     10.09      0.00
   37    7    6     20.67      0.00
   39    7    6      1.46      0.00
   41    7    6     11.48      0.00
   43    7    6      3.04      0.00
   45    7    6      6.51      0.00
   47    7    6      5.00      0.00
   49    7    6      4.28      0.00
   51    7    6      1.45      0.00
   53    7    6      2.31      0.00
   55    7    6      1.87      0.00
   57    7    6      1.49      0.00
    0    8    6     24.93      0.00
    2    8    6     21.61      0.00
    4    8    6     28.39      0.00
    6    8    6     31.19      0.00
    8    8    6     27.42      0.00
   10    8    6     19.36      0.00
   12    8    6     40.66      0.00
   14    8    6      9.11      0.00
   16    8    6     49.06      0.00
   18    8    6      3.92      0.00
   20    8    6     37.24      0.00
   22    8    6      9.97      0.00
   24    8    6     24.49      0.00
   26    8    6     13.13      0.00
   28    8    6     21.20      0.00
   30    8    6     12.14      0.00
   32    8    6     22.54      0.00
   34    8    6      5.79      0.00
   36    8    6     15.05      0.00
   38    8    6      6.42      0.00
   40    8    6     10.84      0.00
   42    8    6     11.74      0.00
   44    8    6      4.63      0.00
   46    8    6      6.45      0.00
   48    8    6      1.89      0.00
   50    8    6      5.77      0.00
   52    8    6      7.23      0.00
   54    8    6      4.52      0.00
   56    8    6      3.51      0.00
    1    9    6     31.22      0.00
    3    9    6     28.54      0.00
    5    9    6      6.32      0.00
    7    9    6      4.17      0.00
    9    9    6      4.76      0.00
   11    9    6     -5.21      0.00
   13    9    6      9.55      0.00
   15    9    6    -12.94      0.00
   17    9    6    -10.21      0.00
   19    9    6     -6.81      0.00
   21    9    6     -8.92      0.00
   23    9    6      4.75      0.00
   25    9    6      4.53      0.00
   27    9    6     -6.31      0.00
   29    9    6     10.18      0.00
   31    9    6     -8.83      0.00
   33    9    6     11.98      0.00
   35    9    6      2.23      0.00
   37    9    6      7.33      0.00
   39    9    6      6.73      0.00
   41    9    6      0.33      0.00
   43    9    6      3.32      0.00
   45    9    6     -0.34      0.00
   47    9    6      0.46      0.00
   49    9    6     -0.97      0.00
   51    9    6     -2.67      0.00
   53    9    6     -1.79      0.00
   55    9    6     -0.83      0.00
    0   10    6    -13.42      0.00
    2   10    6    -19.44      0.00
    4   10    6     -1.03      0.00
    6   10    6     -4.57      0.00
    8   10    6     -4.61      0.00
   10   10    6    -19.65      0.00
   12   10    6    -12.85      0.00
   14   10    6    -25.85      0.00
   16   10    6      0.43      0.00
   18   10    6    -14.43      0.00
   20   10    6      4.08      0.00
   22   10    6     -6.59      0.00
   24   10    6     -4.66      0.00
   26   10    6     -1.54      0.00
   28   10    6     -1.32      0.00
   30   10    6      2.49      0.00
   32   10    6     -2.63      0.00
   34   10    6     -9.07      0.00
   36   10    6    -10.81      0.00
   38   10    6     -9.41      0.00
   40   10    6     -3.59      0.00
   42   10    6     -1.14      0.00
   44   10    6     -4.33      0.00
   46   10    6     -3.08      0.00
   48   10    6     -6.87      0.00
   50   10    6     -0.38      0.00
   52   10    6     -1.05      0.00
   54   10    6      0.77      0.00
    1   11    6      5.70      0.00
    3   11    6      6.96      0.00
    5   11    6     -1.18      0.00
    7   11    6      4.67      0.00
    9   11    6      0.73      0.00
   11   11    6     11.92      0.00
   13   11    6      7.02      0.00
   15   11    6     10.88      0.00
   17   11    6      4.45      0.00
   19   11    6      5.96      0.00
   21   11    6      8.86      0.00
   23   11    6      7.92      0.00
   25   11    6      4.84      0.00
   27   11    6      0.78      0.00
   29   11    6     -3.25      0.00
   31   11    6     -3.74      0.00
   33   11    6      0.53      0.00
   35   11    6     -2.11      0.00
   37   11    6      4.73      0.00
   39   11    6      0.47      0.00
   41   11    6      2.97      0.00
   43   11    6      2.80      0.00
   45   11    6     -0.74      0.00
   47   11    6      0.92      0.00
   49   11    6     -3.95      0.00
   51   11    6     -1.40      0.00
   53   11    6     -0.23      0.00
    0   12    6     15.72      0.00
    2   12    6      4.38      0.00
    4   12    6     26.44      0.00
    6   12    6     21.45      0.00
    8   12    6     26.58      0.00
   10   12    6     19.42      0.00
   12   12    6     17.65      0.00
   14   12    6     20.02      0.00
   16   12    6     18.91      0.00
   18   12    6     20.93      0.00
   20   12    6     16.59      0.00
   22   12    6     11.14      0.00
   24   12    6      7.90      0.00
   26   12    6      3.81      0.00
   28   12    6      6.35      0.00
   30   12    6      6.57      0.00
   32   12    6      5.52      0.00
   34   12    6      6.21      0.00
   36   12    6      2.24      0.00
   38   12    6      7.67      0.00
   40   12    6      3.45      0.00
   42   12    6      6.09      0.00
   44   12    6      2.07      0.00
   46   12    6      4.71      0.00
   48   12    6      4.06      0.00
   50   12    6      5.73      0.00
   52   12    6      2.85      0.00
    1   13    6     -5.83      0.00
    3   13    6    -15.43      0.00
    5   13    6    -15.12      0.00
    7   13    6    -19.99      0.00
    9   13    6    -14.35      0.00
   11   13    6     -6.52      0.00
   13   13    6    -11.55      0.00
   15   13    6    -11.53      0.00
   17   13    6    -17.73      0.00
   19   13    6    -15.45      0.00
   21   13    6    -12.14      0.00
   23   13    6     -8.59      0.00
   25   13    6     -9.22      0.00
   27   13    6     -4.15      0.00
   29   13    6     -6.70      0.00
   31   13    6      0.09      0.00
   33   13    6     -5.11      0.00
   35   13    6     -4.09      0.00
   37   13    6     -5.80      0.00
   39   13    6     -7.69      0.00
   41   13    6     -4.04      0.00
   43   13    6     -5.68      0.00
   45   13    6     -4.58      0.00
   47   13    6     -6.49      0.00
   49   13    6     -9.13      0.00
   51   13    6     -6.49      0.00
    0   14    6     -0.59      0.00
    2   14    6      4.91      0.00
    4   14    6     -3.54      0.00
    6   14    6     -4.32      0.00
    8   14    6     -4.00      0.00
   10   14    6     -1.55      0.00
   12   14    6     -0.72      0.00
   14   14    6     -0.15      0.00
   16   14    6    -12.50      0.00
   18   14    6     -7.85      0.00
   20   14    6    -14.97      0.00
   22   14    6     -1.07      0.00
   24   14    6     -2.37      0.00
   26   14    6      3.19      0.00
   28   14    6     -1.99      0.00
   30   14    6      0.89      0.00
   32   14    6     -4.72      0.00
   34   14    6      3.13      0.00
   36   14    6      0.04      0.00
   38   14    6      2.06      0.00
   40   14    6     -0.28      0.00
   42   14    6     -4.89      0.00
   44   14    6     -4.06      0.00
   46   14    6     -2.42      0.00
   48   14    6     -0.58      0.00
    1   15    6    -18.65      0.00
    3   15    6    -17.12      0.00
    5   15    6    -17.71      0.00
    7   15    6    -14.41      0.00
    9   15    6    -11.29      0.00
   11   15    6    -10.98      0.00
   13   15    6     -9.46      0.00
   15   15    6     -7.70      0.00
   17   15    6     -8.92      0.00
   19   15    6     -2.86      0.00
   21   15    6     -9.52      0.00
   23   15    6     -6.03      0.00
   25   15    6     -9.59      0.00
   27   15    6     -3.11      0.00
   29   15    6     -1.85      0.00
   31   15    6     -0.69      0.00
   33   15    6     -4.99      0.00
   35   15    6     -4.59      0.00
   37   15    6     -5.75      0.00
   39   15    6     -2.97      0.00
   41   15    6     -1.30      0.00
   43   15    6     -4.41      0.00
   45   15    6      1.71      0.00
   47   15    6     -4.93      0.00
    0   16    6      2.18      0.00
    2   16    6      7.80      0.00
    4   16    6     -0.69      0.00
    6   16    6      0.82      0.00
    8   16    6      0.66      0.00
   10   16    6      2.32      0.00
   12   16    6      6.10      0.00
   14   16    6      4.94      0.00
   16   16    6      2.96      0.00
   18   16    6      2.93      0.00
   20   16    6      3.00      0.00
   22   16    6      5.00      0.00
   24   16    6      5.41      0.00
   26   16    6      6.49      0.00
   28   16    6      3.38      0.00
   30   16    6      4.46      0.00
   32   16    6      1.60      0.00
   34   16    6      2.05      0.00
   36   16    6      4.12      0.00
   38   16    6      4.37      0.00
   40   16    6      4.15      0.00
   42   16    6      2.71      0.00
   44   16    6     -0.37      0.00
    1   17    6     -7.17      0.00
    3   17    6    -10.94      0.00
    5   17    6     -7.29      0.00
    7   17    6    -13.09      0.00
    9   17    6     -5.61      0.00
   11   17    6    -10.69      0.00
   13   17    6     -7.55      0.00
   15   17    6     -8.30      0.00
   17   17    6     -8.17      0.00
   19   17    6     -3.64      0.00
   21   17    6     -7.73      0.00
   23   17    6     -2.72      0.00
   25   17    6     -7.52      0.00
   27   17    6     -1.51      0.00
   29   17    6     -5.59      0.00
   31   17    6     -5.63      0.00
   33   17    6     -5.84      0.00
   35   17    6     -6.04      0.00
   37   17    6     -1.57      0.00
   39   17    6     -2.56      0.00
   41   17    6     -5.24      0.00
    0   18    6     -2.44      0.00
    2   18    6     -0.47      0.00
    4   18    6     -1.96      0.00
    6   18    6     -0.25      0.00
    8   18    6     -2.93      0.00
   10   18    6     -3.94      0.00
   12   18    6     -3.98      0.00
   14   18    6     -6.83      0.00
   16   18    6     -4.67      0.00
   18   18    6     -7.42      0.00
   20   18    6     -7.96      0.00
   22   18    6     -8.48      0.00
   24   18    6     -7.39      0.00
   26   18    6     -5.42      0.00
   28   18    6     -2.34      0.00
   30   18    6     -2.75      0.00
   32   18    6     -4.09      0.00
   34   18    6     -3.09      0.00
   36   18    6     -3.21      0.00
   38   18    6     -0.16      0.00
    1   19    6      1.01      0.00
    3   19    6     -1.75      0.00
    5   19    6     -5.85      0.00
    7   19    6     -0.27      0.00
    9   19    6     -0.59      0.00
   11   19    6      5.35      0.00
   13   19    6     -1.23      0.00
   15   19    6      1.38      0.00
   17   19    6      0.80      0.00
   19   19    6      5.45      0.00
   21   19    6      2.76      0.00
   23   19    6      2.07      0.00
   25   19    6     -1.76      0.00
   27   19    6      2.02      0.00
   29   19    6      2.49      0.00
   31   19    6      1.76      0.00
   33   19    6      3.47      0.00
   35   19    6     -0.66      0.00
    0   20    6      8.52      0.00
    2   20    6      5.27      0.00
    4   20    6      8.26      0.00
    6   20    6      5.95      0.00
    8   20    6      4.62      0.00
   10   20    6      3.11      0.00
   12   20    6      0.88      0.00
   14   20    6      2.74      0.00
   16   20    6      4.47      0.00
   18   20    6      4.27      0.00
   20   20    6      2.58      0.00
   22   20    6     -0.92      0.00
   24   20    6     -4.34      0.00
   26   20    6     -1.26      0.00
   28   20    6     -0.02      0.00
   30   20    6      1.39      0.00
   32   20    6      2.64      0.00
    1   21    6      7.51      0.00
    3   21    6      0.84      0.00
    5   21    6      3.31      0.00
    7   21    6      0.36      0.00
    9   21    6      5.57      0.00
   11   21    6      7.71      0.00
   13   21    6      0.98      0.00
   15   21    6      6.17      0.00
   17   21    6     -0.29      0.00
   19   21    6      5.56      0.00
   21   21    6     -1.68      0.00
   23   21    6     -2.58      0.00
   25   21    6     -3.74      0.00
   27   21    6     -0.78      0.00
    0   22    6      5.70      0.00
    2   22    6      2.12      0.00
    4   22    6      5.68      0.00
    6   22    6      3.37      0.00
    8   22    6      4.83      0.00
   10   22    6      2.36      0.00
   12   22    6      4.07      0.00
   14   22    6      0.67      0.00
   16   22    6      4.67      0.00
   18   22    6     -2.15      0.00
   20   22    6     -0.60      0.00
   22   22    6     -7.78      0.00
    1   23    6      2.75      0.00
    3   23    6      0.55      0.00
    5   23    6      1.64      0.00
    7   23    6     -3.08      0.00
    9   23    6      4.43      0.00
   11   23    6     -1.92      0.00
   13   23    6      4.71      0.00
   15   23    6      2.68      0.00
    1    1    7    104.41      0.00
    3    1    7     10.94      0.00
    5    1    7     14.19      0.00
    7    1    7    -99.57      0.00
    9    1    7     -8.32      0.00
   11    1    7    -29.08      0.00
   13    1    7     52.13      0.00
   15    1    7     -2.93      0.00
   17    1    7     12.91      0.00
   19    1    7    -55.84      0.00
   21    1    7     -8.54      0.00
   23    1    7     -7.15      0.00
   25    1    7     22.02      0.00
   27    1    7     18.22      0.00
   29    1    7    -13.67      0.00
   31    1    7    -12.55      0.00
   33    1    7     -9.33      0.00
   35    1    7      7.61      0.00
   37    1    7     17.37      0.00
   39    1    7      3.55      0.00
   41    1    7     -2.08      0.00
   43    1    7     -8.09      0.00
   45    1    7     -4.65      0.00
   47    1    7      0.61      0.00
   49    1    7      0.91      0.00
   51    1    7     -0.13      0.00
   53    1    7     -0.80      0.00
   55    1    7     -6.97      0.00
   57    1    7     -2.40      0.00
   59    1    7     -7.41      0.00
    0    2    7     63.65      0.00
    2    2    7     31.08      0.00
    4    2    7     48.16      0.00
    6    2    7     31.29      0.00
    8    2    7      0.78      0.00
   10    2    7     24.24      0.00
   12    2    7    -27.61      0.00
   14    2    7     32.94      0.00
   16    2    7    -10.68      0.00
   18    2    7     26.82      0.00
   20    2    7    -11.10      0.00
   22    2    7     -4.34      0.00
   24    2    7    -20.14      0.00
   26    2    7     -4.29      0.00
   28    2    7    -10.55      0.00
   30    2    7     15.61      0.00
   32    2    7    -11.69      0.00
   34    2    7     21.66      0.00
   36    2    7    -18.17      0.00
   38    2    7     17.33      0.00
   40    2    7    -11.04      0.00
   42    2    7     11.46      0.00
   44    2    7      1.76      0.00
   46    2    7      7.15      0.00
   48    2    7      2.68      0.00
   50    2    7      1.57      0.00
   52    2    7     -3.08      0.00
   54    2    7      0.56      0.00
   56    2    7      2.89      0.00
   58    2    7      4.83      0.00
   60    2    7      8.68      0.00
    1    3    7    -28.64      0.00
    3    3    7    -58.87      0.00
    5    3    7    -77.89      0.00
    7    3    7    -81.92      0.00
    9    3    7    -31.79      0.00
   11    3    7    -14.38      0.00
   13    3    7     18.42      0.00
   15    3    7    -16.41      0.00
   17    3    7    -12.16      0.00
   19    3    7    -35.69      0.00
   21    3    7      4.18      0.00
   23    3    7      1.46      0.00
   25    3    7     30.58      0.00
   27    3    7      5.69      0.00
   29    3    7      1.99      0.00
   31    3    7     -4.54      0.00
   33    3    7     -5.79      0.00
   35    3    7      5.22      0.00
   37    3    7     -3.16      0.00
   39    3    7     -6.21      0.00
   41    3    7     -6.36      0.00
   43    3    7     -8.58      0.00
   45    3    7      1.78      0.00
   47    3    7     -1.72      0.00
   49    3    7      1.65      0.00
   51    3    7     -0.84      0.00
   53    3    7      1.47      0.00
   55    3    7     -1.73      0.00
   57    3    7      1.39      0.00
   59    3    7     -4.10      0.00
    0    4    7      8.71      0.00
    2    4    7     19.05      0.00
    4    4    7     35.96      0.00
    6    4    7     21.56      0.00
    8    4    7     55.62      0.00
   10    4    7     -2.06      0.00
   12    4    7     26.69      0.00
   14    4    7    -10.16      0.00
   16    4    7      6.66      0.00
   18    4    7      0.08      0.00
   20    4    7      6.00      0.00
   22    4    7     -5.54      0.00
   24    4    7      7.77      0.00
   26    4    7     -3.09      0.00
   28    4    7      4.34      0.00
   30    4    7      2.46      0.00
   32    4    7     -0.78      0.00
   34    4    7      1.70      0.00
   36    4    7      5.13      0.00
   38    4    7     -1.68      0.00
   40    4    7      6.69      0.00
   42    4    7     -4.58      0.00
   44    4    7      6.60      0.00
   46    4    7      0.11      0.00
   48    4    7      9.08      0.00
   50    4    7      0.65      0.00
   52    4    7      5.57      0.00
   54    4    7     -3.82      0.00
   56    4    7      1.84      0.00
   58    4    7     -1.52      0.00
    1    5    7    -54.90      0.00
    3    5    7    -34.68      0.00
    5    5    7    -28.25      0.00
    7    5    7    -16.93      0.00
    9    5    7     18.87      0.00
   11    5    7    -23.28      0.00
   13    5    7     25.02      0.00
   15    5    7    -14.15      0.00
   17    5    7     -7.13      0.00
   19    5    7     10.18      0.00
   21    5    7    -27.86      0.00
   23    5    7     19.57      0.00
   25    5    7    -17.61      0.00
   27    5    7      0.03      0.00
   29    5    7     -9.89      0.00
   31    5    7     -7.57      0.00
   33    5    7     -1.92      0.00
   35    5    7     10.42      0.00
   37    5    7     -9.94      0.00
   39    5    7      9.75      0.00
   41    5    7    -13.55      0.00
   43    5    7     11.25      0.00
   45    5    7      1.04      0.00
   47    5    7      6.22      0.00
   49    5    7     -1.57      0.00
   51    5    7     -0.82      0.00
   53    5    7     -2.43      0.00
   55    5    7      3.61      0.00
   57    5    7      0.14      0.00
   59    5    7      1.44      0.00
    0    6    7    -22.74      0.00
    2    6    7    -29.60      0.00
    4    6    7     -5.84      0.00
    6    6    7     12.00      0.00
    8    6    7     -8.07      0.00
   10    6    7     -1.18      0.00
   12    6    7    -20.87      0.00
   14    6    7    -19.25      0.00
   16    6    7      5.97      0.00
   18    6    7     -0.52      0.00
   20    6    7      7.60      0.00
   22    6    7     18.16      0.00
   24    6    7     -4.45      0.00
   26    6    7     25.95      0.00
   28    6    7      3.19      0.00
   30    6    7      4.41      0.00
   32    6    7      6.92      0.00
   34    6    7     -8.73      0.00
   36    6    7     11.62      0.00
   38    6    7     -0.89      0.00
   40    6    7      5.36      0.00
   42    6    7     -2.05      0.00
   44    6    7     -3.66      0.00
   46    6    7     -3.71      0.00
   48    6    7     -1.14      0.00
   50    6    7     -2.38      0.00
   52    6    7      1.16      0.00
   54    6    7     -3.28      0.00
   56    6    7      0.37      0.00
   58    6    7     -3.48      0.00
    1    7    7     31.65      0.00
    3    7    7     20.89      0.00
    5    7    7     35.01      0.00
    7    7    7     17.12      0.00
    9    7    7     25.24      0.00
   11    7    7      7.16      0.00
   13    7    7      9.09      0.00
   15    7    7     -0.13      0.00
   17    7    7     10.23      0.00
   19    7    7     11.19      0.00
   21    7    7      9.31      0.00
   23    7    7     24.20      0.00
   25    7    7      6.31      0.00
   27    7    7     29.15      0.00
   29    7    7      6.89      0.00
   31    7    7     18.81      0.00
   33    7    7      9.48      0.00
   35    7    7      9.74      0.00
   37    7    7      7.09      0.00
   39    7    7      2.82      0.00
   41    7    7     -0.26      0.00
   43    7    7      1.20      0.00
   45    7    7     -2.03      0.00
   47    7    7     -1.97      0.00
   49    7    7     -4.14      0.00
   51    7    7     -3.28      0.00
   53    7    7      2.21      0.00
   55    7    7      2.74      0.00
   57    7    7      7.37      0.00
    0    8    7    -26.88      0.00
    2    8    7    -43.39      0.00
    4    8    7    -15.42      0.00
    6    8    7    -20.27      0.00
    8    8    7    -14.33      0.00
   10    8    7    -21.79      0.00
   12    8    7    -20.70      0.00
   14    8    7    -11.72      0.00
   16    8    7      0.24      0.00
   18    8    7      1.18      0.00
   20    8    7      5.16      0.00
   22    8    7    -15.24      0.00
   24    8    7      0.95      0.00
   26    8    7    -15.66      0.00
   28    8    7      4.44      0.00
   30    8    7    -10.32      0.00
   32    8    7     -2.66      0.00
   34    8    7     -8.58      0.00
   36    8    7     -4.93      0.00
   38    8    7     -1.91      0.00
   40    8    7     -3.10      0.00
   42    8    7     -1.89      0.00
   44    8    7     -3.19      0.00
   46    8    7     -5.42      0.00
   48    8    7     -1.45      0.00
   50    8    7     -2.26      0.00
   52    8    7      0.47      0.00
   54    8    7      0.32      0.00
   56    8    7     -0.53      0.00
    1    9    7      8.63      0.00
    3    9    7     -6.16      0.00
    5    9    7     -8.82      0.00
    7    9    7     -9.43      0.00
    9    9    7     -4.53      0.00
   11    9    7     11.67      0.00
   13    9    7     -2.57      0.00
   15    9    7      4.42      0.00
   17    9    7     -0.29      0.00
   19    9    7     -0.41      0.00
   21    9    7      7.88      0.00
   23    9    7      3.81      0.00
   25    9    7      1.85      0.00
   27    9    7      7.79      0.00
   29    9    7     -5.82      0.00
   31    9    7     10.94      0.00
   33    9    7      0.72      0.00
   35    9    7     13.03      0.00
   37    9    7      7.40      0.00
   39    9    7      3.39      0.00
   41    9    7      2.90      0.00
   43    9    7      0.31      0.00
   45    9    7      3.09      0.00
   47    9    7      5.35      0.00
   49    9    7     -0.36      0.00
   51    9    7      0.75      0.00
   53    9    7     -5.47      0.00
   55    9    7     -1.78      0.00
    0   10    7     -4.57      0.00
    2   10    7      4.17      0.00
    4   10    7      2.39      0.00
    6   10    7     -1.53      0.00
    8   10    7      5.81      0.00
   10   10    7     -7.17      0.00
   12   10    7     -5.14      0.00
   14   10    7      1.48      0.00
   16   10    7     -7.57      0.00
   18   10    7     10.37      0.00
   20   10    7    -10.39      0.00
   22   10    7     -0.70      0.00
   24   10    7     -9.98      0.00
   26   10    7     -2.50      0.00
   28   10    7     -1.38      0.00
   30   10    7      5.11      0.00
   32   10    7     -0.23      0.00
   34   10    7      7.14      0.00
   36   10    7     -1.85      0.00
   38   10    7      2.85      0.00
   40   10    7      1.00      0.00
   42   10    7      0.09      0.00
   44   10    7      2.96      0.00
   46   10    7     -2.33      0.00
   48   10    7      0.45      0.00
   50   10    7     -2.93      0.00
   52   10    7     -0.44      0.00
   54   10    7     -2.00      0.00
    1   11    7     35.07      0.00
    3   11    7     11.81      0.00
    5   11    7     16.28      0.00
    7   11    7     -8.07      0.00
    9   11    7     17.03      0.00
   11   11    7      7.46      0.00
   13   11    7     15.65      0.00
   15   11    7      4.90      0.00
   17   11    7     -0.31      0.00
   19   11    7     -1.27      0.00
   21   11    7     -1.08      0.00
   23   11    7      5.79      0.00
   25   11    7      5.88      0.00
   27   11    7     10.08      0.00
   29   11    7      4.16      0.00
   31   11    7      8.57      0.00
   33   11    7      7.87      0.00
   35   11    7     12.77      0.00
   37   11    7     10.10      0.00
   39   11    7      8.20      0.00
   41   11    7      2.64      0.00
   43   11    7      4.17      0.00
   45   11    7      1.71      0.00
   47   11    7      4.06      0.00
   49   11    7     -0.41      0.00
   51   11    7      2.68      0.00
   53   11    7     -1.02      0.00
    0   12    7     -7.90      0.00
    2   12    7    -11.78      0.00
    4   12    7     -1.83      0.00
    6   12    7      2.49      0.00
    8   12    7     -4.31      0.00
   10   12    7     -5.34      0.00
   12   12    7    -12.25      0.00
   14   12    7    -10.96      0.00
   16   12    7     -1.87      0.00
   18   12    7     -6.35      0.00
   20   12    7     -5.29      0.00
   22   12    7     -9.61      0.00
   24   12    7    -11.45      0.00
   26   12    7     -2.74      0.00
   28   12    7     -2.27      0.00
   30   12    7     -0.77      0.00
   32   12    7     -1.38      0.00
   34   12    7     -7.38      0.00
   36   12    7     -6.33      0.00
   38   12    7     -4.47      0.00
   40   12    7     -5.36      0.00
   42   12    7      1.24      0.00
   44   12    7     -2.08      0.00
   46   12    7      0.71      0.00
   48   12    7      3.77      0.00
   50   12    7      1.61      0.00
   52   12    7      3.94      0.00
    1   13    7      2.08      0.00
    3   13    7     -2.79      0.00
    5   13    7      0.40      0.00
    7   13    7     -8.69      0.00
    9   13    7      1.81      0.00
   11   13    7     -9.72      0.00
   13   13    7      1.35      0.00
   15   13    7     -3.41      0.00
   17   13    7      4.35      0.00
   19   13    7      4.84      0.00
   21   13    7      1.23      0.00
   23   13    7      2.95      0.00
   25   13    7     -1.04      0.00
   27   13    7      1.02      0.00
   29   13    7      3.15      0.00
   31   13    7     -0.75      0.00
   33   13    7      2.69      0.00
   35   13    7     -1.79      0.00
   37   13    7     -2.40      0.00
   39   13    7     -0.25      0.00
   41   13    7     -1.11      0.00
   43   13    7      4.07      0.00
   45   13    7     -1.04      0.00
   47   13    7     -0.30      0.00
   49   13    7     -6.17      0.00
    0   14    7      5.23      0.00
    2   14    7     -0.62      0.00
    4   14    7     11.70      0.00
    6   14    7      7.91      0.00
    8   14    7      9.39      0.00
   10   14    7      0.42      0.00
   12   14    7     -0.58      0.00
   14   14    7     -2.25      0.00
   16   14    7     -1.95      0.00
   18   14    7     -1.86      0.00
   20   14    7     -4.88      0.00
   22   14    7     -2.54      0.00
   24   14    7     -3.43      0.00
   26   14    7     -2.21      0.00
   28   14    7     -6.54      0.00
   30   14    7     -6.02      0.00
   32   14    7     -5.64      0.00
   34   14    7     -3.64      0.00
   36   14    7      0.66      0.00
   38   14    7     -3.46      0.00
   40   14    7      2.19      0.00
   42   14    7     -3.30      0.00
   44   14    7      0.43      0.00
   46   14    7     -0.88      0.00
   48   14    7      1.28      0.00
    1   15    7     -5.07      0.00
    3   15    7      1.07      0.00
    5   15    7     -1.27      0.00
    7   15    7      4.55      0.00
    9   15    7      1.33      0.00
   11   15    7     -5.65      0.00
   13   15    7     -1.19      0.00
   15   15    7     -4.99      0.00
   17   15    7      2.98      0.00
   19   15    7      4.31      0.00
   21   15    7      0.18      0.00
   23   15    7      0.96      0.00
   25   15    7     -1.19      0.00
   27   15    7      2.09      0.00
   29   15    7      3.91      0.00
   31   15    7      5.37      0.00
   33   15    7      1.55      0.00
   35   15    7      3.36      0.00
   37   15    7     -1.79      0.00
   39   15    7      2.00      0.00
   41   15    7      0.01      0.00
   43   15    7      1.97      0.00
   45   15    7      0.04      0.00
    0   16    7     -5.07      0.00
    2   16    7     -9.37      0.00
    4   16    7     -6.46      0.00
    6   16    7    -11.61      0.00
    8   16    7     -7.56      0.00
   10   16    7     -7.11      0.00
   12   16    7     -5.77      0.00
   14   16    7     -3.38      0.00
   16   16    7     -7.60      0.00
   18   16    7     -6.80      0.00
   20   16    7     -6.25      0.00
   22   16    7     -1.99      0.00
   24   16    7     -0.51      0.00
   26   16    7     -1.17      0.00
   28   16    7     -4.42      0.00
   30   16    7     -2.80      0.00
   32   16    7     -2.29      0.00
   34   16    7      1.14      0.00
   36   16    7     -2.19      0.00
   38   16    7     -1.54      0.00
   40   16    7     -1.40      0.00
   42   16    7     -0.06      0.00
   44   16    7      1.83      0.00
    1   17    7    -11.02      0.00
    3   17    7     -9.63      0.00
    5   17    7     -9.92      0.00
    7   17    7     -8.70      0.00
    9   17    7    -15.29      0.00
   11   17    7    -11.40      0.00
   13   17    7    -14.40      0.00
   15   17    7     -8.62      0.00
   17   17    7     -7.14      0.00
   19   17    7     -5.85      0.00
   21   17    7     -5.43      0.00
   23   17    7     -4.45      0.00
   25   17    7     -4.31      0.00
   27   17    7     -3.22      0.00
   29   17    7     -1.04      0.00
   31   17    7     -0.77      0.00
   33   17    7      2.16      0.00
   35   17    7      0.24      0.00
   37   17    7     -0.86      0.00
   39   17    7     -3.41      0.00
   41   17    7     -2.68      0.00
    0   18    7     -4.52      0.00
    2   18    7     -3.68      0.00
    4   18    7     -0.56      0.00
    6   18    7     -0.68      0.00
    8   18    7     -1.26      0.00
   10   18    7     -2.87      0.00
   12   18    7     -0.91      0.00
   14   18    7      1.76      0.00
   16   18    7      0.96      0.00
   18   18    7      1.93      0.00
   20   18    7     -1.49      0.00
   22   18    7      2.82      0.00
   24   18    7      1.10      0.00
   26   18    7      3.35      0.00
   28   18    7      1.43      0.00
   30   18    7      2.19      0.00
   32   18    7      3.04      0.00
   34   18    7      2.31      0.00
   36   18    7     -2.14      0.00
   38   18    7      0.38      0.00
    1   19    7     -2.21      0.00
    3   19    7     -2.33      0.00
    5   19    7     -0.94      0.00
    7   19    7     -3.05      0.00
    9   19    7     -2.58      0.00
   11   19    7     -1.85      0.00
   13   19    7     -2.88      0.00
   15   19    7     -0.51      0.00
   17   19    7     -3.59      0.00
   19   19    7     -1.94      0.00
   21   19    7     -0.19      0.00
   23   19    7      0.76      0.00
   25   19    7      0.57      0.00
   27   19    7     -1.60      0.00
   29   19    7     -5.27      0.00
   31   19    7     -3.60      0.00
   33   19    7     -3.01      0.00
   35   19    7     -0.53      0.00
    0   20    7     -5.35      0.00
    2   20    7      6.17      0.00
    4   20    7     -3.66      0.00
    6   20    7      6.85      0.00
    8   20    7     -7.83      0.00
   10   20    7     -0.36      0.00
   12   20    7     -5.73      0.00
   14   20    7     -2.46      0.00
   16   20    7     -1.53      0.00
   18   20    7     -6.21      0.00
   20   20    7      0.40      0.00
   22   20    7      0.91      0.00
   24   20    7      8.62      0.00
   26   20    7      3.80      0.00
   28   20    7      2.62      0.00
   30   20    7     -3.26      0.00
   32   20    7     -1.34      0.00
    1   21    7     -0.40      0.00
    3   21    7     -0.90      0.00
    5   21    7      0.78      0.00
    7   21    7     -0.70      0.00
    9   21    7     -1.13      0.00
   11   21    7     -1.89      0.00
   13   21    7     -4.76      0.00
   15   21    7     -6.44      0.00
   17   21    7     -6.04      0.00
   19   21    7     -4.69      0.00
   21   21    7      3.20      0.00
   23   21    7      4.18      0.00
   25   21    7      6.88      0.00
   27   21    7      3.79      0.00
    0   22    7      3.20      0.00
    2   22    7      1.88      0.00
    4   22    7      3.70      0.00
    6   22    7      3.79      0.00
    8   22    7      1.78      0.00
   10   22    7      5.17      0.00
   12   22    7      0.05      0.00
   14   22    7      6.06      0.00
   16   22    7      1.16      0.00
   18   22    7      6.50      0.00
   20   22    7      6.16      0.00
   22   22    7      7.80      0.00
    1   23    7      4.99      0.00
    3   23    7      6.17      0.00
    5   23    7      3.88      0.00
    7   23    7      4.70      0.00
    9   23    7     -0.06      0.00
   11   23    7      1.40      0.00
   13   23    7     -3.14      0.00
    4    0    8     17.64      0.00
    6    0    8     47.51      0.00
    8    0    8     37.00      0.00
   10    0    8     38.21      0.00
   12    0    8     14.95      0.00
   14    0    8      0.67      0.00
   16    0    8     17.97      0.00
   18    0    8     31.34      0.00
   20    0    8     48.31      0.00
   22    0    8     26.54      0.00
   24    0    8     22.23      0.00
   26    0    8     -4.69      0.00
   28    0    8     35.34      0.00
   30    0    8     21.68      0.00
   32    0    8     49.11      0.00
   34    0    8     12.79      0.00
   36    0    8     10.58      0.00
   38    0    8     -2.55      0.00
   40    0    8     -1.65      0.00
   42    0    8      0.85      0.00
   44    0    8     -6.85      0.00
   46    0    8     -6.66      0.00
   48    0    8     -5.14      0.00
   50    0    8      1.65      0.00
   52    0    8      6.69      0.00
   54    0    8      6.50      0.00
   56    0    8      4.62      0.00
   58    0    8      0.73      0.00
   60    0    8     -0.97      0.00
    1    1    8     -5.76      0.00
    3    1    8    -23.93      0.00
    5    1    8     -0.09      0.00
    7    1    8    -38.94      0.00
    9    1    8     -3.27      0.00
   11    1    8    -30.38      0.00
   13    1    8    -13.62      0.00
   15    1    8    -20.87      0.00
   17    1    8    -26.00      0.00
   19    1    8    -20.90      0.00
   21    1    8    -16.48      0.00
   23    1    8    -10.43      0.00
   25    1    8     -2.05      0.00
   27    1    8    -12.21      0.00
   29    1    8     -5.69      0.00
   31    1    8    -20.51      0.00
   33    1    8     -4.57      0.00
   35    1    8     -9.08      0.00
   37    1    8     -2.59      0.00
   39    1    8      0.99      0.00
   41    1    8    -10.01      0.00
   43    1    8     -0.79      0.00
   45    1    8    -10.44      0.00
   47    1    8     -1.86      0.00
   49    1    8     -4.01      0.00
   51    1    8     -0.54      0.00
   53    1    8     -5.16      0.00
   55    1    8     -1.96      0.00
   57    1    8     -8.67      0.00
   59    1    8     -3.18      0.00
    0    2    8   -146.77      0.00
    2    2    8   -103.78      0.00
    4    2    8    -88.18      0.00
    6    2    8    -11.13      0.00
    8    2    8    -34.92      0.00
   10    2    8    -16.89      0.00
   12    2    8    -31.75      0.00
   14    2    8    -40.76      0.00
   16    2    8     22.83      0.00
   18    2    8     -5.27      0.00
   20    2    8     29.41      0.00
   22    2    8    -19.31      0.00
   24    2    8    -29.99      0.00
   26    2    8    -30.52      0.00
   28    2    8    -18.07      0.00
   30    2    8     -6.11      0.00
   32    2    8      2.48      0.00
   34    2    8    -17.09      0.00
   36    2    8    -10.56      0.00
   38    2    8    -18.53      0.00
   40    2    8     -5.97      0.00
   42    2    8     -4.96      0.00
   44    2    8     -7.37      0.00
   46    2    8     -4.70      0.00
   48    2    8     -8.36      0.00
   50    2    8     -3.48      0.00
   52    2    8     -3.62      0.00
   54    2    8     -5.65      0.00
   56    2    8     -2.92      0.00
   58    2    8     -3.67      0.00
   60    2    8     -0.93      0.00
    1    3    8     11.13      0.00
    3    3    8     -1.30      0.00
    5    3    8    -32.02      0.00
    7    3    8    -21.51      0.00
    9    3    8     -7.12      0.00
   11    3    8     17.72      0.00
   13    3    8     25.77      0.00
   15    3    8     23.78      0.00
   17    3    8     -1.89      0.00
   19    3    8     17.33      0.00
   21    3    8     -0.55      0.00
   23    3    8     19.32      0.00
   25    3    8     14.04      0.00
   27    3    8     -5.85      0.00
   29    3    8      4.35      0.00
   31    3    8    -18.75      0.00
   33    3    8     -4.90      0.00
   35    3    8     -6.42      0.00
   37    3    8     -6.68      0.00
   39    3    8      3.16      0.00
   41    3    8     -9.10      0.00
   43    3    8     -0.27      0.00
   45    3    8     -9.36      0.00
   47    3    8      0.60      0.00
   49    3    8     -0.56      0.00
   51    3    8      7.29      0.00
   53    3    8      3.15      0.00
   55    3    8      4.85      0.00
   57    3    8      0.19      0.00
   59    3    8      0.51      0.00
    0    4    8     23.49      0.00
    2    4    8     89.11      0.00
    4    4    8     45.20      0.00
    6    4    8     75.16      0.00
    8    4    8     41.61      0.00
   10    4    8     29.90      0.00
   12    4    8      0.17      0.00
   14    4    8     15.06      0.00
   16    4    8      8.20      0.00
   18    4    8     21.08      0.00
   20    4    8     27.33      0.00
   22    4    8     -5.03      0.00
   24    4    8     22.85      0.00
   26    4    8      2.78      0.00
   28    4    8     28.46      0.00
   30    4    8     31.92      0.00
   32    4    8     11.39      0.00
   34    4    8     21.86      0.00
   36    4    8     -0.91      0.00
   38    4    8     21.13      0.00
   40    4    8     12.63      0.00
   42    4    8     19.88      0.00
   44    4    8      4.80      0.00
   46    4    8      9.29      0.00
   48    4    8     -1.35      0.00
   50    4    8     11.80      0.00
   52    4    8     -1.83      0.00
   54    4    8      7.19      0.00
   56    4    8     -4.15      0.00
   58    4    8      1.89      0.00
    1    5    8     -7.65      0.00
    3    5    8    -23.69      0.00
    5    5    8    -56.02      0.00
    7    5    8    -50.35      0.00
    9    5    8    -49.47      0.00
   11    5    8    -24.09      0.00
   13    5    8    -23.51      0.00
   15    5    8    -33.87      0.00
   17    5    8    -26.14      0.00
   19    5    8    -44.96      0.00
   21    5    8    -12.19      0.00
   23    5    8    -32.01      0.00
   25    5    8    -16.39      0.00
   27    5    8    -25.11      0.00
   29    5    8    -21.73      0.00
   31    5    8    -11.60      0.00
   33    5    8    -14.38      0.00
   35    5    8    -14.22      0.00
   37    5    8    -13.33      0.00
   39    5    8    -18.42      0.00
   41    5    8     -5.32      0.00
   43    5    8    -10.47      0.00
   45    5    8     -1.50      0.00
   47    5    8     -4.99      0.00
   49    5    8     -2.98      0.00
   51    5    8     -4.28      0.00
   53    5    8     -3.76      0.00
   55    5    8     -6.21      0.00
   57    5    8     -2.25      0.00
   59    5    8     -4.84      0.00
    0    6    8    -15.67      0.00
    2    6    8      2.40      0.00
    4    6    8    -16.86      0.00
    6    6    8    -13.41      0.00
    8    6    8      2.47      0.00
   10    6    8      0.57      0.00
   12    6    8      8.96      0.00
   14    6    8      3.67      0.00
   16    6    8    -19.96      0.00
   18    6    8     -5.80      0.00
   20    6    8    -18.78      0.00
   22    6    8     -9.65      0.00
   24    6    8      1.58      0.00
   26    6    8    -16.77      0.00
   28    6    8      2.14      0.00
   30    6    8    -12.64      0.00
   32    6    8    -13.71      0.00
   34    6    8     -3.99      0.00
   36    6    8    -18.64      0.00
   38    6    8      4.73      0.00
   40    6    8     -6.04      0.00
   42    6    8      0.91      0.00
   44    6    8     -5.34      0.00
   46    6    8     -3.95      0.00
   48    6    8     -4.50      0.00
   50    6    8     -0.40      0.00
   52    6    8     -5.87      0.00
   54    6    8     -6.53      0.00
   56    6    8     -7.43      0.00
   58    6    8     -5.05      0.00
    1    7    8     18.60      0.00
    3    7    8      6.93      0.00
    5    7    8     12.47      0.00
    7    7    8      6.92      0.00
    9    7    8     -1.04      0.00
   11    7    8     22.57      0.00
   13    7    8    -12.36      0.00
   15    7    8     10.92      0.00
   17    7    8    -15.84      0.00
   19    7    8     -6.44      0.00
   21    7    8     -2.89      0.00
   23    7    8     -7.48      0.00
   25    7    8     -5.90      0.00
   27    7    8     -8.85      0.00
   29    7    8     -4.75      0.00
   31    7    8     -2.11      0.00
   33    7    8     10.16      0.00
   35    7    8     -4.90      0.00
   37    7    8      8.75      0.00
   39    7    8     -7.24      0.00
   41    7    8      5.52      0.00
   43    7    8      1.17      0.00
   45    7    8      3.87      0.00
   47    7    8      0.56      0.00
   49    7    8     -0.63      0.00
   51    7    8     -3.79      0.00
   53    7    8     -2.59      0.00
   55    7    8     -2.66      0.00
   57    7    8     -2.35      0.00
    0    8    8      9.91      0.00
    2    8    8     11.13      0.00
    4    8    8     18.12      0.00
    6    8    8     19.98      0.00
    8    8    8     24.44      0.00
   10    8    8     10.00      0.00
   12    8    8     38.29      0.00
   14    8    8      1.02      0.00
   16    8    8     45.95      0.00
   18    8    8     -4.25      0.00
   20    8    8     31.38      0.00
   22    8    8      6.74      0.00
   24    8    8     24.56      0.00
   26    8    8     16.32      0.00
   28    8    8     24.82      0.00
   30    8    8      7.85      0.00
   32    8    8     22.20      0.00
   34    8    8     -0.03      0.00
   36    8    8     16.16      0.00
   38    8    8      4.95      0.00
   40    8    8      9.66      0.00
   42    8    8      7.63      0.00
   44    8    8      1.56      0.00
   46    8    8      4.86      0.00
   48    8    8      4.43      0.00
   50    8    8      7.08      0.00
   52    8    8      7.03      0.00
   54    8    8      5.02      0.00
   56    8    8      2.20      0.00
    1    9    8     -4.18      0.00
    3    9    8      1.43      0.00
    5    9    8     -7.33      0.00
    7    9    8     -3.25      0.00
    9    9    8     -5.43      0.00
   11    9    8    -15.10      0.00
   13    9    8     -5.88      0.00
   15    9    8    -18.11      0.00
   17    9    8    -10.68      0.00
   19    9    8     -5.10      0.00
   21    9    8     -4.56      0.00
   23    9    8      1.62      0.00
   25    9    8      2.97      0.00
   27    9    8     -6.43      0.00
   29    9    8      6.10      0.00
   31    9    8     -7.35      0.00
   33    9    8      2.67      0.00
   35    9    8     -3.29      0.00
   37    9    8     -2.70      0.00
   39    9    8      0.56      0.00
   41    9    8     -4.18      0.00
   43    9    8     -0.05      0.00
   45    9    8     -3.00      0.00
   47    9    8     -0.44      0.00
   49    9    8      0.27      0.00
   51    9    8     -0.09      0.00
   53    9    8      1.82      0.00
   55    9    8      0.93      0.00
    0   10    8    -18.06      0.00
    2   10    8    -19.82      0.00
    4   10    8     -5.59      0.00
    6   10    8     -1.60      0.00
    8   10    8    -17.23      0.00
   10   10    8    -25.58      0.00
   12   10    8    -27.90      0.00
   14   10    8    -29.07      0.00
   16   10    8     -7.66      0.00
   18   10    8    -16.83      0.00
   20   10    8     -2.94      0.00
   22   10    8    -12.80      0.00
   24   10    8     -5.53      0.00
   26   10    8     -4.42      0.00
   28   10    8      0.05      0.00
   30   10    8      3.81      0.00
   32   10    8      3.27      0.00
   34   10    8     -1.93      0.00
   36   10    8     -2.17      0.00
   38   10    8     -5.82      0.00
   40   10    8     -2.03      0.00
   42   10    8     -2.15      0.00
   44   10    8     -5.84      0.00
   46   10    8     -3.65      0.00
   48   10    8     -9.17      0.00
   50   10    8     -2.80      0.00
   52   10    8     -4.22      0.00
   54   10    8     -1.19      0.00
    1   11    8      7.72      0.00
    3   11    8      9.74      0.00
    5   11    8     -1.45      0.00
    7   11    8      9.30      0.00
    9   11    8      2.59      0.00
   11   11    8     15.37      0.00
   13   11    8      7.04      0.00
   15   11    8      9.33      0.00
   17   11    8      6.02      0.00
   19   11    8      8.57      0.00
   21   11    8     14.62      0.00
   23   11    8     14.13      0.00
   25   11    8     10.48      0.00
   27   11    8      5.50      0.00
   29   11    8      0.33      0.00
   31   11    8      0.39      0.00
   33   11    8      3.36      0.00
   35   11    8      6.78      0.00
   37   11    8      9.20      0.00
   39   11    8      9.18      0.00
   41   11    8      5.07      0.00
   43   11    8      4.79      0.00
   45   11    8      3.28      0.00
   47   11    8      4.91      0.00
   49   11    8      5.05      0.00
   51   11    8      2.20      0.00
   53   11    8      2.76      0.00
    0   12    8      6.28      0.00
    2   12    8     -2.80      0.00
    4   12    8     13.51      0.00
    6   12    8      8.78      0.00
    8   12    8     13.31      0.00
   10   12    8     11.13      0.00
   12   12    8     12.09      0.00
   14   12    8     15.25      0.00
   16   12    8     19.32      0.00
   18   12    8     15.24      0.00
   20   12    8     19.30      0.00
   22   12    8     10.08      0.00
   24   12    8     10.37      0.00
   26   12    8      3.20      0.00
   28   12    8      5.97      0.00
   30   12    8      4.89      0.00
   32   12    8      7.31      0.00
   34   12    8      7.16      0.00
   36   12    8      3.41      0.00
   38   12    8      7.48      0.00
   40   12    8      2.18      0.00
   42   12    8      6.44      0.00
   44   12    8      1.40      0.00
   46   12    8      5.78      0.00
   48   12    8      3.43      0.00
   50   12    8      3.83      0.00
    1   13    8      5.68      0.00
    3   13    8     -3.61      0.00
    5   13    8     -2.71      0.00
    7   13    8     -8.29      0.00
    9   13    8     -2.40      0.00
   11   13    8      3.81      0.00
   13   13    8     -0.34      0.00
   15   13    8      0.73      0.00
   17   13    8     -5.35      0.00
   19   13    8     -2.29      0.00
   21   13    8      0.95      0.00
   23   13    8      3.47      0.00
   25   13    8      2.92      0.00
   27   13    8      3.71      0.00
   29   13    8     -1.22      0.00
   31   13    8      2.33      0.00
   33   13    8     -0.08      0.00
   35   13    8      0.38      0.00
   37   13    8      1.09      0.00
   39   13    8     -3.26      0.00
   41   13    8     -2.38      0.00
   43   13    8     -0.74      0.00
   45   13    8     -0.33      0.00
   47   13    8      2.68      0.00
   49   13    8     -1.76      0.00
    0   14    8     -1.83      0.00
    2   14    8      9.35      0.00
    4   14    8     -0.14      0.00
    6   14    8      2.78      0.00
    8   14    8      0.64      0.00
   10   14    8      0.84      0.00
   12   14    8     -0.38      0.00
   14   14    8      3.40      0.00
   16   14    8     -9.93      0.00
   18   14    8     -1.55      0.00
   20   14    8    -13.22      0.00
   22   14    8     -2.00      0.00
   24   14    8     -5.01      0.00
   26   14    8     -1.48      0.00
   28   14    8     -3.15      0.00
   30   14    8     -0.06      0.00
   32   14    8     -3.23      0.00
   34   14    8      1.64      0.00
   36   14    8     -3.03      0.00
   38   14    8     -1.81      0.00
   40   14    8     -4.23      0.00
   42   14    8     -6.59      0.00
   44   14    8     -3.09      0.00
   46   14    8     -2.80      0.00
   48   14    8      3.15      0.00
    1   15    8     -0.90      0.00
    3   15    8      0.86      0.00
    5   15    8      1.18      0.00
    7   15    8      2.94      0.00
    9   15    8      4.62      0.00
   11   15    8      3.12      0.00
   13   15    8      4.92      0.00
   15   15    8      5.77      0.00
   17   15    8      7.89      0.00
   19   15    8      8.10      0.00
   21   15    8      5.02      0.00
   23   15    8      2.38      0.00
   25   15    8      2.93      0.00
   27   15    8      5.62      0.00
   29   15    8      8.29      0.00
   31   15    8      6.60      0.00
   33   15    8      2.34      0.00
   35   15    8      2.18      0.00
   37   15    8      1.00      0.00
   39   15    8      1.67      0.00
   41   15    8      4.49      0.00
   43   15    8     -0.99      0.00
   45   15    8      6.01      0.00
    0   16    8      0.34      0.00
    2   16    8     11.71      0.00
    4   16    8     -0.32      0.00
    6   16    8      5.87      0.00
    8   16    8      6.58      0.00
   10   16    8      8.71      0.00
   12   16    8     13.59      0.00
   14   16    8      9.37      0.00
   16   16    8      6.22      0.00
   18   16    8      4.95      0.00
   20   16    8      3.42      0.00
   22   16    8      6.40      0.00
   24   16    8      5.89      0.00
   26   16    8      4.75      0.00
   28   16    8      1.69      0.00
   30   16    8      2.89      0.00
   32   16    8      1.14      0.00
   34   16    8      4.48      0.00
   36   16    8      3.53      0.00
   38   16    8      4.11      0.00
   40   16    8      4.24      0.00
   42   16    8      2.30      0.00
   44   16    8      2.42      0.00
    1   17    8     -5.71      0.00
    3   17    8     -5.22      0.00
    5   17    8     -2.09      0.00
    7   17    8     -3.81      0.00
    9   17    8     -1.34      0.00
   11   17    8     -7.80      0.00
   13   17    8     -5.94      0.00
   15   17    8     -7.26      0.00
   17   17    8     -4.44      0.00
   19   17    8     -1.15      0.00
   21   17    8     -4.11      0.00
   23   17    8     -2.26      0.00
   25   17    8     -5.03      0.00
   27   17    8     -0.60      0.00
   29   17    8     -4.17      0.00
   31   17    8     -3.27      0.00
   33   17    8     -5.61      0.00
   35   17    8     -3.32      0.00
   37   17    8     -0.50      0.00
   39   17    8      0.13      0.00
   41   17    8     -3.87      0.00
    0   18    8      1.11      0.00
    2   18    8     -5.31      0.00
    4   18    8     -4.47      0.00
    6   18    8     -4.35      0.00
    8   18    8     -4.21      0.00
   10   18    8      0.58      0.00
   12   18    8     -1.47      0.00
   14   18    8     -4.62      0.00
   16   18    8     -2.30      0.00
   18   18    8     -5.13      0.00
   20   18    8     -2.65      0.00
   22   18    8     -3.92      0.00
   24   18    8     -4.70      0.00
   26   18    8     -3.80      0.00
   28   18    8      0.25      0.00
   30   18    8     -0.68      0.00
   32   18    8      2.29      0.00
   34   18    8     -2.56      0.00
   36   18    8     -0.95      0.00
   38   18    8     -3.12      0.00
    1   19    8     -0.79      0.00
    3   19    8     -1.88      0.00
    5   19    8     -3.94      0.00
    7   19    8     -2.54      0.00
    9   19    8     -4.27      0.00
   11   19    8     -1.19      0.00
   13   19    8     -4.09      0.00
   15   19    8     -0.81      0.00
   17   19    8      0.03      0.00
   19   19    8      1.52      0.00
   21   19    8      0.42      0.00
   23   19    8     -1.83      0.00
   25   19    8     -3.44      0.00
   27   19    8     -1.16      0.00
   29   19    8      2.15      0.00
   31   19    8      2.22      0.00
   33   19    8      5.37      0.00
   35   19    8      0.67      0.00
    0   20    8      3.45      0.00
    2   20    8      1.18      0.00
    4   20    8      1.30      0.00
    6   20    8     -1.54      0.00
    8   20    8      0.86      0.00
   10   20    8     -0.17      0.00
   12   20    8      2.36      0.00
   14   20    8      2.01      0.00
   16   20    8      6.12      0.00
   18   20    8      0.61      0.00
   20   20    8      2.67      0.00
   22   20    8     -4.95      0.00
   24   20    8     -2.91      0.00
   26   20    8     -0.59      0.00
   28   20    8      1.44      0.00
   30   20    8      4.35      0.00
    1   21    8     -0.15      0.00
    3   21    8     -0.57      0.00
    5   21    8      2.29      0.00
    7   21    8     -0.40      0.00
    9   21    8     -3.19      0.00
   11   21    8     -2.21      0.00
   13   21    8     -5.84      0.00
   15   21    8      1.56      0.00
   17   21    8     -3.02      0.00
   19   21    8     -0.18      0.00
   21   21    8     -6.80      0.00
   23   21    8     -6.41      0.00
   25   21    8     -6.13      0.00
    0   22    8      3.83      0.00
    2   22    8     -0.46      0.00
    4   22    8      1.12      0.00
    6   22    8     -1.49      0.00
    8   22    8     -0.50      0.00
   10   22    8     -1.84      0.00
   12   22    8      0.30      0.00
   14   22    8     -1.61      0.00
   16   22    8      2.13      0.00
   18   22    8     -2.01      0.00
   20   22    8     -2.44      0.00
    1   23    8      8.10      0.00
    3   23    8     10.02      0.00
    5   23    8      9.54      0.00
    7   23    8      5.00      0.00
    9   23    8      5.76      0.00
   11   23    8     -3.95      0.00
    1    1    9    -43.88      0.00
    3    1    9    -55.68      0.00
    5    1    9    -24.40      0.00
    7    1    9    -65.96      0.00
    9    1    9    -34.13      0.00
   11    1    9    -62.31      0.00
   13    1    9     -7.86      0.00
   15    1    9    -32.26      0.00
   17    1    9     10.95      0.00
   19    1    9    -23.01      0.00
   21    1    9      4.75      0.00
   23    1    9      4.51      0.00
   25    1    9      6.69      0.00
   27    1    9     19.07      0.00
   29    1    9     -7.11      0.00
   31    1    9      7.13      0.00
   33    1    9     -6.98      0.00
   35    1    9      7.82      0.00
   37    1    9      0.49      0.00
   39    1    9      0.90      0.00
   41    1    9     -5.84      0.00
   43    1    9     -2.78      0.00
   45    1    9     -1.33      0.00
   47    1    9      1.19      0.00
   49    1    9     -2.98      0.00
   51    1    9     -5.63      0.00
   53    1    9     -5.82      0.00
   55    1    9     -5.25      0.00
   57    1    9      0.06      0.00
   59    1    9     -3.90      0.00
    0    2    9     43.66      0.00
    2    2    9     58.96      0.00
    4    2    9     34.06      0.00
    6    2    9     43.52      0.00
    8    2    9      1.22      0.00
   10    2    9     23.88      0.00
   12    2    9    -32.36      0.00
   14    2    9     22.47      0.00
   16    2    9    -26.51      0.00
   18    2    9     27.42      0.00
   20    2    9    -10.41      0.00
   22    2    9      4.28      0.00
   24    2    9    -14.97      0.00
   26    2    9     -8.06      0.00
   28    2    9     -6.88      0.00
   30    2    9     19.10      0.00
   32    2    9      3.89      0.00
   34    2    9     30.78      0.00
   36    2    9     -8.42      0.00
   38    2    9     15.50      0.00
   40    2    9    -11.45      0.00
   42    2    9      8.78      0.00
   44    2    9     -0.43      0.00
   46    2    9      5.25      0.00
   48    2    9     -2.16      0.00
   50    2    9     -0.10      0.00
   52    2    9     -4.64      0.00
   54    2    9     -0.38      0.00
   56    2    9      1.25      0.00
   58    2    9     -2.46      0.00
    1    3    9    -12.25      0.00
    3    3    9    -35.66      0.00
    5    3    9    -22.65      0.00
    7    3    9    -49.88      0.00
    9    3    9     -9.39      0.00
   11    3    9     -5.81      0.00
   13    3    9     11.65      0.00
   15    3    9     -4.60      0.00
   17    3    9    -11.57      0.00
   19    3    9    -35.30      0.00
   21    3    9      2.30      0.00
   23    3    9     -9.28      0.00
   25    3    9     17.76      0.00
   27    3    9      1.22      0.00
   29    3    9    -10.80      0.00
   31    3    9      0.03      0.00
   33    3    9     -8.37      0.00
   35    3    9     11.50      0.00
   37    3    9      0.75      0.00
   39    3    9     -1.19      0.00
   41    3    9     -5.32      0.00
   43    3    9     -7.90      0.00
   45    3    9      0.70      0.00
   47    3    9     -3.11      0.00
   49    3    9      1.54      0.00
   51    3    9     -2.87      0.00
   53    3    9      1.74      0.00
   55    3    9      0.32      0.00
   57    3    9      2.07      0.00
   59    3    9     -0.73      0.00
    0    4    9    -40.50      0.00
    2    4    9    -24.20      0.00
    4    4    9     11.33      0.00
    6    4    9     18.61      0.00
    8    4    9     19.60      0.00
   10    4    9    -19.68      0.00
   12    4    9    -15.01      0.00
   14    4    9     -9.24      0.00
   16    4    9     17.03      0.00
   18    4    9     20.60      0.00
   20    4    9     15.47      0.00
   22    4    9     -4.45      0.00
   24    4    9     -3.09      0.00
   26    4    9     -3.98      0.00
   28    4    9      5.35      0.00
   30    4    9      7.16      0.00
   32    4    9     10.34      0.00
   34    4    9      2.27      0.00
   36    4    9      9.30      0.00
   38    4    9     -7.44      0.00
   40    4    9      5.21      0.00
   42    4    9     -4.79      0.00
   44    4    9      8.64      0.00
   46    4    9      3.58      0.00
   48    4    9      8.19      0.00
   50    4    9     -0.30      0.00
   52    4    9      5.38      0.00
   54    4    9     -3.33      0.00
   56    4    9      2.96      0.00
   58    4    9     -2.37      0.00
    1    5    9    -13.94      0.00
    3    5    9     -4.16      0.00
    5    5    9      3.14      0.00
    7    5    9     -3.34      0.00
    9    5    9     28.14      0.00
   11    5    9    -11.05      0.00
   13    5    9     35.69      0.00
   15    5    9      1.86      0.00
   17    5    9      1.61      0.00
   19    5    9     18.56      0.00
   21    5    9    -22.03      0.00
   23    5    9     20.50      0.00
   25    5    9     -9.01      0.00
   27    5    9     -1.10      0.00
   29    5    9     -0.72      0.00
   31    5    9     -6.50      0.00
   33    5    9     -1.59      0.00
   35    5    9     10.54      0.00
   37    5    9    -10.58      0.00
   39    5    9     11.57      0.00
   41    5    9    -13.71      0.00
   43    5    9      9.12      0.00
   45    5    9     -1.20      0.00
   47    5    9      7.03      0.00
   49    5    9      0.10      0.00
   51    5    9      4.43      0.00
   53    5    9      0.16      0.00
   55    5    9      8.12      0.00
   57    5    9      1.76      0.00
    0    6    9     -2.67      0.00
    2    6    9      0.15      0.00
    4    6    9      0.71      0.00
    6    6    9     18.16      0.00
    8    6    9     -8.60      0.00
   10    6    9      8.47      0.00
   12    6    9    -10.33      0.00
   14    6    9      0.63      0.00
   16    6    9      7.19      0.00
   18    6    9      2.83      0.00
   20    6    9      1.23      0.00
   22    6    9      7.43      0.00
   24    6    9      0.40      0.00
   26    6    9     15.73      0.00
   28    6    9     10.23      0.00
   30    6    9     -0.06      0.00
   32    6    9      7.82      0.00
   34    6    9     -9.03      0.00
   36    6    9     10.01      0.00
   38    6    9     -0.29      0.00
   40    6    9      5.28      0.00
   42    6    9     -0.34      0.00
   44    6    9     -1.94      0.00
   46    6    9     -1.66      0.00
   48    6    9     -1.10      0.00
   50    6    9      1.01      0.00
   52    6    9      2.71      0.00
   54    6    9      2.45      0.00
   56    6    9      3.26      0.00
    1    7    9     23.77      0.00
    3    7    9     27.03      0.00
    5    7    9     30.18      0.00
    7    7    9     19.33      0.00
    9    7    9     15.57      0.00
   11    7    9     -7.31      0.00
   13    7    9      5.99      0.00
   15    7    9     -9.11      0.00
   17    7    9     17.37      0.00
   19    7    9      4.21      0.00
   21    7    9     10.92      0.00
   23    7    9     10.38      0.00
   25    7    9     -4.53      0.00
   27    7    9     15.84      0.00
   29    7    9     -1.34      0.00
   31    7    9     14.69      0.00
   33    7    9      4.15      0.00
   35    7    9      6.69      0.00
   37    7    9      0.44      0.00
   39    7    9      2.30      0.00
   41    7    9      0.38      0.00
   43    7    9      4.72      0.00
   45    7    9      2.91      0.00
   47    7    9      0.59      0.00
   49    7    9     -1.86      0.00
   51    7    9     -3.67      0.00
   53    7    9      1.25      0.00
   55    7    9     -1.07      0.00
   57    7    9      3.03      0.00
    0    8    9     -0.46      0.00
    2    8    9    -15.95      0.00
    4    8    9     -9.98      0.00
    6    8    9    -11.72      0.00
    8    8    9      0.61      0.00
   10    8    9     17.40      0.00
   12    8    9     19.12      0.00
   14    8    9     20.72      0.00
   16    8    9      9.42      0.00
   18    8    9      3.28      0.00
   20    8    9      6.64      0.00
   22    8    9      0.63      0.00
   24    8    9     13.59      0.00
   26    8    9     -3.85      0.00
   28    8    9      2.87      0.00
   30    8    9    -16.41      0.00
   32    8    9     -7.99      0.00
   34    8    9    -11.16      0.00
   36    8    9     -5.30      0.00
   38    8    9     -1.55      0.00
   40    8    9     -5.70      0.00
   42    8    9     -3.27      0.00
   44    8    9     -4.17      0.00
   46    8    9     -4.17      0.00
   48    8    9      0.63      0.00
   50    8    9     -1.18      0.00
   52    8    9      3.05      0.00
   54    8    9      0.97      0.00
   56    8    9      2.14      0.00
    1    9    9     -1.83      0.00
    3    9    9    -13.75      0.00
    5    9    9     -5.90      0.00
    7    9    9    -10.64      0.00
    9    9    9     -2.39      0.00
   11    9    9      8.43      0.00
   13    9    9     -1.20      0.00
   15    9    9      4.21      0.00
   17    9    9     -1.25      0.00
   19    9    9     -0.18      0.00
   21    9    9      1.63      0.00
   23    9    9     -0.45      0.00
   25    9    9     -9.04      0.00
   27    9    9     -1.94      0.00
   29    9    9    -17.40      0.00
   31    9    9      0.34      0.00
   33    9    9    -10.02      0.00
   35    9    9      0.26      0.00
   37    9    9     -1.51      0.00
   39    9    9     -6.40      0.00
   41    9    9     -0.87      0.00
   43    9    9     -4.69      0.00
   45    9    9      1.06      0.00
   47    9    9     -0.99      0.00
   49    9    9     -0.56      0.00
   51    9    9     -2.54      0.00
   53    9    9     -1.01      0.00
   55    9    9     -1.68      0.00
    0   10    9      3.37      0.00
    2   10    9     11.71      0.00
    4   10    9      5.51      0.00
    6   10    9      2.87      0.00
    8   10    9      9.02      0.00
   10   10    9      2.40      0.00
   12   10    9      7.23      0.00
   14   10    9      6.85      0.00
   16   10    9     -2.26      0.00
   18   10    9      3.38      0.00
   20   10    9     -7.99      0.00
   22   10    9      2.09      0.00
   24   10    9      0.65      0.00
   26   10    9      6.67      0.00
   28   10    9      3.99      0.00
   30   10    9      6.15      0.00
   32   10    9      0.02      0.00
   34   10    9      3.64      0.00
   36   10    9     -1.03      0.00
   38   10    9     -2.04      0.00
   40   10    9      0.13      0.00
   42   10    9     -2.52      0.00
   44   10    9      1.39      0.00
   46   10    9     -2.71      0.00
   48   10    9     -2.29      0.00
   50   10    9     -2.48      0.00
   52   10    9     -0.45      0.00
   54   10    9      2.36      0.00
    1   11    9     12.97      0.00
    3   11    9     -3.11      0.00
    5   11    9      5.42      0.00
    7   11    9    -13.82      0.00
    9   11    9      5.34      0.00
   11   11    9     -1.82      0.00
   13   11    9      4.50      0.00
   15   11    9      1.15      0.00
   17   11    9     -0.38      0.00
   19   11    9      1.20      0.00
   21   11    9      1.54      0.00
   23   11    9      5.31      0.00
   25   11    9      4.38      0.00
   27   11    9      7.07      0.00
   29   11    9     -0.07      0.00
   31   11    9      1.37      0.00
   33   11    9     -2.88      0.00
   35   11    9      2.70      0.00
   37   11    9      1.35      0.00
   39   11    9      1.72      0.00
   41   11    9     -2.09      0.00
   43   11    9     -4.62      0.00
   45   11    9     -6.44      0.00
   47   11    9     -4.38      0.00
   49   11    9     -7.73      0.00
   51   11    9      0.37      0.00
    0   12    9    -14.91      0.00
    2   12    9    -19.45      0.00
    4   12    9    -11.50      0.00
    6   12    9     -9.88      0.00
    8   12    9    -16.19      0.00
   10   12    9    -15.57      0.00
   12   12    9    -18.93      0.00
   14   12    9    -13.46      0.00
   16   12    9     -8.18      0.00
   18   12    9     -7.56      0.00
   20   12    9     -9.65      0.00
   22   12    9     -9.87      0.00
   24   12    9    -11.98      0.00
   26   12    9     -4.96      0.00
   28   12    9     -2.70      0.00
   30   12    9     -1.07      0.00
   32   12    9      0.68      0.00
   34   12    9     -5.30      0.00
   36   12    9     -5.47      0.00
   38   12    9     -3.34      0.00
   40   12    9     -1.82      0.00
   42   12    9      5.02      0.00
   44   12    9      3.53      0.00
   46   12    9     -0.45      0.00
   48   12    9      0.69      0.00
   50   12    9     -3.33      0.00
    1   13    9     -4.32      0.00
    3   13    9     -7.73      0.00
    5   13    9     -4.60      0.00
    7   13    9    -12.77      0.00
    9   13    9     -2.10      0.00
   11   13    9    -12.76      0.00
   13   13    9     -2.31      0.00
   15   13    9     -7.35      0.00
   17   13    9     -1.25      0.00
   19   13    9     -0.55      0.00
   21   13    9     -0.44      0.00
   23   13    9      1.18      0.00
   25   13    9     -0.80      0.00
   27   13    9     -1.18      0.00
   29   13    9     -2.72      0.00
   31   13    9     -6.38      0.00
   33   13    9     -1.67      0.00
   35   13    9     -2.95      0.00
   37   13    9      2.42      0.00
   39   13    9      2.02      0.00
   41   13    9      1.04      0.00
   43   13    9      2.67      0.00
   45   13    9     -3.61      0.00
   47   13    9     -1.30      0.00
   49   13    9     -5.71      0.00
    0   14    9      6.67      0.00
    2   14    9     -6.47      0.00
    4   14    9      4.72      0.00
    6   14    9     -3.72      0.00
    8   14    9      1.68      0.00
   10   14    9     -0.53      0.00
   12   14    9     -0.24      0.00
   14   14    9     -1.40      0.00
   16   14    9     -1.25      0.00
   18   14    9     -2.69      0.00
   20   14    9     -0.73      0.00
   22   14    9     -1.29      0.00
   24   14    9     -0.51      0.00
   26   14    9     -3.13      0.00
   28   14    9     -1.81      0.00
   30   14    9     -4.53      0.00
   32   14    9      0.47      0.00
   34   14    9     -2.37      0.00
   36   14    9      3.58      0.00
   38   14    9      0.12      0.00
   40   14    9      4.94      0.00
   42   14    9      0.89      0.00
   44   14    9     -0.46      0.00
   46   14    9     -2.03      0.00
    1   15    9      3.05      0.00
    3   15    9      8.09      0.00
    5   15    9      1.51      0.00
    7   15    9      6.53      0.00
    9   15    9      3.43      0.00
   11   15    9     -3.94      0.00
   13   15    9      3.72      0.00
   15   15    9     -5.77      0.00
   17   15    9      2.15      0.00
   19   15    9      1.96      0.00
   21   15    9     -1.91      0.00
   23   15    9      3.94      0.00
   25   15    9     -0.01      0.00
   27   15    9      3.99      0.00
   29   15    9      3.56      0.00
   31   15    9      2.60      0.00
   33   15    9      0.83      0.00
   35   15    9      3.16      0.00
   37   15    9      0.00      0.00
   39   15    9      5.60      0.00
   41   15    9      1.98      0.00
   43   15    9      5.26      0.00
   45   15    9      1.85      0.00
    0   16    9     -5.62      0.00
    2   16    9     -8.46      0.00
    4   16    9     -7.85      0.00
    6   16    9    -12.88      0.00
    8   16    9     -8.99      0.00
   10   16    9     -8.23      0.00
   12   16    9     -6.20      0.00
   14   16    9     -3.58      0.00
   16   16    9     -9.27      0.00
   18   16    9     -7.69      0.00
   20   16    9     -7.00      0.00
   22   16    9     -3.32      0.00
   24   16    9     -1.21      0.00
   26   16    9     -2.72      0.00
   28   16    9     -6.85      0.00
   30   16    9     -4.39      0.00
   32   16    9     -4.36      0.00
   34   16    9     -1.50      0.00
   36   16    9     -2.70      0.00
   38   16    9     -4.29      0.00
   40   16    9     -1.41      0.00
   42   16    9     -0.64      0.00
    1   17    9     -9.61      0.00
    3   17    9     -8.31      0.00
    5   17    9     -3.45      0.00
    7   17    9     -5.30      0.00
    9   17    9     -9.24      0.00
   11   17    9     -7.03      0.00
   13   17    9     -7.97      0.00
   15   17    9     -2.32      0.00
   17   17    9      0.09      0.00
   19   17    9     -1.61      0.00
   21   17    9     -0.59      0.00
   23   17    9     -0.37      0.00
   25   17    9      0.11      0.00
   27   17    9      2.27      0.00
   29   17    9      0.40      0.00
   31   17    9     -1.28      0.00
   33   17    9     -1.13      0.00
   35   17    9     -1.36      0.00
   37   17    9      0.71      0.00
   39   17    9      0.16      0.00
   41   17    9      2.17      0.00
    0   18    9      0.35      0.00
    2   18    9     -0.61      0.00
    4   18    9     -2.07      0.00
    6   18    9     -2.58      0.00
    8   18    9     -2.21      0.00
   10   18    9     -0.13      0.00
   12   18    9      0.38      0.00
   14   18    9      1.17      0.00
   16   18    9     -2.32      0.00
   18   18    9     -0.73      0.00
   20   18    9     -4.51      0.00
   22   18    9      0.47      0.00
   24   18    9     -1.90      0.00
   26   18    9      0.44      0.00
   28   18    9     -1.14      0.00
   30   18    9     -2.31      0.00
   32   18    9     -2.55      0.00
   34   18    9     -3.11      0.00
   36   18    9     -4.78      0.00
   38   18    9     -1.29      0.00
    1   19    9     -8.00      0.00
    3   19    9     -6.67      0.00
    5   19    9     -1.60      0.00
    7   19    9     -2.27      0.00
    9   19    9     -1.47      0.00
   11   19    9     -0.16      0.00
   13   19    9     -3.82      0.00
   15   19    9     -0.13      0.00
   17   19    9     -4.92      0.00
   19   19    9     -0.65      0.00
   21   19    9      1.25      0.00
   23   19    9      3.81      0.00
   25   19    9      3.73      0.00
   27   19    9      2.85      0.00
   29   19    9     -2.91      0.00
   31   19    9     -0.92      0.00
   33   19    9     -3.41      0.00
    0   20    9      0.40      0.00
    2   20    9      0.71      0.00
    4   20    9     -4.16      0.00
    6   20    9     -1.65      0.00
    8   20    9     -3.71      0.00
   10   20    9      2.38      0.00
   12   20    9     -2.16      0.00
   14   20    9     -3.26      0.00
   16   20    9     -5.46      0.00
   18   20    9     -7.29      0.00
   20   20    9     -2.39      0.00
   22   20    9     -2.59      0.00
   24   20    9      0.43      0.00
   26   20    9     -1.67      0.00
   28   20    9     -2.11      0.00
   30   20    9     -4.66      0.00
    1   21    9     -4.98      0.00
    3   21    9     -3.85      0.00
    5   21    9     -4.33      0.00
    7   21    9     -3.38      0.00
    9   21    9     -4.89      0.00
   11   21    9     -5.01      0.00
   13   21    9     -8.29      0.00
   15   21    9     -9.05      0.00
   17   21    9     -8.43      0.00
   19   21    9     -4.65      0.00
   21   21    9      2.87      0.00
   23   21    9      1.74      0.00
   25   21    9      4.91      0.00
    0   22    9     -2.87      0.00
    2   22    9     -0.91      0.00
    4   22    9     -9.12      0.00
    6   22    9     -7.02      0.00
    8   22    9     -3.87      0.00
   10   22    9      2.52      0.00
   12   22    9      3.19      0.00
   14   22    9      3.91      0.00
   16   22    9     -1.20      0.00
   18   22    9      3.69      0.00
    1   23    9      0.64      0.00
    3   23    9      1.71      0.00
    5   23    9      0.71      0.00
    7   23    9     -0.40      0.00
    9   23    9     -4.76      0.00
    2    0   10     12.17      0.00
    4    0   10    -14.35      0.00
    6    0   10     -0.64      0.00
    8    0   10     23.57      0.00
   10    0   10     42.72      0.00
   12    0   10     60.44      0.00
   14    0   10     37.02      0.00
   16    0   10     20.56      0.00
   18    0   10      8.50      0.00
   20    0   10      8.73      0.00
   22    0   10      6.48      0.00
   24    0   10     28.30      0.00
   26    0   10      1.68      0.00
   28    0   10     23.60      0.00
   30    0   10     -6.08      0.00
   32    0   10      8.46      0.00
   34    0   10     -2.00      0.00
   36    0   10      3.61      0.00
   38    0   10      3.99      0.00
   40    0   10      3.04      0.00
   42    0   10      3.98      0.00
   44    0   10     -1.22      0.00
   46    0   10      1.45      0.00
   48    0   10      1.93      0.00
   50    0   10      7.96      0.00
   52    0   10     10.05      0.00
   54    0   10      4.68      0.00
   56    0   10      1.87      0.00
   58    0   10     -4.00      0.00
    1    1   10    -58.26      0.00
    3    1   10    -51.42      0.00
    5    1   10    -31.42      0.00
    7    1   10    -43.12      0.00
    9    1   10    -23.95      0.00
   11    1   10    -50.83      0.00
   13    1   10    -20.29      0.00
   15    1   10    -24.23      0.00
   17    1   10    -12.10      0.00
   19    1   10     -4.81      0.00
   21    1   10    -21.26      0.00
   23    1   10    -11.93      0.00
   25    1   10    -13.88      0.00
   27    1   10    -17.05      0.00
   29    1   10     -3.28      0.00
   31    1   10    -22.92      0.00
   33    1   10     -6.21      0.00
   35    1   10    -15.63      0.00
   37    1   10     -6.42      0.00
   39    1   10     -4.64      0.00
   41    1   10    -12.10      0.00
   43    1   10     -4.55      0.00
   45    1   10    -11.60      0.00
   47    1   10     -2.10      0.00
   49    1   10     -4.84      0.00
   51    1   10     -1.18      0.00
   53    1   10     -8.28      0.00
   55    1   10     -0.82      0.00
   57    1   10     -7.65      0.00
   59    1   10      0.36      0.00
    0    2   10      0.03      0.00
    2    2   10    -16.58      0.00
    4    2   10    -17.10      0.00
    6    2   10    -15.46      0.00
    8    2   10     -7.45      0.00
   10    2   10     -5.29      0.00
   12    2   10      6.56      0.00
   14    2   10    -39.35      0.00
   16    2   10      6.34      0.00
   18    2   10    -42.97      0.00
   20    2   10      3.38      0.00
   22    2   10    -21.56      0.00
   24    2   10    -15.14      0.00
   26    2   10    -11.46      0.00
   28    2   10     -9.44      0.00
   30    2   10    -10.10      0.00
   32    2   10      1.03      0.00
   34    2   10    -15.66      0.00
   36    2   10     -0.52      0.00
   38    2   10     -8.94      0.00
   40    2   10      0.53      0.00
   42    2   10     -2.22      0.00
   44    2   10     -5.75      0.00
   46    2   10     -6.90      0.00
   48    2   10     -7.83      0.00
   50    2   10     -5.29      0.00
   52    2   10     -1.82      0.00
   54    2   10     -4.26      0.00
   56    2   10      0.45      0.00
   58    2   10     -5.46      0.00
    1    3   10    -23.07      0.00
    3    3   10    -34.52      0.00
    5    3   10    -48.40      0.00
    7    3   10    -46.29      0.00
    9    3   10    -20.47      0.00
   11    3   10    -12.13      0.00
   13    3   10      9.27      0.00
   15    3   10     -2.07      0.00
   17    3   10     -1.94      0.00
   19    3   10     -2.39      0.00
   21    3   10      0.67      0.00
   23    3   10      3.57      0.00
   25    3   10     10.19      0.00
   27    3   10     -1.76      0.00
   29    3   10      5.03      0.00
   31    3   10     -8.85      0.00
   33    3   10     -3.39      0.00
   35    3   10     -1.29      0.00
   37    3   10     -1.38      0.00
   39    3   10      5.84      0.00
   41    3   10     -5.59      0.00
   43    3   10     -3.21      0.00
   45    3   10     -9.55      0.00
   47    3   10     -0.16      0.00
   49    3   10     -0.80      0.00
   51    3   10      8.19      0.00
   53    3   10      2.31      0.00
   55    3   10      5.21      0.00
   57    3   10      2.72      0.00
   59    3   10      1.52      0.00
    0    4   10     29.34      0.00
    2    4   10     45.53      0.00
    4    4   10     28.21      0.00
    6    4   10     37.48      0.00
    8    4   10     23.54      0.00
   10    4   10     25.74      0.00
   12    4   10      5.28      0.00
   14    4   10     20.64      0.00
   16    4   10     21.04      0.00
   18    4   10     29.43      0.00
   20    4   10     41.76      0.00
   22    4   10      6.49      0.00
   24    4   10     26.57      0.00
   26    4   10      1.08      0.00
   28    4   10     18.87      0.00
   30    4   10     22.26      0.00
   32    4   10      8.71      0.00
   34    4   10     19.02      0.00
   36    4   10     -4.52      0.00
   38    4   10     10.63      0.00
   40    4   10     -1.94      0.00
   42    4   10     10.19      0.00
   44    4   10     -0.13      0.00
   46    4   10      9.04      0.00
   48    4   10     -0.69      0.00
   50    4   10     10.56      0.00
   52    4   10     -0.42      0.00
   54    4   10      8.24      0.00
   56    4   10      2.03      0.00
   58    4   10      5.87      0.00
    1    5   10    -42.67      0.00
    3    5   10    -63.36      0.00
    5    5   10    -71.22      0.00
    7    5   10    -72.58      0.00
    9    5   10    -43.99      0.00
   11    5   10    -31.19      0.00
   13    5   10    -23.63      0.00
   15    5   10    -42.22      0.00
   17    5   10    -33.82      0.00
   19    5   10    -48.05      0.00
   21    5   10    -12.76      0.00
   23    5   10    -28.92      0.00
   25    5   10    -10.21      0.00
   27    5   10    -21.86      0.00
   29    5   10    -17.61      0.00
   31    5   10    -10.79      0.00
   33    5   10    -11.74      0.00
   35    5   10     -9.91      0.00
   37    5   10     -7.05      0.00
   39    5   10    -14.68      0.00
   41    5   10     -3.45      0.00
   43    5   10    -12.95      0.00
   45    5   10     -2.26      0.00
   47    5   10     -6.48      0.00
   49    5   10     -1.30      0.00
   51    5   10     -4.63      0.00
   53    5   10     -4.78      0.00
   55    5   10     -6.21      0.00
   57    5   10     -4.32      0.00
    0    6   10    -39.41      0.00
    2    6   10    -31.96      0.00
    4    6   10    -40.16      0.00
    6    6   10    -50.10      0.00
    8    6   10    -24.13      0.00
   10    6   10    -36.20      0.00
   12    6   10    -12.74      0.00
   14    6   10    -12.04      0.00
   16    6   10    -19.04      0.00
   18    6   10     -4.97      0.00
   20    6   10    -17.38      0.00
   22    6   10    -13.92      0.00
   24    6   10     -3.68      0.00
   26    6   10    -14.98      0.00
   28    6   10     -1.21      0.00
   30    6   10     -4.03      0.00
   32    6   10    -12.52      0.00
   34    6   10      5.24      0.00
   36    6   10    -17.54      0.00
   38    6   10      1.79      0.00
   40    6   10    -13.53      0.00
   42    6   10     -4.74      0.00
   44    6   10     -9.26      0.00
   46    6   10     -3.04      0.00
   48    6   10     -5.01      0.00
   50    6   10     -1.40      0.00
   52    6   10     -5.04      0.00
   54    6   10     -7.66      0.00
   56    6   10     -6.19      0.00
    1    7   10     -0.51      0.00
    3    7   10      2.99      0.00
    5    7   10     28.75      0.00
    7    7   10     19.39      0.00
    9    7   10     10.69      0.00
   11    7   10      2.30      0.00
   13    7   10    -11.40      0.00
   15    7   10      2.63      0.00
   17    7   10      5.37      0.00
   19    7   10      7.00      0.00
   21    7   10      2.89      0.00
   23    7   10     -5.85      0.00
   25    7   10     -5.34      0.00
   27    7   10     -2.08      0.00
   29    7   10      8.32      0.00
   31    7   10      0.68      0.00
   33    7   10      9.50      0.00
   35    7   10    -10.35      0.00
   37    7   10      3.14      0.00
   39    7   10     -3.84      0.00
   41    7   10      5.77      0.00
   43    7   10      5.24      0.00
   45    7   10      4.53      0.00
   47    7   10      1.11      0.00
   49    7   10     -0.10      0.00
   51    7   10     -5.05      0.00
   53    7   10     -5.51      0.00
   55    7   10     -5.66      0.00
    0    8   10     17.71      0.00
    2    8   10     10.50      0.00
    4    8   10      7.52      0.00
    6    8   10      0.07      0.00
    8    8   10      8.39      0.00
   10    8   10     -0.56      0.00
   12    8   10     22.99      0.00
   14    8   10     -8.69      0.00
   16    8   10     20.60      0.00
   18    8   10    -15.89      0.00
   20    8   10      6.05      0.00
   22    8   10     -6.86      0.00
   24    8   10      4.39      0.00
   26    8   10      3.34      0.00
   28    8   10     13.44      0.00
   30    8   10      0.63      0.00
   32    8   10     17.32      0.00
   34    8   10     -1.12      0.00
   36    8   10     14.05      0.00
   38    8   10      3.66      0.00
   40    8   10      5.89      0.00
   42    8   10      3.15      0.00
   44    8   10     -0.94      0.00
   46    8   10      1.87      0.00
   48    8   10      2.63      0.00
   50    8   10      4.03      0.00
   52    8   10      1.91      0.00
   54    8   10      1.70      0.00
    1    9   10    -28.10      0.00
    3    9   10    -11.30      0.00
    5    9   10     -4.21      0.00
    7    9   10     -0.41      0.00
    9    9   10     -8.28      0.00
   11    9   10    -26.13      0.00
   13    9   10    -18.12      0.00
   15    9   10    -15.81      0.00
   17    9   10     -0.13      0.00
   19    9   10      1.40      0.00
   21    9   10     -0.41      0.00
   23    9   10     -8.93      0.00
   25    9   10     -5.42      0.00
   27    9   10     -6.75      0.00
   29    9   10      2.64      0.00
   31    9   10     -1.72      0.00
   33    9   10     -4.91      0.00
   35    9   10     -9.13      0.00
   37    9   10    -12.28      0.00
   39    9   10     -5.17      0.00
   41    9   10     -5.92      0.00
   43    9   10      0.36      0.00
   45    9   10     -3.14      0.00
   47    9   10      0.58      0.00
   49    9   10     -0.01      0.00
   51    9   10      0.17      0.00
   53    9   10      1.70      0.00
    0   10   10    -12.77      0.00
    2   10   10    -16.17      0.00
    4   10   10    -17.28      0.00
    6   10   10     -9.00      0.00
    8   10   10    -21.83      0.00
   10   10   10    -10.67      0.00
   12   10   10    -21.31      0.00
   14   10   10    -18.80      0.00
   16   10   10    -16.25      0.00
   18   10   10    -18.66      0.00
   20   10   10    -10.29      0.00
   22   10   10    -14.09      0.00
   24   10   10     -9.40      0.00
   26   10   10    -10.45      0.00
   28   10   10     -7.75      0.00
   30   10   10     -5.00      0.00
   32   10   10     -2.70      0.00
   34   10   10     -5.34      0.00
   36   10   10     -3.79      0.00
   38   10   10     -7.89      0.00
   40   10   10     -6.63      0.00
   42   10   10     -7.69      0.00
   44   10   10    -10.51      0.00
   46   10   10     -6.40      0.00
   48   10   10     -8.72      0.00
   50   10   10     -3.42      0.00
   52   10   10     -4.14      0.00
    1   11   10      6.55      0.00
    3   11   10      9.49      0.00
    5   11   10      4.94      0.00
    7   11   10     15.89      0.00
    9   11   10      9.92      0.00
   11   11   10     16.50      0.00
   13   11   10     10.28      0.00
   15   11   10      6.91      0.00
   17   11   10     10.22      0.00
   19   11   10      8.35      0.00
   21   11   10     12.16      0.00
   23   11   10      9.68      0.00
   25   11   10      5.92      0.00
   27   11   10      5.44      0.00
   29   11   10      1.99      0.00
   31   11   10      5.89      0.00
   33   11   10      2.24      0.00
   35   11   10      7.94      0.00
   37   11   10      4.66      0.00
   39   11   10      6.57      0.00
   41   11   10      2.02      0.00
   43   11   10     -0.86      0.00
   45   11   10      1.22      0.00
   47   11   10      0.46      0.00
   49   11   10      6.46      0.00
   51   11   10      0.46      0.00
    0   12   10      4.21      0.00
    2   12   10     -0.73      0.00
    4   12   10      6.20      0.00
    6   12   10      3.27      0.00
    8   12   10      3.54      0.00
   10   12   10      2.60      0.00
   12   12   10      1.80      0.00
   14   12   10      2.12      0.00
   16   12   10      8.27      0.00
   18   12   10      2.32      0.00
   20   12   10      8.96      0.00
   22   12   10      0.85      0.00
   24   12   10      1.75      0.00
   26   12   10     -1.73      0.00
   28   12   10      0.73      0.00
   30   12   10      3.08      0.00
   32   12   10      6.41      0.00
   34   12   10      6.03      0.00
   36   12   10      2.78      0.00
   38   12   10      2.89      0.00
   40   12   10      0.30      0.00
   42   12   10      5.50      0.00
   44   12   10      2.86      0.00
   46   12   10      7.37      0.00
   48   12   10      2.41      0.00
   50   12   10      1.82      0.00
    1   13   10     -4.56      0.00
    3   13   10     -7.37      0.00
    5   13   10     -2.36      0.00
    7   13   10     -6.18      0.00
    9   13   10     -2.96      0.00
   11   13   10     -1.13      0.00
   13   13   10     -2.08      0.00
   15   13   10      2.83      0.00
   17   13   10      2.32      0.00
   19   13   10      3.29      0.00
   21   13   10      5.94      0.00
   23   13   10      3.42      0.00
   25   13   10      3.19      0.00
   27   13   10      2.12      0.00
   29   13   10     -1.70      0.00
   31   13   10     -0.37      0.00
   33   13   10      0.47      0.00
   35   13   10     -0.47      0.00
   37   13   10      1.76      0.00
   39   13   10     -2.93      0.00
   41   13   10     -5.06      0.00
   43   13   10     -3.09      0.00
   45   13   10     -4.10      0.00
   47   13   10      2.01      0.00
   49   13   10     -1.04      0.00
    0   14   10     -8.13      0.00
    2   14   10      1.66      0.00
    4   14   10     -5.77      0.00
    6   14   10     -4.06      0.00
    8   14   10     -3.19      0.00
   10   14   10     -5.81      0.00
   12   14   10     -4.76      0.00
   14   14   10      0.16      0.00
   16   14   10     -7.71      0.00
   18   14   10      2.11      0.00
   20   14   10     -8.40      0.00
   22   14   10     -3.49      0.00
   24   14   10     -6.02      0.00
   26   14   10     -4.76      0.00
   28   14   10     -0.33      0.00
   30   14   10      1.09      0.00
   32   14   10      2.21      0.00
   34   14   10      0.61      0.00
   36   14   10     -2.85      0.00
   38   14   10     -3.28      0.00
   40   14   10     -3.94      0.00
   42   14   10     -4.54      0.00
   44   14   10      0.48      0.00
   46   14   10     -2.04      0.00
    1   15   10      9.26      0.00
    3   15   10      9.79      0.00
    5   15   10     10.39      0.00
    7   15   10      7.00      0.00
    9   15   10      6.32      0.00
   11   15   10      2.13      0.00
   13   15   10      4.78      0.00
   15   15   10      6.69      0.00
   17   15   10     10.24      0.00
   19   15   10      8.13      0.00
   21   15   10      8.16      0.00
   23   15   10      1.70      0.00
   25   15   10      6.63      0.00
   27   15   10      3.02      0.00
   29   15   10      8.74      0.00
   31   15   10      4.58      0.00
   33   15   10      4.49      0.00
   35   15   10      3.27      0.00
   37   15   10      3.95      0.00
   39   15   10      2.22      0.00
   41   15   10      4.93      0.00
   43   15   10     -0.61      0.00
   45   15   10      3.57      0.00
    0   16   10     -1.24      0.00
    2   16   10      7.05      0.00
    4   16   10      0.54      0.00
    6   16   10      5.39      0.00
    8   16   10      9.23      0.00
   10   16   10      8.64      0.00
   12   16   10     12.80      0.00
   14   16   10      8.71      0.00
   16   16   10      8.19      0.00
   18   16   10     10.51      0.00
   20   16   10      8.55      0.00
   22   16   10     11.49      0.00
   24   16   10      9.13      0.00
   26   16   10      7.45      0.00
   28   16   10      8.09      0.00
   30   16   10      8.78      0.00
   32   16   10      8.19      0.00
   34   16   10      9.88      0.00
   36   16   10      7.21      0.00
   38   16   10      6.30      0.00
   40   16   10      6.97      0.00
   42   16   10      2.52      0.00
    1   17   10      3.21      0.00
    3   17   10      6.32      0.00
    5   17   10      4.94      0.00
    7   17   10      7.36      0.00
    9   17   10      3.51      0.00
   11   17   10     -0.48      0.00
   13   17   10     -1.45      0.00
   15   17   10     -3.41      0.00
   17   17   10     -1.81      0.00
   19   17   10     -1.77      0.00
   21   17   10     -3.02      0.00
   23   17   10     -5.46      0.00
   25   17   10     -3.58      0.00
   27   17   10     -3.80      0.00
   29   17   10     -0.75      0.00
   31   17   10      0.25      0.00
   33   17   10      0.94      0.00
   35   17   10      3.39      0.00
   37   17   10      3.90      0.00
   39   17   10      5.73      0.00
    0   18   10      0.95      0.00
    2   18   10     -6.65      0.00
    4   18   10     -5.01      0.00
    6   18   10     -4.81      0.00
    8   18   10     -6.57      0.00
   10   18   10     -0.70      0.00
   12   18   10     -1.03      0.00
   14   18   10     -3.22      0.00
   16   18   10      1.74      0.00
   18   18   10     -2.79      0.00
   20   18   10      2.12      0.00
   22   18   10      0.09      0.00
   24   18   10     -0.47      0.00
   26   18   10     -1.66      0.00
   28   18   10      0.24      0.00
   30   18   10     -1.24      0.00
   32   18   10      5.43      0.00
   34   18   10     -1.26      0.00
   36   18   10      3.68      0.00
    1   19   10      2.82      0.00
    3   19   10      3.44      0.00
    5   19   10      7.01      0.00
    7   19   10      1.78      0.00
    9   19   10      0.44      0.00
   11   19   10     -1.58      0.00
   13   19   10      2.00      0.00
   15   19   10      4.63      0.00
   17   19   10      7.94      0.00
   19   19   10      4.31      0.00
   21   19   10      5.14      0.00
   23   19   10      3.67      0.00
   25   19   10      2.25      0.00
   27   19   10      3.74      0.00
   29   19   10      2.58      0.00
   31   19   10      3.90      0.00
   33   19   10      6.18      0.00
    0   20   10      2.10      0.00
    2   20   10      2.65      0.00
    4   20   10      3.55      0.00
    6   20   10      0.82      0.00
    8   20   10      2.08      0.00
   10   20   10     -1.72      0.00
   12   20   10      1.03      0.00
   14   20   10      2.59      0.00
   16   20   10      8.49      0.00
   18   20   10      3.67      0.00
   20   20   10      6.40      0.00
   22   20   10     -1.68      0.00
   24   20   10      2.04      0.00
   26   20   10      2.50      0.00
   28   20   10      3.01      0.00
    1   21   10     -6.32      0.00
    3   21   10      0.13      0.00
    5   21   10      3.53      0.00
    7   21   10      4.04      0.00
    9   21   10     -1.48      0.00
   11   21   10     -5.01      0.00
   13   21   10     -3.92      0.00
   15   21   10     -1.25      0.00
   17   21   10     -0.98      0.00
   19   21   10     -1.22      0.00
   21   21   10     -3.48      0.00
   23   21   10     -3.37      0.00
    0   22   10      1.39      0.00
    2   22   10    -10.05      0.00
    4   22   10     -1.63      0.00
    6   22   10     -9.81      0.00
    8   22   10     -2.55      0.00
   10   22   10     -5.95      0.00
   12   22   10     -0.76      0.00
   14   22   10     -1.34      0.00
   16   22   10      1.42      0.00
   18   22   10      1.11      0.00
    1   23   10     11.09      0.00
    3   23   10     16.38      0.00
    5   23   10     12.99      0.00
    1    1   11    -44.00      0.00
    3    1   11    -22.16      0.00
    5    1   11      9.82      0.00
    7    1   11      7.22      0.00
    9    1   11     -1.72      0.00
   11    1   11    -22.89      0.00
   13    1   11    -14.20      0.00
   15    1   11    -10.34      0.00
   17    1   11     11.12      0.00
   19    1   11     12.71      0.00
   21    1   11      6.97      0.00
   23    1   11     13.92      0.00
   25    1   11     -9.61      0.00
   27    1   11     15.97      0.00
   29    1   11     -9.79      0.00
   31    1   11     15.72      0.00
   33    1   11    -11.81      0.00
   35    1   11      3.86      0.00
   37    1   11    -14.50      0.00
   39    1   11      0.00      0.00
   41    1   11     -5.56      0.00
   43    1   11      2.70      0.00
   45    1   11     -0.86      0.00
   47    1   11     -1.05      0.00
   49    1   11     -5.44      0.00
   51    1   11     -3.58      0.00
   53    1   11     -3.53      0.00
   55    1   11      0.42      0.00
   57    1   11      2.42      0.00
    0    2   11     16.57      0.00
    2    2   11     43.68      0.00
    4    2   11      3.42      0.00
    6    2   11     17.10      0.00
    8    2   11     -6.74      0.00
   10    2   11     20.13      0.00
   12    2   11    -12.47      0.00
   14    2   11     24.80      0.00
   16    2   11    -32.69      0.00
   18    2   11     12.31      0.00
   20    2   11    -18.20      0.00
   22    2   11     10.61      0.00
   24    2   11      8.72      0.00
   26    2   11      4.18      0.00
   28    2   11      4.16      0.00
   30    2   11     10.49      0.00
   32    2   11      0.49      0.00
   34    2   11     22.25      0.00
   36    2   11     -6.59      0.00
   38    2   11     13.79      0.00
   40    2   11     -7.82      0.00
   42    2   11      9.55      0.00
   44    2   11     -0.08      0.00
   46    2   11      4.77      0.00
   48    2   11     -2.28      0.00
   50    2   11      1.08      0.00
   52    2   11     -0.79      0.00
   54    2   11     -2.38      0.00
   56    2   11     -1.83      0.00
   58    2   11    -11.93      0.00
    1    3   11      5.90      0.00
    3    3   11      4.21      0.00
    5    3   11     32.82      0.00
    7    3   11      2.99      0.00
    9    3   11      6.27      0.00
   11    3   11     -6.50      0.00
   13    3   11     -1.65      0.00
   15    3   11      6.56      0.00
   17    3   11      7.48      0.00
   19    3   11     -8.43      0.00
   21    3   11      3.51      0.00
   23    3   11     -7.99      0.00
   25    3   11      1.70      0.00
   27    3   11      8.55      0.00
   29    3   11     -7.81      0.00
   31    3   11     11.26      0.00
   33    3   11     -6.74      0.00
   35    3   11      8.46      0.00
   37    3   11      1.52      0.00
   39    3   11      2.40      0.00
   41    3   11      1.06      0.00
   43    3   11     -2.79      0.00
   45    3   11     -0.23      0.00
   47    3   11     -4.48      0.00
   49    3   11      0.07      0.00
   51    3   11     -3.46      0.00
   53    3   11     -3.40      0.00
   55    3   11     -2.88      0.00
   57    3   11     -6.86      0.00
    0    4   11    -20.98      0.00
    2    4   11      2.27      0.00
    4    4   11     10.90      0.00
    6    4   11     29.75      0.00
    8    4   11     13.16      0.00
   10    4   11      3.46      0.00
   12    4   11     -8.54      0.00
   14    4   11     -1.94      0.00
   16    4   11     14.10      0.00
   18    4   11     10.84      0.00
   20    4   11     14.51      0.00
   22    4   11      4.35      0.00
   24    4   11     -3.61      0.00
   26    4   11      4.84      0.00
   28    4   11     -0.40      0.00
   30    4   11      6.04      0.00
   32    4   11      7.78      0.00
   34    4   11     -3.18      0.00
   36    4   11      6.97      0.00
   38    4   11     -8.86      0.00
   40    4   11      6.43      0.00
   42    4   11     -1.74      0.00
   44    4   11      6.11      0.00
   46    4   11      1.43      0.00
   48    4   11      1.58      0.00
   50    4   11     -2.91      0.00
   52    4   11      2.36      0.00
   54    4   11     -3.23      0.00
   56    4   11      3.02      0.00
   58    4   11     -2.54      0.00
    1    5   11     -4.67      0.00
    3    5   11     -2.18      0.00
    5    5   11     -2.00      0.00
    7    5   11     -9.79      0.00
    9    5   11     15.82      0.00
   11    5   11     -6.75      0.00
   13    5   11     27.28      0.00
   15    5   11      6.09      0.00
   17    5   11     -0.73      0.00
   19    5   11     13.32      0.00
   21    5   11    -15.22      0.00
   23    5   11     12.27      0.00
   25    5   11     -2.43      0.00
   27    5   11     -2.69      0.00
   29    5   11      5.51      0.00
   31    5   11     -2.54      0.00
   33    5   11      2.52      0.00
   35    5   11     11.21      0.00
   37    5   11     -3.07      0.00
   39    5   11     15.41      0.00
   41    5   11     -3.72      0.00
   43    5   11      7.42      0.00
   45    5   11     -2.15      0.00
   47    5   11      1.89      0.00
   49    5   11     -1.12      0.00
   51    5   11      3.83      0.00
   53    5   11     -0.72      0.00
   55    5   11      2.39      0.00
   57    5   11     -2.67      0.00
    0    6   11     20.85      0.00
    2    6   11     16.67      0.00
    4    6   11     11.30      0.00
    6    6   11     19.65      0.00
    8    6   11      0.73      0.00
   10    6   11     20.01      0.00
   12    6   11     10.42      0.00
   14    6   11     17.35      0.00
   16    6   11     14.29      0.00
   18    6   11      8.21      0.00
   20    6   11     12.47      0.00
   22    6   11      9.30      0.00
   24    6   11     19.68      0.00
   26    6   11      7.06      0.00
   28    6   11     16.44      0.00
   30    6   11     -3.28      0.00
   32    6   11     12.12      0.00
   34    6   11     -3.33      0.00
   36    6   11      7.67      0.00
   38    6   11     -4.37      0.00
   40    6   11     -2.69      0.00
   42    6   11     -6.01      0.00
   44    6   11     -3.85      0.00
   46    6   11     -1.83      0.00
   48    6   11     -0.76      0.00
   50    6   11      4.67      0.00
   52    6   11      3.97      0.00
   54    6   11      8.90      0.00
   56    6   11      7.06      0.00
    1    7   11     14.23      0.00
    3    7   11     18.97      0.00
    5    7   11     15.01      0.00
    7    7   11      9.03      0.00
    9    7   11      2.84      0.00
   11    7   11    -15.11      0.00
   13    7   11     -1.07      0.00
   15    7   11    -19.08      0.00
   17    7   11      7.38      0.00
   19    7   11     -3.85      0.00
   21    7   11      8.69      0.00
   23    7   11      9.40      0.00
   25    7   11     -0.75      0.00
   27    7   11     11.27      0.00
   29    7   11      0.29      0.00
   31    7   11     12.26      0.00
   33    7   11      5.16      0.00
   35    7   11      8.67      0.00
   37    7   11      1.99      0.00
   39    7   11      3.71      0.00
   41    7   11      1.87      0.00
   43    7   11      2.45      0.00
   45    7   11      2.78      0.00
   47    7   11     -0.01      0.00
   49    7   11     -0.09      0.00
   51    7   11     -2.28      0.00
   53    7   11     -0.80      0.00
   55    7   11     -2.18      0.00
    0    8   11     11.68      0.00
    2    8   11     -0.12      0.00
    4    8   11    -17.92      0.00
    6    8   11    -24.02      0.00
    8    8   11    -13.15      0.00
   10    8   11     16.67      0.00
   12    8   11     22.82      0.00
   14    8   11     20.63      0.00
   16    8   11      0.11      0.00
   18    8   11    -11.96      0.00
   20    8   11     -3.68      0.00
   22    8   11      1.72      0.00
   24    8   11     14.90      0.00
   26    8   11      0.38      0.00
   28    8   11      0.00      0.00
   30    8   11    -14.84      0.00
   32    8   11     -4.42      0.00
   34    8   11      0.50      0.00
   36    8   11      1.20      0.00
   38    8   11      5.64      0.00
   40    8   11     -6.04      0.00
   42    8   11     -0.66      0.00
   44    8   11     -1.08      0.00
   46    8   11      1.44      0.00
   48    8   11      5.39      0.00
   50    8   11      0.22      0.00
   52    8   11      4.34      0.00
   54    8   11     -0.35      0.00
    1    9   11    -17.34      0.00
    3    9   11    -13.47      0.00
    5    9   11      7.05      0.00
    7    9   11      1.06      0.00
    9    9   11     -0.22      0.00
   11    9   11     -0.78      0.00
   13    9   11     -1.98      0.00
   15    9   11      8.85      0.00
   17    9   11      9.11      0.00
   19    9   11      6.89      0.00
   21    9   11      1.21      0.00
   23    9   11     -1.56      0.00
   25    9   11    -10.14      0.00
   27    9   11     -2.86      0.00
   29    9   11    -16.68      0.00
   31    9   11     -7.31      0.00
   33    9   11    -15.06      0.00
   35    9   11    -10.98      0.00
   37    9   11     -5.87      0.00
   39    9   11     -7.74      0.00
   41    9   11      1.93      0.00
   43    9   11     -1.12      0.00
   45    9   11      3.38      0.00
   47    9   11     -2.94      0.00
   49    9   11     -1.40      0.00
   51    9   11     -5.56      0.00
   53    9   11     -1.68      0.00
    0   10   11     16.93      0.00
    2   10   11     19.92      0.00
    4   10   11      8.28      0.00
    6   10   11      3.21      0.00
    8   10   11      8.75      0.00
   10   10   11      8.11      0.00
   12   10   11     15.13      0.00
   14   10   11      6.94      0.00
   16   10   11     -1.35      0.00
   18   10   11     -7.53      0.00
   20   10   11     -8.87      0.00
   22   10   11     -2.24      0.00
   24   10   11      3.45      0.00
   26   10   11      7.83      0.00
   28   10   11      4.26      0.00
   30   10   11      5.59      0.00
   32   10   11      2.89      0.00
   34   10   11      5.79      0.00
   36   10   11      6.73      0.00
   38   10   11      1.13      0.00
   40   10   11      0.62      0.00
   42   10   11     -2.33      0.00
   44   10   11      0.10      0.00
   46   10   11      2.94      0.00
   48   10   11      1.65      0.00
   50   10   11      3.36      0.00
   52   10   11     -0.36      0.00
    1   11   11      4.59      0.00
    3   11   11      1.46      0.00
    5   11   11     14.83      0.00
    7   11   11      3.62      0.00
    9   11   11      9.99      0.00
   11   11   11      5.19      0.00
   13   11   11      3.49      0.00
   15   11   11      7.73      0.00
   17   11   11      0.23      0.00
   19   11   11      1.99      0.00
   21   11   11     -2.14      0.00
   23   11   11      1.79      0.00
   25   11   11      1.03      0.00
   27   11   11      5.27      0.00
   29   11   11     -1.90      0.00
   31   11   11     -0.44      0.00
   33   11   11     -8.21      0.00
   35   11   11     -3.63      0.00
   37   11   11     -6.28      0.00
   39   11   11     -3.73      0.00
   41   11   11     -3.62      0.00
   43   11   11     -4.71      0.00
   45   11   11     -5.18      0.00
   47   11   11     -1.52      0.00
   49   11   11     -4.85      0.00
   51   11   11      5.03      0.00
    0   12   11    -16.15      0.00
    2   12   11    -14.69      0.00
    4   12   11    -18.96      0.00
    6   12   11    -16.18      0.00
    8   12   11    -21.16      0.00
   10   12   11    -16.46      0.00
   12   12   11    -14.85      0.00
   14   12   11     -9.74      0.00
   16   12   11     -8.15      0.00
   18   12   11     -3.87      0.00
   20   12   11     -8.46      0.00
   22   12   11     -2.41      0.00
   24   12   11     -6.98      0.00
   26   12   11     -1.26      0.00
   28   12   11     -4.14      0.00
   30   12   11     -4.93      0.00
   32   12   11     -5.57      0.00
   34   12   11     -8.07      0.00
   36   12   11     -7.47      0.00
   38   12   11     -6.67      0.00
   40   12   11     -5.47      0.00
   42   12   11     -3.61      0.00
   44   12   11     -1.24      0.00
   46   12   11     -5.41      0.00
   48   12   11     -1.95      0.00
   50   12   11     -5.60      0.00
    1   13   11     -3.67      0.00
    3   13   11     -4.60      0.00
    5   13   11     -2.50      0.00
    7   13   11     -3.76      0.00
    9   13   11      3.62      0.00
   11   13   11     -2.49      0.00
   13   13   11      0.65      0.00
   15   13   11     -7.78      0.00
   17   13   11     -7.00      0.00
   19   13   11     -6.05      0.00
   21   13   11     -2.42      0.00
   23   13   11      1.13      0.00
   25   13   11      1.83      0.00
   27   13   11      0.46      0.00
   29   13   11     -2.82      0.00
   31   13   11     -5.97      0.00
   33   13   11     -3.95      0.00
   35   13   11     -4.85      0.00
   37   13   11      2.61      0.00
   39   13   11      0.76      0.00
   41   13   11      0.73      0.00
   43   13   11     -0.87      0.00
   45   13   11     -6.14      0.00
   47   13   11     -2.67      0.00
    0   14   11      3.56      0.00
    2   14   11    -10.78      0.00
    4   14   11     -1.57      0.00
    6   14   11    -10.41      0.00
    8   14   11     -5.01      0.00
   10   14   11     -3.18      0.00
   12   14   11     -2.14      0.00
   14   14   11     -3.41      0.00
   16   14   11     -1.41      0.00
   18   14   11     -7.84      0.00
   20   14   11     -1.79      0.00
   22   14   11     -6.84      0.00
   24   14   11     -2.67      0.00
   26   14   11     -6.33      0.00
   28   14   11     -2.29      0.00
   30   14   11     -5.58      0.00
   32   14   11      0.55      0.00
   34   14   11     -2.99      0.00
   36   14   11      1.10      0.00
   38   14   11     -2.76      0.00
   40   14   11     -1.69      0.00
   42   14   11     -2.75      0.00
   44   14   11     -4.32      0.00
   46   14   11     -4.87      0.00
    1   15   11      8.15      0.00
    3   15   11     12.57      0.00
    5   15   11      5.78      0.00
    7   15   11      8.16      0.00
    9   15   11      6.41      0.00
   11   15   11      0.64      0.00
   13   15   11      9.76      0.00
   15   15   11      0.95      0.00
   17   15   11      4.90      0.00
   19   15   11      4.29      0.00
   21   15   11      0.64      0.00
   23   15   11      9.95      0.00
   25   15   11      3.60      0.00
   27   15   11      6.32      0.00
   29   15   11      2.69      0.00
   31   15   11      0.55      0.00
   33   15   11      3.50      0.00
   35   15   11      3.56      0.00
   37   15   11      2.03      0.00
   39   15   11      3.61      0.00
   41   15   11     -0.26      0.00
   43   15   11      3.23      0.00
    0   16   11     -6.44      0.00
    2   16   11     -8.67      0.00
    4   16   11     -6.78      0.00
    6   16   11    -11.83      0.00
    8   16   11     -7.27      0.00
   10   16   11    -10.51      0.00
   12   16   11     -7.77      0.00
   14   16   11     -7.26      0.00
   16   16   11     -9.25      0.00
   18   16   11     -9.01      0.00
   20   16   11     -6.57      0.00
   22   16   11     -7.90      0.00
   24   16   11     -2.22      0.00
   26   16   11     -2.85      0.00
   28   16   11     -3.22      0.00
   30   16   11     -0.03      0.00
   32   16   11     -2.92      0.00
   34   16   11     -0.12      0.00
   36   16   11     -2.76      0.00
   38   16   11     -3.92      0.00
   40   16   11     -3.80      0.00
   42   16   11     -3.04      0.00
    1   17   11      6.06      0.00
    3   17   11      3.23      0.00
    5   17   11      5.39      0.00
    7   17   11      1.48      0.00
    9   17   11     -0.25      0.00
   11   17   11      2.51      0.00
   13   17   11      0.78      0.00
   15   17   11      4.25      0.00
   17   17   11      4.61      0.00
   19   17   11      2.45      0.00
   21   17   11      3.81      0.00
   23   17   11      3.35      0.00
   25   17   11      5.07      0.00
   27   17   11      5.75      0.00
   29   17   11      3.64      0.00
   31   17   11      0.57      0.00
   33   17   11     -1.18      0.00
   35   17   11     -0.64      0.00
   37   17   11      1.76      0.00
   39   17   11      2.66      0.00
    0   18   11      3.04      0.00
    2   18   11      0.93      0.00
    4   18   11     -0.43      0.00
    6   18   11     -0.27      0.00
    8   18   11      0.64      0.00
   10   18   11      3.86      0.00
   12   18   11      3.43      0.00
   14   18   11      3.05      0.00
   16   18   11      1.74      0.00
   18   18   11      3.37      0.00
   20   18   11      1.33      0.00
   22   18   11      3.93      0.00
   24   18   11      0.06      0.00
   26   18   11      2.42      0.00
   28   18   11      1.57      0.00
   30   18   11      0.80      0.00
   32   18   11     -0.85      0.00
   34   18   11     -3.14      0.00
   36   18   11     -3.79      0.00
    1   19   11      3.57      0.00
    3   19   11      2.73      0.00
    5   19   11      2.54      0.00
    7   19   11      4.92      0.00
    9   19   11      2.22      0.00
   11   19   11      8.91      0.00
   13   19   11     -0.10      0.00
   15   19   11      5.87      0.00
   17   19   11     -1.82      0.00
   19   19   11      3.85      0.00
   21   19   11      2.55      0.00
   23   19   11      4.50      0.00
   25   19   11      3.19      0.00
   27   19   11      3.39      0.00
   29   19   11      0.09      0.00
   31   19   11      0.63      0.00
    0   20   11      3.48      0.00
    2   20   11     -4.94      0.00
    4   20   11     -2.27      0.00
    6   20   11     -8.18      0.00
    8   20   11      1.29      0.00
   10   20   11      1.54      0.00
   12   20   11      3.58      0.00
   14   20   11     -2.31      0.00
   16   20   11     -4.13      0.00
   18   20   11     -5.21      0.00
   20   20   11     -1.37      0.00
   22   20   11     -0.31      0.00
   24   20   11      0.95      0.00
   26   20   11      0.66      0.00
   28   20   11      1.82      0.00
    1   21   11      4.43      0.00
    3   21   11      3.78      0.00
    5   21   11      1.23      0.00
    7   21   11      0.26      0.00
    9   21   11      2.86      0.00
   11   21   11      0.46      0.00
   13   21   11      0.26      0.00
   15   21   11     -2.56      0.00
   17   21   11     -4.81      0.00
   19   21   11     -1.50      0.00
   21   21   11      0.76      0.00
   23   21   11      0.45      0.00
    0   22   11     -7.21      0.00
    2   22   11      2.97      0.00
    4   22   11     -9.23      0.00
    6   22   11     -4.42      0.00
    8   22   11     -1.93      0.00
   10   22   11     -0.37      0.00
   12   22   11      4.21      0.00
   14   22   11      0.99      0.00
   16   22   11      0.55      0.00
    0    0   12     28.75      0.00
    2    0   12     33.85      0.00
    4    0   12     -8.28      0.00
    6    0   12    -17.14      0.00
    8    0   12    -14.33      0.00
   10    0   12     -5.58      0.00
   12    0   12      4.84      0.00
   14    0   12     -8.17      0.00
   16    0   12    -17.92      0.00
   18    0   12    -26.17      0.00
   20    0   12    -19.74      0.00
   22    0   12    -15.73      0.00
   24    0   12      4.47      0.00
   26    0   12     -1.69      0.00
   28    0   12      6.06      0.00
   30    0   12     -4.55      0.00
   32    0   12     -5.85      0.00
   34    0   12      1.25      0.00
   36    0   12      2.61      0.00
   38    0   12      8.62      0.00
   40    0   12      6.40      0.00
   42    0   12      2.66      0.00
   44    0   12      3.30      0.00
   46    0   12      5.64      0.00
   48    0   12      5.89      0.00
   50    0   12      2.82      0.00
   52    0   12      2.22      0.00
   54    0   12     -5.76      0.00
   56    0   12      0.32      0.00
   58    0   12     -2.73      0.00
    1    1   12    -76.49      0.00
    3    1   12    -59.13      0.00
    5    1   12    -40.40      0.00
    7    1   12    -27.55      0.00
    9    1   12    -10.04      0.00
   11    1   12    -30.42      0.00
   13    1   12     -7.83      0.00
   15    1   12    -16.33      0.00
   17    1   12     -9.63      0.00
   19    1   12      7.67      0.00
   21    1   12    -23.78      0.00
   23    1   12     -5.27      0.00
   25    1   12    -21.56      0.00
   27    1   12    -19.31      0.00
   29    1   12     -6.52      0.00
   31    1   12    -24.62      0.00
   33    1   12    -11.59      0.00
   35    1   12    -18.89      0.00
   37    1   12    -12.02      0.00
   39    1   12     -2.30      0.00
   41    1   12     -7.71      0.00
   43    1   12      3.64      0.00
   45    1   12     -4.68      0.00
   47    1   12      3.04      0.00
   49    1   12     -3.94      0.00
   51    1   12      0.49      0.00
   53    1   12     -7.01      0.00
   55    1   12      2.48      0.00
   57    1   12     -3.21      0.00
    0    2   12     17.62      0.00
    2    2   12    -44.04      0.00
    4    2   12    -25.60      0.00
    6    2   12    -69.52      0.00
    8    2   12    -24.43      0.00
   10    2   12    -32.07      0.00
   12    2   12     10.27      0.00
   14    2   12    -41.69      0.00
   16    2   12    -10.44      0.00
   18    2   12    -55.90      0.00
   20    2   12    -18.62      0.00
   22    2   12    -26.30      0.00
   24    2   12    -15.43      0.00
   26    2   12    -14.26      0.00
   28    2   12    -16.89      0.00
   30    2   12    -21.36      0.00
   32    2   12     -9.53      0.00
   34    2   12    -16.43      0.00
   36    2   12     -0.54      0.00
   38    2   12     -6.18      0.00
   40    2   12     -3.42      0.00
   42    2   12     -4.93      0.00
   44    2   12     -5.28      0.00
   46    2   12     -4.56      0.00
   48    2   12     -3.18      0.00
   50    2   12     -5.48      0.00
   52    2   12     -4.33      0.00
   54    2   12     -5.20      0.00
   56    2   12      0.04      0.00
   58    2   12     -6.91      0.00
    1    3   12     30.26      0.00
    3    3   12     33.27      0.00
    5    3   12     29.99      0.00
    7    3   12     29.99      0.00
    9    3   12     30.88      0.00
   11    3   12     15.88      0.00
   13    3   12     18.88      0.00
   15    3   12      5.46      0.00
   17    3   12     14.08      0.00
   19    3   12      7.29      0.00
   21    3   12     16.18      0.00
   23    3   12     11.80      0.00
   25    3   12     18.69      0.00
   27    3   12     17.08      0.00
   29    3   12     13.80      0.00
   31    3   12     12.26      0.00
   33    3   12      5.68      0.00
   35    3   12     13.60      0.00
   37    3   12      7.71      0.00
   39    3   12     14.83      0.00
   41    3   12      4.00      0.00
   43    3   12      7.04      0.00
   45    3   12      0.02      0.00
   47    3   12      6.61      0.00
   49    3   12     -0.50      0.00
   51    3   12      6.43      0.00
   53    3   12     -0.09      0.00
   55    3   12      5.15      0.00
   57    3   12      4.74      0.00
    0    4   12     22.22      0.00
    2    4   12      4.40      0.00
    4    4   12      5.63      0.00
    6    4   12     -8.78      0.00
    8    4   12     -0.54      0.00
   10    4   12      1.14      0.00
   12    4   12     -2.93      0.00
   14    4   12     -0.14      0.00
   16    4   12      0.50      0.00
   18    4   12      5.15      0.00
   20    4   12     20.45      0.00
   22    4   12      7.04      0.00
   24    4   12     18.00      0.00
   26    4   12      3.10      0.00
   28    4   12      6.99      0.00
   30    4   12     10.38      0.00
   32    4   12      4.08      0.00
   34    4   12     15.88      0.00
   36    4   12      0.17      0.00
   38    4   12      9.04      0.00
   40    4   12     -4.02      0.00
   42    4   12      3.62      0.00
   44    4   12      0.49      0.00
   46    4   12      7.05      0.00
   48    4   12      3.39      0.00
   50    4   12      6.76      0.00
   52    4   12      3.56      0.00
   54    4   12      7.55      0.00
   56    4   12      8.28      0.00
    1    5   12    -12.64      0.00
    3    5   12    -23.52      0.00
    5    5   12    -15.15      0.00
    7    5   12    -21.27      0.00
    9    5   12     -3.35      0.00
   11    5   12     -2.11      0.00
   13    5   12      0.36      0.00
   15    5   12     -8.19      0.00
   17    5   12     -5.86      0.00
   19    5   12    -18.11      0.00
   21    5   12     -2.04      0.00
   23    5   12    -11.83      0.00
   25    5   12     -0.73      0.00
   27    5   12     -2.99      0.00
   29    5   12    -10.28      0.00
   31    5   12     -3.61      0.00
   33    5   12    -12.82      0.00
   35    5   12     -4.55      0.00
   37    5   12     -1.64      0.00
   39    5   12     -3.95      0.00
   41    5   12      4.86      0.00
   43    5   12     -5.51      0.00
   45    5   12      2.91      0.00
   47    5   12     -4.91      0.00
   49    5   12      1.79      0.00
   51    5   12     -0.21      0.00
   53    5   12      1.11      0.00
   55    5   12      2.60      0.00
    0    6   12    -41.72      0.00
    2    6   12    -33.53      0.00
    4    6   12    -28.27      0.00
    6    6   12    -33.28      0.00
    8    6   12    -13.03      0.00
   10    6   12    -28.58      0.00
   12    6   12    -12.99      0.00
   14    6   12     -5.56      0.00
   16    6   12     -4.14      0.00
   18    6   12      8.99      0.00
   20    6   12     -4.40      0.00
   22    6   12     -9.31      0.00
   24    6   12     -8.50      0.00
   26    6   12    -10.29      0.00
   28    6   12     -6.31      0.00
   30    6   12      3.13      0.00
   32    6   12    -14.98      0.00
   34    6   12      5.67      0.00
   36    6   12    -17.13      0.00
   38    6   12      1.27      0.00
   40    6   12    -11.38      0.00
   42    6   12     -1.89      0.00
   44    6   12     -6.46      0.00
   46    6   12      1.49      0.00
   48    6   12     -2.03      0.00
   50    6   12      0.97      0.00
   52    6   12     -0.46      0.00
   54    6   12     -0.86      0.00
   56    6   12      1.01      0.00
    1    7   12     -7.81      0.00
    3    7   12     -3.43      0.00
    5    7   12     27.18      0.00
    7    7   12     14.10      0.00
    9    7   12     16.48      0.00
   11    7   12     -4.31      0.00
   13    7   12      1.04      0.00
   15    7   12      8.35      0.00
   17    7   12     23.95      0.00
   19    7   12     22.93      0.00
   21    7   12     12.34      0.00
   23    7   12      4.29      0.00
   25    7   12      1.87      0.00
   27    7   12      7.86      0.00
   29    7   12     20.23      0.00
   31    7   12      7.37      0.00
   33    7   12     13.94      0.00
   35    7   12     -7.20      0.00
   37    7   12      3.09      0.00
   39    7   12      0.31      0.00
   41    7   12      5.54      0.00
   43    7   12      6.28      0.00
   45    7   12      3.97      0.00
   47    7   12      1.25      0.00
   49    7   12      2.89      0.00
   51    7   12     -1.82      0.00
   53    7   12     -0.30      0.00
   55    7   12     -3.21      0.00
    0    8   12     30.63      0.00
    2    8   12     23.01      0.00
    4    8   12     10.49      0.00
    6    8   12      4.16      0.00
    8    8   12     11.57      0.00
   10    8   12     12.64      0.00
   12    8   12     29.79      0.00
   14    8   12      8.19      0.00
   16    8   12     17.69      0.00
   18    8   12      2.00      0.00
   20    8   12      7.34      0.00
   22    8   12      9.04      0.00
   24    8   12      8.84      0.00
   26    8   12      8.27      0.00
   28    8   12     12.08      0.00
   30    8   12      3.77      0.00
   32    8   12     14.81      0.00
   34    8   12      4.12      0.00
   36    8   12     11.79      0.00
   38    8   12      4.91      0.00
   40    8   12      5.84      0.00
   42    8   12      4.30      0.00
   44    8   12      3.87      0.00
   46    8   12      4.81      0.00
   48    8   12      4.28      0.00
   50    8   12      5.36      0.00
   52    8   12      2.52      0.00
   54    8   12      3.77      0.00
    1    9   12    -34.42      0.00
    3    9   12    -21.84      0.00
    5    9   12    -10.04      0.00
    7    9   12    -12.75      0.00
    9    9   12    -17.96      0.00
   11    9   12    -35.32      0.00
   13    9   12    -28.19      0.00
   15    9   12    -18.75      0.00
   17    9   12     -2.63      0.00
   19    9   12     -1.57      0.00
   21    9   12     -3.10      0.00
   23    9   12    -16.72      0.00
   25    9   12    -12.50      0.00
   27    9   12     -9.47      0.00
   29    9   12     -1.07      0.00
   31    9   12      0.93      0.00
   33    9   12     -6.55      0.00
   35    9   12    -10.47      0.00
   37    9   12    -13.14      0.00
   39    9   12     -6.10      0.00
   41    9   12     -3.70      0.00
   43    9   12      0.25      0.00
   45    9   12     -5.91      0.00
   47    9   12     -4.20      0.00
   49    9   12     -5.57      0.00
   51    9   12     -4.12      0.00
   53    9   12     -1.74      0.00
    0   10   12      2.90      0.00
    2   10   12      0.11      0.00
    4   10   12    -16.46      0.00
    6   10   12     -9.88      0.00
    8   10   12    -16.82      0.00
   10   10   12      7.26      0.00
   12   10   12     -6.23      0.00
   14   10   12     -3.89      0.00
   16   10   12    -15.13      0.00
   18   10   12    -15.02      0.00
   20   10   12     -8.23      0.00
   22   10   12     -4.51      0.00
   24   10   12     -5.52      0.00
   26   10   12     -4.66      0.00
   28   10   12     -9.19      0.00
   30   10   12     -4.61      0.00
   32   10   12     -3.26      0.00
   34   10   12     -0.54      0.00
   36   10   12      0.21      0.00
   38   10   12     -0.59      0.00
   40   10   12     -2.06      0.00
   42   10   12     -1.95      0.00
   44   10   12     -3.58      0.00
   46   10   12     -0.26      0.00
   48   10   12     -2.02      0.00
   50   10   12     -1.53      0.00
   52   10   12     -3.06      0.00
    1   11   12     -5.49      0.00
    3   11   12      2.07      0.00
    5   11   12      3.07      0.00
    7   11   12     12.95      0.00
    9   11   12      7.05      0.00
   11   11   12      8.26      0.00
   13   11   12     10.64      0.00
   15   11   12      5.21      0.00
   17   11   12     13.84      0.00
   19   11   12      5.93      0.00
   21   11   12      5.79      0.00
   23   11   12     -0.02      0.00
   25   11   12     -5.40      0.00
   27   11   12     -3.67      0.00
   29   11   12     -4.78      0.00
   31   11   12      2.78      0.00
   33   11   12     -2.05      0.00
   35   11   12      1.20      0.00
   37   11   12     -3.42      0.00
   39   11   12     -0.38      0.00
   41   11   12      1.91      0.00
   43   11   12     -0.36      0.00
   45   11   12      1.23      0.00
   47   11   12     -5.30      0.00
   49   11   12     -2.02      0.00
   51   11   12     -5.25      0.00
    0   12   12     12.68      0.00
    2   12   12      8.73      0.00
    4   12   12     10.92      0.00
    6   12   12      9.62      0.00
    8   12   12      5.91      0.00
   10   12   12      5.16      0.00
   12   12   12      2.81      0.00
   14   12   12      1.11      0.00
   16   12   12      6.02      0.00
   18   12   12      1.37      0.00
   20   12   12      5.82      0.00
   22   12   12      1.69      0.00
   24   12   12      2.59      0.00
   26   12   12      3.87      0.00
   28   12   12      3.44      0.00
   30   12   12      7.25      0.00
   32   12   12      8.25      0.00
   34   12   12      8.22      0.00
   36   12   12      8.14      0.00
   38   12   12      4.34      0.00
   40   12   12      3.03      0.00
   42   12   12      4.87      0.00
   44   12   12      4.36      0.00
   46   12   12      7.97      0.00
   48   12   12      3.88      0.00
    1   13   12    -10.85      0.00
    3   13   12    -10.57      0.00
    5   13   12     -6.95      0.00
    7   13   12     -7.76      0.00
    9   13   12     -7.71      0.00
   11   13   12     -8.77      0.00
   13   13   12    -13.16      0.00
   15   13   12    -12.73      0.00
   17   13   12    -12.47      0.00
   19   13   12    -13.17      0.00
   21   13   12     -7.40      0.00
   23   13   12    -10.86      0.00
   25   13   12     -9.36      0.00
   27   13   12     -9.75      0.00
   29   13   12     -9.84      0.00
   31   13   12     -7.40      0.00
   33   13   12     -6.44      0.00
   35   13   12     -6.88      0.00
   37   13   12     -5.50      0.00
   39   13   12     -4.89      0.00
   41   13   12     -6.42      0.00
   43   13   12     -3.33      0.00
   45   13   12     -6.16      0.00
   47   13   12      0.65      0.00
    0   14   12    -14.79      0.00
    2   14   12     -7.83      0.00
    4   14   12    -10.96      0.00
    6   14   12    -11.86      0.00
    8   14   12     -6.17      0.00
   10   14   12    -11.52      0.00
   12   14   12     -6.09      0.00
   14   14   12     -1.97      0.00
   16   14   12     -3.52      0.00
   18   14   12      4.12      0.00
   20   14   12     -3.84      0.00
   22   14   12     -3.19      0.00
   24   14   12     -6.49      0.00
   26   14   12     -5.96      0.00
   28   14   12     -1.47      0.00
   30   14   12     -2.55      0.00
   32   14   12      0.88      0.00
   34   14   12     -3.43      0.00
   36   14   12     -2.51      0.00
   38   14   12     -3.82      0.00
   40   14   12     -2.79      0.00
   42   14   12     -4.84      0.00
   44   14   12     -0.19      0.00
    1   15   12      1.87      0.00
    3   15   12      0.06      0.00
    5   15   12      1.96      0.00
    7   15   12     -1.93      0.00
    9   15   12     -0.51      0.00
   11   15   12     -2.88      0.00
   13   15   12     -2.89      0.00
   15   15   12     -1.56      0.00
   17   15   12     -0.75      0.00
   19   15   12     -0.59      0.00
   21   15   12      2.40      0.00
   23   15   12     -4.74      0.00
   25   15   12      1.76      0.00
   27   15   12     -7.37      0.00
   29   15   12      1.33      0.00
   31   15   12     -4.66      0.00
   33   15   12      0.39      0.00
   35   15   12     -3.15      0.00
   37   15   12      2.08      0.00
   39   15   12     -0.43      0.00
   41   15   12      3.13      0.00
   43   15   12     -1.59      0.00
    0   16   12     -4.34      0.00
    2   16   12     -1.91      0.00
    4   16   12     -2.05      0.00
    6   16   12     -0.54      0.00
    8   16   12      3.08      0.00
   10   16   12      0.65      0.00
   12   16   12      1.35      0.00
   14   16   12     -0.61      0.00
   16   16   12     -0.14      0.00
   18   16   12      5.50      0.00
   20   16   12      3.29      0.00
   22   16   12      6.00      0.00
   24   16   12      1.85      0.00
   26   16   12     -0.21      0.00
   28   16   12      2.20      0.00
   30   16   12      1.66      0.00
   32   16   12      2.82      0.00
   34   16   12      1.99      0.00
   36   16   12      1.43      0.00
   38   16   12     -1.10      0.00
   40   16   12      2.11      0.00
    1   17   12      2.22      0.00
    3   17   12      3.59      0.00
    5   17   12     -0.70      0.00
    7   17   12      1.28      0.00
    9   17   12     -0.09      0.00
   11   17   12     -0.94      0.00
   13   17   12     -0.66      0.00
   15   17   12     -5.07      0.00
   17   17   12     -6.44      0.00
   19   17   12     -8.62      0.00
   21   17   12     -4.45      0.00
   23   17   12     -5.85      0.00
   25   17   12     -0.01      0.00
   27   17   12     -5.20      0.00
   29   17   12     -0.79      0.00
   31   17   12     -0.56      0.00
   33   17   12      3.53      0.00
   35   17   12      6.37      0.00
   37   17   12      4.23      0.00
    0   18   12     -2.55      0.00
    2   18   12     -5.12      0.00
    4   18   12     -3.10      0.00
    6   18   12     -0.07      0.00
    8   18   12     -6.07      0.00
   10   18   12     -4.02      0.00
   12   18   12     -6.31      0.00
   14   18   12     -8.08      0.00
   16   18   12     -3.25      0.00
   18   18   12     -7.51      0.00
   20   18   12     -4.04      0.00
   22   18   12     -6.54      0.00
   24   18   12     -7.01      0.00
   26   18   12     -6.81      0.00
   28   18   12     -5.70      0.00
   30   18   12     -3.40      0.00
   32   18   12      4.07      0.00
   34   18   12      1.22      0.00
    1   19   12      3.04      0.00
    3   19   12      2.64      0.00
    5   19   12      7.60      0.00
    7   19   12      1.35      0.00
    9   19   12      1.33      0.00
   11   19   12     -2.73      0.00
   13   19   12      1.92      0.00
   15   19   12      1.68      0.00
   17   19   12      7.30      0.00
   19   19   12      1.11      0.00
   21   19   12      4.37      0.00
   23   19   12      2.31      0.00
   25   19   12      3.22      0.00
   27   19   12      4.71      0.00
   29   19   12      1.50      0.00
   31   19   12      3.64      0.00
    0   20   12      0.45      0.00
    2   20   12      2.14      0.00
    4   20   12      3.30      0.00
    6   20   12      1.90      0.00
    8   20   12      1.59      0.00
   10   20   12     -1.35      0.00
   12   20   12     -2.11      0.00
   14   20   12      1.76      0.00
   16   20   12      3.49      0.00
   18   20   12      5.74      0.00
   20   20   12      4.61      0.00
   22   20   12      3.26      0.00
   24   20   12      1.71      0.00
   26   20   12      3.00      0.00
    1   21   12     -0.17      0.00
    3   21   12      4.71      0.00
    5   21   12     -0.33      0.00
    7   21   12      2.15      0.00
    9   21   12     -1.73      0.00
   11   21   12     -6.14      0.00
   13   21   12     -0.81      0.00
   15   21   12     -4.10      0.00
   17   21   12      0.90      0.00
   19   21   12     -1.38      0.00
   21   21   12      0.12      0.00
    0   22   12     -7.75      0.00
    2   22   12    -26.76      0.00
    4   22   12     -8.16      0.00
    6   22   12    -22.91      0.00
    8   22   12     -6.17      0.00
   10   22   12    -13.01      0.00
   12   22   12     -3.12      0.00
   14   22   12     -3.79      0.00
    1    1   13    -51.04      0.00
    3    1   13    -25.64      0.00
    5    1   13    -10.40      0.00
    7    1   13      2.40      0.00
    9    1   13    -23.88      0.00
   11    1   13    -18.31      0.00
   13    1   13    -32.47      0.00
   15    1   13     -2.72      0.00
   17    1   13    -13.16      0.00
   19    1   13      3.78      0.00
   21    1   13    -21.90      0.00
   23    1   13     -6.88      0.00
   25    1   13    -34.20      0.00
   27    1   13     -6.97      0.00
   29    1   13    -30.60      0.00
   31    1   13      0.45      0.00
   33    1   13    -23.29      0.00
   35    1   13     -3.27      0.00
   37    1   13    -23.60      0.00
   39    1   13     -7.43      0.00
   41    1   13    -13.28      0.00
   43    1   13     -3.90      0.00
   45    1   13     -8.94      0.00
   47    1   13     -6.52      0.00
   49    1   13     -8.75      0.00
   51    1   13      0.46      0.00
   53    1   13     -1.37      0.00
   55    1   13      3.64      0.00
   57    1   13     -0.92      0.00
    0    2   13    -25.73      0.00
    2    2   13     12.05      0.00
    4    2   13    -28.90      0.00
    6    2   13     -8.75      0.00
    8    2   13    -27.40      0.00
   10    2   13     -2.63      0.00
   12    2   13    -21.71      0.00
   14    2   13     12.97      0.00
   16    2   13    -32.35      0.00
   18    2   13      1.67      0.00
   20    2   13    -24.23      0.00
   22    2   13     -4.67      0.00
   24    2   13      0.68      0.00
   26    2   13     -4.86      0.00
   28    2   13     -3.00      0.00
   30    2   13     -1.48      0.00
   32    2   13    -15.63      0.00
   34    2   13      3.57      0.00
   36    2   13    -19.81      0.00
   38    2   13      1.73      0.00
   40    2   13    -12.34      0.00
   42    2   13      0.67      0.00
   44    2   13     -5.34      0.00
   46    2   13     -1.99      0.00
   48    2   13     -3.60      0.00
   50    2   13     -1.37      0.00
   52    2   13      0.80      0.00
   54    2   13     -4.08      0.00
   56    2   13      0.34      0.00
    1    3   13    -10.25      0.00
    3    3   13     -7.25      0.00
    5    3   13     25.45      0.00
    7    3   13     -0.23      0.00
    9    3   13     -2.37      0.00
   11    3   13    -24.60      0.00
   13    3   13    -18.44      0.00
   15    3   13    -10.31      0.00
   17    3   13     -0.41      0.00
   19    3   13     -5.59      0.00
   21    3   13    -11.99      0.00
   23    3   13    -11.93      0.00
   25    3   13    -20.27      0.00
   27    3   13      1.43      0.00
   29    3   13    -13.49      0.00
   31    3   13      5.75      0.00
   33    3   13    -10.57      0.00
   35    3   13     -3.85      0.00
   37    3   13     -5.36      0.00
   39    3   13     -1.79      0.00
   41    3   13      1.21      0.00
   43    3   13      1.01      0.00
   45    3   13     -1.18      0.00
   47    3   13     -3.55      0.00
   49    3   13     -2.20      0.00
   51    3   13     -3.58      0.00
   53    3   13     -9.32      0.00
   55    3   13     -7.10      0.00
   57    3   13    -16.26      0.00
    0    4   13    -40.42      0.00
    2    4   13    -20.48      0.00
    4    4   13    -34.74      0.00
    6    4   13    -15.24      0.00
    8    4   13    -29.33      0.00
   10    4   13    -18.17      0.00
   12    4   13    -22.11      0.00
   14    4   13    -24.13      0.00
   16    4   13    -11.80      0.00
   18    4   13    -20.67      0.00
   20    4   13    -10.09      0.00
   22    4   13     -8.72      0.00
   24    4   13    -19.49      0.00
   26    4   13     -6.05      0.00
   28    4   13    -18.67      0.00
   30    4   13     -8.80      0.00
   32    4   13     -8.15      0.00
   34    4   13    -16.44      0.00
   36    4   13     -6.10      0.00
   38    4   13    -16.60      0.00
   40    4   13     -4.13      0.00
   42    4   13     -7.60      0.00
   44    4   13     -4.51      0.00
   46    4   13     -4.41      0.00
   48    4   13     -5.43      0.00
   50    4   13     -5.22      0.00
   52    4   13     -3.57      0.00
   54    4   13     -5.96      0.00
   56    4   13     -0.86      0.00
    1    5   13     18.58      0.00
    3    5   13     18.09      0.00
    5    5   13     12.40      0.00
    7    5   13      4.96      0.00
    9    5   13     19.37      0.00
   11    5   13      4.39      0.00
   13    5   13     17.10      0.00
   15    5   13      3.84      0.00
   17    5   13     -8.91      0.00
   19    5   13      1.54      0.00
   21    5   13     -7.72      0.00
   23    5   13      7.60      0.00
   25    5   13      5.53      0.00
   27    5   13     -2.89      0.00
   29    5   13      1.69      0.00
   31    5   13     -6.68      0.00
   33    5   13      0.76      0.00
   35    5   13      6.49      0.00
   37    5   13      3.32      0.00
   39    5   13     13.65      0.00
   41    5   13      5.98      0.00
   43    5   13      7.68      0.00
   45    5   13      1.79      0.00
   47    5   13     -0.20      0.00
   49    5   13     -2.24      0.00
   51    5   13     -0.97      0.00
   53    5   13     -4.16      0.00
   55    5   13     -6.78      0.00
    0    6   13     -4.50      0.00
    2    6   13    -17.14      0.00
    4    6   13    -13.54      0.00
    6    6   13    -17.95      0.00
    8    6   13    -17.83      0.00
   10    6   13    -11.63      0.00
   12    6   13     -7.11      0.00
   14    6   13    -11.66      0.00
   16    6   13     -7.57      0.00
   18    6   13    -17.60      0.00
   20    6   13     -2.77      0.00
   22    6   13    -13.53      0.00
   24    6   13      4.73      0.00
   26    6   13    -18.15      0.00
   28    6   13      0.40      0.00
   30    6   13    -18.36      0.00
   32    6   13      3.66      0.00
   34    6   13     -7.00      0.00
   36    6   13      3.33      0.00
   38    6   13     -7.32      0.00
   40    6   13     -6.11      0.00
   42    6   13    -11.74      0.00
   44    6   13     -6.16      0.00
   46    6   13     -5.26      0.00
   48    6   13     -2.58      0.00
   50    6   13      0.18      0.00
   52    6   13     -3.44      0.00
   54    6   13      0.96      0.00
    1    7   13     17.85      0.00
    3    7   13     21.05      0.00
    5    7   13     17.68      0.00
    7    7   13     18.66      0.00
    9    7   13     14.10      0.00
   11    7   13      5.43      0.00
   13    7   13     12.69      0.00
   15    7   13     -3.27      0.00
   17    7   13     10.28      0.00
   19    7   13      6.41      0.00
   21    7   13     10.96      0.00
   23    7   13     20.18      0.00
   25    7   13      9.36      0.00
   27    7   13     13.10      0.00
   29    7   13      2.42      0.00
   31    7   13      4.61      0.00
   33    7   13      1.12      0.00
   35    7   13      5.43      0.00
   37    7   13      2.03      0.00
   39    7   13      3.10      0.00
   41    7   13      1.75      0.00
   43    7   13     -0.87      0.00
   45    7   13      0.29      0.00
   47    7   13     -2.13      0.00
   49    7   13     -0.60      0.00
   51    7   13      1.00      0.00
   53    7   13      0.24      0.00
    0    8   13      2.64      0.00
    2    8   13     -8.72      0.00
    4    8   13    -18.42      0.00
    6    8   13    -25.41      0.00
    8    8   13    -25.40      0.00
   10    8   13     -4.43      0.00
   12    8   13     -3.34      0.00
   14    8   13      0.73      0.00
   16    8   13    -10.91      0.00
   18    8   13    -20.43      0.00
   20    8   13    -13.06      0.00
   22    8   13    -10.51      0.00
   24    8   13      2.20      0.00
   26    8   13     -6.02      0.00
   28    8   13     -5.41      0.00
   30    8   13    -13.66      0.00
   32    8   13     -8.29      0.00
   34    8   13      0.14      0.00
   36    8   13     -2.68      0.00
   38    8   13      4.29      0.00
   40    8   13     -8.77      0.00
   42    8   13     -2.36      0.00
   44    8   13     -3.21      0.00
   46    8   13      0.12      0.00
   48    8   13      5.29      0.00
   50    8   13     -0.86      0.00
   52    8   13      4.07      0.00
    1    9   13    -23.56      0.00
    3    9   13    -11.03      0.00
    5    9   13      7.63      0.00
    7    9   13      7.04      0.00
    9    9   13     -1.35      0.00
   11    9   13     -7.03      0.00
   13    9   13     -5.32      0.00
   15    9   13      7.87      0.00
   17    9   13     15.13      0.00
   19    9   13     11.90      0.00
   21    9   13      4.54      0.00
   23    9   13     -0.20      0.00
   25    9   13     -5.04      0.00
   27    9   13      3.56      0.00
   29    9   13     -4.36      0.00
   31    9   13     -2.30      0.00
   33    9   13     -7.69      0.00
   35    9   13     -9.02      0.00
   37    9   13     -2.56      0.00
   39    9   13     -2.72      0.00
   41    9   13      3.43      0.00
   43    9   13      0.48      0.00
   45    9   13      2.92      0.00
   47    9   13     -1.99      0.00
   49    9   13      0.09      0.00
   51    9   13     -3.60      0.00
    0   10   13     22.54      0.00
    2   10   13     24.24      0.00
    4   10   13     11.18      0.00
    6   10   13      5.69      0.00
    8   10   13      8.70      0.00
   10   10   13      8.11      0.00
   12   10   13     15.69      0.00
   14   10   13      6.61      0.00
   16   10   13      4.69      0.00
   18   10   13     -3.72      0.00
   20   10   13      1.45      0.00
   22   10   13      2.59      0.00
   24   10   13      9.51      0.00
   26   10   13      8.97      0.00
   28   10   13      4.07      0.00
   30   10   13      2.26      0.00
   32   10   13      0.78      0.00
   34   10   13      4.04      0.00
   36   10   13      7.21      0.00
   38   10   13      3.48      0.00
   40   10   13     -1.17      0.00
   42   10   13     -2.73      0.00
   44   10   13     -3.25      0.00
   46   10   13      4.31      0.00
   48   10   13      1.72      0.00
   50   10   13      4.70      0.00
    1   11   13      6.25      0.00
    3   11   13      5.48      0.00
    5   11   13     17.11      0.00
    7   11   13      9.04      0.00
    9   11   13      8.22      0.00
   11   11   13      7.33      0.00
   13   11   13     -0.81      0.00
   15   11   13     10.80      0.00
   17   11   13     -0.31      0.00
   19   11   13      3.70      0.00
   21   11   13     -4.11      0.00
   23   11   13     -2.24      0.00
   25   11   13     -0.75      0.00
   27   11   13      5.66      0.00
   29   11   13      5.46      0.00
   31   11   13      7.53      0.00
   33   11   13      1.22      0.00
   35   11   13      0.25      0.00
   37   11   13     -0.53      0.00
   39   11   13      0.21      0.00
   41   11   13      5.19      0.00
   43   11   13      3.61      0.00
   45   11   13      2.51      0.00
   47   11   13      3.51      0.00
   49   11   13     -0.08      0.00
    0   12   13      2.24      0.00
    2   12   13     11.31      0.00
    4   12   13     -0.81      0.00
    6   12   13      3.82      0.00
    8   12   13      0.57      0.00
   10   12   13      3.78      0.00
   12   12   13      5.60      0.00
   14   12   13      8.20      0.00
   16   12   13      5.35      0.00
   18   12   13     10.70      0.00
   20   12   13     -0.70      0.00
   22   12   13      7.52      0.00
   24   12   13     -2.58      0.00
   26   12   13      5.05      0.00
   28   12   13     -1.74      0.00
   30   12   13     -2.24      0.00
   32   12   13     -6.82      0.00
   34   12   13     -5.14      0.00
   36   12   13     -3.81      0.00
   38   12   13     -1.03      0.00
   40   12   13     -0.46      0.00
   42   12   13     -1.17      0.00
   44   12   13      1.97      0.00
   46   12   13      1.42      0.00
   48   12   13      5.77      0.00
    1   13   13      0.92      0.00
    3   13   13      2.22      0.00
    5   13   13      1.49      0.00
    7   13   13      4.96      0.00
    9   13   13      7.52      0.00
   11   13   13      5.29      0.00
   13   13   13      6.34      0.00
   15   13   13     -1.69      0.00
   17   13   13     -1.26      0.00
   19   13   13     -2.56      0.00
   21   13   13      1.37      0.00
   23   13   13      1.21      0.00
   25   13   13      3.67      0.00
   27   13   13      0.48      0.00
   29   13   13      0.47      0.00
   31   13   13     -1.95      0.00
   33   13   13     -1.60      0.00
   35   13   13     -6.27      0.00
   37   13   13     -1.41      0.00
   39   13   13     -3.55      0.00
   41   13   13      0.80      0.00
   43   13   13      1.76      0.00
   45   13   13     -0.88      0.00
   47   13   13      0.13      0.00
    0   14   13     16.31      0.00
    2   14   13      6.30      0.00
    4   14   13     16.16      0.00
    6   14   13     11.56      0.00
    8   14   13     12.03      0.00
   10   14   13     11.40      0.00
   12   14   13     11.48      0.00
   14   14   13      9.10      0.00
   16   14   13     12.94      0.00
   18   14   13      1.20      0.00
   20   14   13      5.87      0.00
   22   14   13     -2.19      0.00
   24   14   13      4.42      0.00
   26   14   13      3.91      0.00
   28   14   13      5.74      0.00
   30   14   13      4.56      0.00
   32   14   13      6.16      0.00
   34   14   13      4.50      0.00
   36   14   13      4.82      0.00
   38   14   13      0.52      0.00
   40   14   13     -1.51      0.00
   42   14   13     -0.30      0.00
   44   14   13      0.26      0.00
    1   15   13      7.27      0.00
    3   15   13     10.61      0.00
    5   15   13      4.70      0.00
    7   15   13      6.58      0.00
    9   15   13      4.77      0.00
   11   15   13      1.28      0.00
   13   15   13      5.67      0.00
   15   15   13      0.59      0.00
   17   15   13      1.16      0.00
   19   15   13      0.23      0.00
   21   15   13     -2.63      0.00
   23   15   13      2.49      0.00
   25   15   13     -1.35      0.00
   27   15   13     -0.66      0.00
   29   15   13     -1.44      0.00
   31   15   13     -5.79      0.00
   33   15   13     -0.38      0.00
   35   15   13     -3.18      0.00
   37   15   13     -0.63      0.00
   39   15   13     -1.14      0.00
   41   15   13     -2.35      0.00
    0   16   13     -4.82      0.00
    2   16   13     -8.31      0.00
    4   16   13     -1.13      0.00
    6   16   13     -4.87      0.00
    8   16   13      0.76      0.00
   10   16   13     -4.38      0.00
   12   16   13     -3.09      0.00
   14   16   13     -2.60      0.00
   16   16   13     -0.12      0.00
   18   16   13     -0.85      0.00
   20   16   13      1.74      0.00
   22   16   13     -5.38      0.00
   24   16   13      0.27      0.00
   26   16   13     -0.99      0.00
   28   16   13      3.11      0.00
   30   16   13      3.58      0.00
   32   16   13     -0.50      0.00
   34   16   13     -0.99      0.00
   36   16   13     -4.79      0.00
   38   16   13     -3.38      0.00
   40   16   13     -4.61      0.00
    1   17   13      7.54      0.00
    3   17   13      3.09      0.00
    5   17   13      1.63      0.00
    7   17   13     -2.53      0.00
    9   17   13     -4.45      0.00
   11   17   13     -0.10      0.00
   13   17   13     -1.88      0.00
   15   17   13      1.15      0.00
   17   17   13     -1.86      0.00
   19   17   13     -3.64      0.00
   21   17   13     -3.74      0.00
   23   17   13     -2.99      0.00
   25   17   13      0.82      0.00
   27   17   13      0.94      0.00
   29   17   13      2.05      0.00
   31   17   13     -1.16      0.00
   33   17   13     -1.92      0.00
   35   17   13     -2.39      0.00
   37   17   13     -1.37      0.00
    0   18   13      4.79      0.00
    2   18   13      4.29      0.00
    4   18   13      5.76      0.00
    6   18   13      7.77      0.00
    8   18   13      6.73      0.00
   10   18   13      7.47      0.00
   12   18   13      4.62      0.00
   14   18   13      4.60      0.00
   16   18   13      6.12      0.00
   18   18   13      7.35      0.00
   20   18   13      6.20      0.00
   22   18   13      5.26      0.00
   24   18   13     -0.24      0.00
   26   18   13      3.01      0.00
   28   18   13      1.69      0.00
   30   18   13      4.21      0.00
   32   18   13      1.31      0.00
   34   18   13     -2.24      0.00
    1   19   13      2.72      0.00
    3   19   13      1.10      0.00
    5   19   13     -1.79      0.00
    7   19   13      1.35      0.00
    9   19   13     -2.04      0.00
   11   19   13      7.84      0.00
   13   19   13      0.39      0.00
   15   19   13      6.34      0.00
   17   19   13     -2.12      0.00
   19   19   13      0.64      0.00
   21   19   13     -1.55      0.00
   23   19   13      1.60      0.00
   25   19   13      1.68      0.00
   27   19   13      2.72      0.00
   29   19   13      1.11      0.00
    0   20   13      2.53      0.00
    2   20   13      1.23      0.00
    4   20   13      2.19      0.00
    6   20   13     -1.30      0.00
    8   20   13      4.70      0.00
   10   20   13     -0.27      0.00
   12   20   13      3.84      0.00
   14   20   13     -2.39      0.00
   16   20   13     -1.06      0.00
   18   20   13     -1.85      0.00
   20   20   13      1.64      0.00
   22   20   13      1.72      0.00
   24   20   13      2.99      0.00
   26   20   13      0.42      0.00
    1   21   13     -0.34      0.00
    3   21   13      0.57      0.00
    5   21   13     -0.22      0.00
    7   21   13     -3.13      0.00
    9   21   13     -0.60      0.00
   11   21   13     -5.93      0.00
   13   21   13     -1.29      0.00
   15   21   13     -1.76      0.00
   17   21   13     -2.17      0.00
   19   21   13      0.96      0.00
    0   22   13     -5.81      0.00
    2   22   13     10.68      0.00
    4   22   13      0.03      0.00
    6   22   13      6.13      0.00
    8   22   13      3.32      0.00
   10   22   13     -1.46      0.00
    0    0   14     38.46      0.00
    2    0   14     51.64      0.00
    4    0   14     -0.06      0.00
    6    0   14     -1.76      0.00
    8    0   14    -15.03      0.00
   10    0   14     -0.68      0.00
   12    0   14     -2.07      0.00
   14    0   14     -8.52      0.00
   16    0   14     -1.83      0.00
   18    0   14     -7.99      0.00
   20    0   14      8.86      0.00
   22    0   14      4.02      0.00
   24    0   14      5.88      0.00
   26    0   14     11.66      0.00
   28    0   14      7.31      0.00
   30    0   14     17.75      0.00
   32    0   14      6.49      0.00
   34    0   14     13.71      0.00
   36    0   14      7.83      0.00
   38    0   14      8.41      0.00
   40    0   14      5.59      0.00
   42    0   14     -1.11      0.00
   44    0   14      0.41      0.00
   46    0   14      3.31      0.00
   48    0   14      5.49      0.00
   50    0   14      3.18      0.00
   52    0   14      3.37      0.00
   54    0   14     -2.86      0.00
   56    0   14      3.29      0.00
    1    1   14    -37.55      0.00
    3    1   14    -25.14      0.00
    5    1   14    -29.65      0.00
    7    1   14    -16.31      0.00
    9    1   14    -15.47      0.00
   11    1   14    -23.86      0.00
   13    1   14    -21.49      0.00
   15    1   14    -20.38      0.00
   17    1   14    -32.72      0.00
   19    1   14     -1.67      0.00
   21    1   14    -30.92      0.00
   23    1   14     -0.89      0.00
   25    1   14    -19.05      0.00
   27    1   14    -14.35      0.00
   29    1   14    -10.81      0.00
   31    1   14    -17.59      0.00
   33    1   14    -11.33      0.00
   35    1   14     -5.40      0.00
   37    1   14    -11.81      0.00
   39    1   14      5.46      0.00
   41    1   14     -8.80      0.00
   43    1   14      5.80      0.00
   45    1   14     -5.06      0.00
   47    1   14      1.84      0.00
   49    1   14     -6.19      0.00
   51    1   14      0.33      0.00
   53    1   14     -5.15      0.00
   55    1   14      3.04      0.00
    0    2   14      9.85      0.00
    2    2   14    -48.93      0.00
    4    2   14    -18.74      0.00
    6    2   14    -60.64      0.00
    8    2   14    -13.27      0.00
   10    2   14    -24.88      0.00
   12    2   14     13.91      0.00
   14    2   14    -20.43      0.00
   16    2   14     -3.14      0.00
   18    2   14    -25.47      0.00
   20    2   14     -9.67      0.00
   22    2   14     -9.94      0.00
   24    2   14     -7.49      0.00
   26    2   14     -6.64      0.00
   28    2   14    -10.33      0.00
   30    2   14    -11.23      0.00
   32    2   14     -6.11      0.00
   34    2   14     -6.84      0.00
   36    2   14      0.80      0.00
   38    2   14     -1.85      0.00
   40    2   14     -1.88      0.00
   42    2   14     -2.76      0.00
   44    2   14      1.15      0.00
   46    2   14      0.73      0.00
   48    2   14      3.58      0.00
   50    2   14     -0.83      0.00
   52    2   14     -2.69      0.00
   54    2   14     -2.17      0.00
   56    2   14      0.56      0.00
    1    3   14     34.74      0.00
    3    3   14     40.10      0.00
    5    3   14     37.46      0.00
    7    3   14     40.88      0.00
    9    3   14     31.46      0.00
   11    3   14     22.84      0.00
   13    3   14     14.93      0.00
   15    3   14      8.78      0.00
   17    3   14     10.72      0.00
   19    3   14      8.21      0.00
   21    3   14     11.04      0.00
   23    3   14      8.80      0.00
   25    3   14      8.50      0.00
   27    3   14     10.71      0.00
   29    3   14      5.04      0.00
   31    3   14     14.61      0.00
   33    3   14      6.37      0.00
   35    3   14     19.59      0.00
   37    3   14      7.12      0.00
   39    3   14     14.32      0.00
   41    3   14      1.67      0.00
   43    3   14      8.60      0.00
   45    3   14     -0.54      0.00
   47    3   14      6.60      0.00
   49    3   14     -3.37      0.00
   51    3   14      3.16      0.00
   53    3   14     -2.86      0.00
   55    3   14      2.83      0.00
    0    4   14     27.65      0.00
    2    4   14      0.62      0.00
    4    4   14     18.79      0.00
    6    4   14     -4.15      0.00
    8    4   14      8.95      0.00
   10    4   14      0.04      0.00
   12    4   14      0.73      0.00
   14    4   14      0.16      0.00
   16    4   14      0.79      0.00
   18    4   14      5.21      0.00
   20    4   14     10.07      0.00
   22    4   14     11.27      0.00
   24    4   14     12.67      0.00
   26    4   14     13.61      0.00
   28    4   14     11.29      0.00
   30    4   14     12.84      0.00
   32    4   14      6.34      0.00
   34    4   14     10.85      0.00
   36    4   14      2.10      0.00
   38    4   14      7.68      0.00
   40    4   14      1.28      0.00
   42    4   14      4.01      0.00
   44    4   14      4.12      0.00
   46    4   14      2.33      0.00
   48    4   14      3.38      0.00
   50    4   14      0.33      0.00
   52    4   14      5.10      0.00
   54    4   14      4.79      0.00
   56    4   14      8.95      0.00
    1    5   14    -16.59      0.00
    3    5   14    -17.85      0.00
    5    5   14    -16.76      0.00
    7    5   14    -16.08      0.00
    9    5   14    -20.21      0.00
   11    5   14    -15.09      0.00
   13    5   14    -19.69      0.00
   15    5   14    -15.44      0.00
   17    5   14    -13.11      0.00
   19    5   14    -17.39      0.00
   21    5   14    -12.08      0.00
   23    5   14    -11.47      0.00
   25    5   14    -10.54      0.00
   27    5   14      2.21      0.00
   29    5   14    -12.05      0.00
   31    5   14      1.32      0.00
   33    5   14    -13.47      0.00
   35    5   14     -4.31      0.00
   37    5   14     -4.67      0.00
   39    5   14     -3.55      0.00
   41    5   14      2.88      0.00
   43    5   14     -4.74      0.00
   45    5   14      0.47      0.00
   47    5   14     -7.63      0.00
   49    5   14     -2.54      0.00
   51    5   14     -1.85      0.00
   53    5   14     -2.17      0.00
   55    5   14      1.96      0.00
    0    6   14    -23.80      0.00
    2    6   14    -12.31      0.00
    4    6   14     -7.20      0.00
    6    6   14     -4.49      0.00
    8    6   14      0.35      0.00
   10    6   14    -11.63      0.00
   12    6   14    -12.37      0.00
   14    6   14     -4.12      0.00
   16    6   14     -4.18      0.00
   18    6   14      7.49      0.00
   20    6   14     -3.40      0.00
   22    6   14     -9.78      0.00
   24    6   14    -15.47      0.00
   26    6   14    -11.66      0.00
   28    6   14    -12.79      0.00
   30    6   14      3.71      0.00
   32    6   14    -14.55      0.00
   34    6   14      3.28      0.00
   36    6   14    -14.72      0.00
   38    6   14      0.63      0.00
   40    6   14     -5.85      0.00
   42    6   14      2.47      0.00
   44    6   14     -1.92      0.00
   46    6   14      3.29      0.00
   48    6   14     -2.24      0.00
   50    6   14      0.32      0.00
   52    6   14     -1.83      0.00
   54    6   14      0.48      0.00
    1    7   14     11.74      0.00
    3    7   14      4.53      0.00
    5    7   14     23.84      0.00
    7    7   14      6.63      0.00
    9    7   14     24.04      0.00
   11    7   14      6.30      0.00
   13    7   14     15.01      0.00
   15    7   14      9.41      0.00
   17    7   14     15.17      0.00
   19    7   14     13.70      0.00
   21    7   14      9.32      0.00
   23    7   14      5.94      0.00
   25    7   14      2.55      0.00
   27    7   14      2.25      0.00
   29    7   14      9.81      0.00
   31    7   14      1.28      0.00
   33    7   14     10.36      0.00
   35    7   14     -3.45      0.00
   37    7   14      3.53      0.00
   39    7   14      0.29      0.00
   41    7   14      3.19      0.00
   43    7   14      3.86      0.00
   45    7   14      2.08      0.00
   47    7   14      0.13      0.00
   49    7   14      3.32      0.00
   51    7   14      0.11      0.00
   53    7   14      4.41      0.00
    0    8   14      7.05      0.00
    2    8   14      6.75      0.00
    4    8   14     -7.63      0.00
    6    8   14    -10.36      0.00
    8    8   14     -4.74      0.00
   10    8   14     -3.06      0.00
   12    8   14     11.60      0.00
   14    8   14     -1.03      0.00
   16    8   14     -1.40      0.00
   18    8   14     -1.28      0.00
   20    8   14     -5.17      0.00
   22    8   14      7.70      0.00
   24    8   14      1.49      0.00
   26    8   14      2.77      0.00
   28    8   14      1.58      0.00
   30    8   14     -0.41      0.00
   32    8   14      4.22      0.00
   34    8   14      1.43      0.00
   36    8   14      2.83      0.00
   38    8   14      0.05      0.00
   40    8   14      3.39      0.00
   42    8   14      1.43      0.00
   44    8   14      5.06      0.00
   46    8   14      2.31      0.00
   48    8   14      2.70      0.00
   50    8   14      3.81      0.00
   52    8   14      2.77      0.00
    1    9   14    -22.48      0.00
    3    9   14    -21.58      0.00
    5    9   14    -10.68      0.00
    7    9   14    -15.80      0.00
    9    9   14    -13.97      0.00
   11    9   14    -20.60      0.00
   13    9   14    -21.03      0.00
   15    9   14    -12.23      0.00
   17    9   14     -7.53      0.00
   19    9   14     -0.75      0.00
   21    9   14     -3.32      0.00
   23    9   14     -9.69      0.00
   25    9   14    -10.44      0.00
   27    9   14    -10.15      0.00
   29    9   14     -6.99      0.00
   31    9   14     -4.00      0.00
   33    9   14    -10.19      0.00
   35    9   14    -10.30      0.00
   37    9   14    -13.12      0.00
   39    9   14     -7.06      0.00
   41    9   14     -6.19      0.00
   43    9   14     -2.53      0.00
   45    9   14     -8.29      0.00
   47    9   14     -6.97      0.00
   49    9   14     -7.48      0.00
   51    9   14     -4.97      0.00
    0   10   14    -17.26      0.00
    2   10   14    -18.17      0.00
    4   10   14    -30.78      0.00
    6   10   14    -26.75      0.00
    8   10   14    -32.78      0.00
   10   10   14    -11.72      0.00
   12   10   14    -20.38      0.00
   14   10   14    -15.83      0.00
   16   10   14    -24.90      0.00
   18   10   14    -26.29      0.00
   20   10   14    -18.06      0.00
   22   10   14     -8.85      0.00
   24   10   14     -9.31      0.00
   26   10   14     -4.97      0.00
   28   10   14    -15.02      0.00
   30   10   14     -9.39      0.00
   32   10   14     -9.01      0.00
   34   10   14     -2.57      0.00
   36   10   14     -3.09      0.00
   38   10   14     -3.10      0.00
   40   10   14     -5.80      0.00
   42   10   14     -3.53      0.00
   44   10   14     -3.38      0.00
   46   10   14     -1.37      0.00
   48   10   14     -3.00      0.00
   50   10   14     -4.37      0.00
    1   11   14     -9.18      0.00
    3   11   14      0.76      0.00
    5   11   14     -2.98      0.00
    7   11   14      8.90      0.00
    9   11   14      3.31      0.00
   11   11   14      3.66      0.00
   13   11   14      8.60      0.00
   15   11   14      3.25      0.00
   17   11   14     10.75      0.00
   19   11   14      4.78      0.00
   21   11   14      3.43      0.00
   23   11   14      0.81      0.00
   25   11   14     -5.75      0.00
   27   11   14     -1.91      0.00
   29   11   14     -4.26      0.00
   31   11   14      2.24      0.00
   33   11   14      0.21      0.00
   35   11   14      1.59      0.00
   37   11   14      0.50      0.00
   39   11   14      2.89      0.00
   41   11   14      6.38      0.00
   43   11   14      4.55      0.00
   45   11   14      3.62      0.00
   47   11   14     -3.03      0.00
   49   11   14     -4.71      0.00
    0   12   14      0.68      0.00
    2   12   14     -5.87      0.00
    4   12   14     -3.52      0.00
    6   12   14     -5.62      0.00
    8   12   14     -6.68      0.00
   10   12   14     -4.91      0.00
   12   12   14     -3.49      0.00
   14   12   14     -4.53      0.00
   16   12   14     -0.54      0.00
   18   12   14     -2.54      0.00
   20   12   14      1.74      0.00
   22   12   14      1.67      0.00
   24   12   14      1.78      0.00
   26   12   14      2.09      0.00
   28   12   14     -3.00      0.00
   30   12   14     -2.04      0.00
   32   12   14     -1.09      0.00
   34   12   14      1.69      0.00
   36   12   14      7.55      0.00
   38   12   14      5.86      0.00
   40   12   14      3.30      0.00
   42   12   14      1.25      0.00
   44   12   14     -1.60      0.00
   46   12   14      1.16      0.00
    1   13   14     -7.06      0.00
    3   13   14     -8.06      0.00
    5   13   14     -8.46      0.00
    7   13   14     -7.50      0.00
    9   13   14     -8.55      0.00
   11   13   14     -7.72      0.00
   13   13   14    -12.88      0.00
   15   13   14    -15.75      0.00
   17   13   14    -14.56      0.00
   19   13   14    -14.93      0.00
   21   13   14     -7.26      0.00
   23   13   14     -8.34      0.00
   25   13   14     -6.10      0.00
   27   13   14     -5.20      0.00
   29   13   14     -3.79      0.00
   31   13   14     -0.35      0.00
   33   13   14     -1.77      0.00
   35   13   14     -1.63      0.00
   37   13   14     -3.36      0.00
   39   13   14     -1.74      0.00
   41   13   14     -1.98      0.00
   43   13   14      0.14      0.00
   45   13   14     -2.40      0.00
    0   14   14     -6.08      0.00
    2   14   14     -2.58      0.00
    4   14   14     -3.87      0.00
    6   14   14     -9.93      0.00
    8   14   14     -3.27      0.00
   10   14   14    -12.07      0.00
   12   14   14     -5.73      0.00
   14   14   14     -5.52      0.00
   16   14   14     -5.73      0.00
   18   14   14     -2.41      0.00
   20   14   14     -6.34      0.00
   22   14   14     -4.20      0.00
   24   14   14     -7.18      0.00
   26   14   14     -3.94      0.00
   28   14   14     -5.22      0.00
   30   14   14     -3.60      0.00
   32   14   14     -1.97      0.00
   34   14   14     -1.81      0.00
   36   14   14      0.99      0.00
   38   14   14      0.58      0.00
   40   14   14      2.18      0.00
   42   14   14     -0.69      0.00
   44   14   14      2.87      0.00
    1   15   14     -2.89      0.00
    3   15   14     -5.83      0.00
    5   15   14     -2.35      0.00
    7   15   14     -3.78      0.00
    9   15   14      1.05      0.00
   11   15   14      3.19      0.00
   13   15   14      0.83      0.00
   15   15   14      2.18      0.00
   17   15   14     -0.44      0.00
   19   15   14      2.00      0.00
   21   15   14      7.00      0.00
   23   15   14      0.66      0.00
   25   15   14      7.15      0.00
   27   15   14     -5.07      0.00
   29   15   14      3.06      0.00
   31   15   14     -5.13      0.00
   33   15   14      2.71      0.00
   35   15   14     -3.49      0.00
   37   15   14      5.35      0.00
   39   15   14      0.91      0.00
   41   15   14      5.68      0.00
    0   16   14      0.20      0.00
    2   16   14     -0.33      0.00
    4   16   14      0.45      0.00
    6   16   14      1.77      0.00
    8   16   14      3.26      0.00
   10   16   14      4.19      0.00
   12   16   14      3.23      0.00
   14   16   14      2.00      0.00
   16   16   14      0.32      0.00
   18   16   14      3.88      0.00
   20   16   14      3.11      0.00
   22   16   14      6.02      0.00
   24   16   14      3.97      0.00
   26   16   14      0.04      0.00
   28   16   14      0.93      0.00
   30   16   14     -0.99      0.00
   32   16   14      1.81      0.00
   34   16   14      1.70      0.00
   36   16   14      2.46      0.00
   38   16   14     -0.58      0.00
    1   17   14     -2.28      0.00
    3   17   14     -3.61      0.00
    5   17   14     -5.43      0.00
    7   17   14     -8.11      0.00
    9   17   14     -3.54      0.00
   11   17   14     -4.98      0.00
   13   17   14     -0.38      0.00
   15   17   14     -6.11      0.00
   17   17   14     -6.29      0.00
   19   17   14    -10.62      0.00
   21   17   14     -2.83      0.00
   23   17   14     -4.45      0.00
   25   17   14      0.88      0.00
   27   17   14     -6.96      0.00
   29   17   14     -7.00      0.00
   31   17   14     -8.82      0.00
   33   17   14     -5.22      0.00
   35   17   14     -1.14      0.00
    0   18   14     -5.42      0.00
    2   18   14     -6.43      0.00
    4   18   14     -2.87      0.00
    6   18   14      1.99      0.00
    8   18   14     -0.55      0.00
   10   18   14      1.20      0.00
   12   18   14     -4.09      0.00
   14   18   14     -4.00      0.00
   16   18   14     -2.27      0.00
   18   18   14     -0.10      0.00
   20   18   14      0.29      0.00
   22   18   14     -1.08      0.00
   24   18   14     -5.32      0.00
   26   18   14     -3.93      0.00
   28   18   14     -3.39      0.00
   30   18   14      0.09      0.00
   32   18   14      2.92      0.00
    1   19   14      5.69      0.00
    3   19   14      3.85      0.00
    5   19   14      3.62      0.00
    7   19   14      1.02      0.00
    9   19   14      1.53      0.00
   11   19   14      0.80      0.00
   13   19   14      3.32      0.00
   15   19   14     -1.75      0.00
   17   19   14      0.42      0.00
   19   19   14     -7.55      0.00
   21   19   14     -2.01      0.00
   23   19   14     -5.53      0.00
   25   19   14      0.00      0.00
   27   19   14     -1.71      0.00
   29   19   14     -2.18      0.00
    0   20   14      0.95      0.00
    2   20   14      2.25      0.00
    4   20   14      0.62      0.00
    6   20   14      2.88      0.00
    8   20   14      4.19      0.00
   10   20   14      7.45      0.00
   12   20   14      4.33      0.00
   14   20   14      6.53      0.00
   16   20   14      1.14      0.00
   18   20   14      7.40      0.00
   20   20   14      2.38      0.00
   22   20   14      7.34      0.00
   24   20   14      0.67      0.00
    1   21   14      5.33      0.00
    3   21   14      7.54      0.00
    5   21   14     -2.68      0.00
    7   21   14      1.13      0.00
    9   21   14      0.12      0.00
   11   21   14     -2.10      0.00
   13   21   14      4.15      0.00
   15   21   14     -3.70      0.00
   17   21   14      0.24      0.00
    0   22   14     -6.99      0.00
    2   22   14    -22.55      0.00
    4   22   14     -7.28      0.00
    6   22   14    -20.42      0.00
    1    1   15    -11.87      0.00
    3    1   15      4.87      0.00
    5    1   15      2.55      0.00
    7    1   15     14.85      0.00
    9    1   15    -19.35      0.00
   11    1   15      1.95      0.00
   13    1   15    -24.01      0.00
   15    1   15     11.42      0.00
   17    1   15    -16.21      0.00
   19    1   15     -1.64      0.00
   21    1   15    -24.06      0.00
   23    1   15    -10.80      0.00
   25    1   15    -21.78      0.00
   27    1   15     -4.83      0.00
   29    1   15    -18.99      0.00
   31    1   15     -0.48      0.00
   33    1   15    -15.75      0.00
   35    1   15     -1.82      0.00
   37    1   15    -13.61      0.00
   39    1   15     -3.53      0.00
   41    1   15     -6.85      0.00
   43    1   15      0.13      0.00
   45    1   15     -3.54      0.00
   47    1   15      1.06      0.00
   49    1   15     -4.29      0.00
   51    1   15      3.88      0.00
   53    1   15     -1.88      0.00
   55    1   15      5.29      0.00
    0    2   15    -34.99      0.00
    2    2   15     -2.76      0.00
    4    2   15    -34.89      0.00
    6    2   15    -15.59      0.00
    8    2   15    -30.56      0.00
   10    2   15     -6.18      0.00
   12    2   15    -21.13      0.00
   14    2   15     14.10      0.00
   16    2   15    -12.14      0.00
   18    2   15     10.02      0.00
   20    2   15     -8.36      0.00
   22    2   15     -9.35      0.00
   24    2   15     -6.87      0.00
   26    2   15     -7.70      0.00
   28    2   15     -4.01      0.00
   30    2   15      7.43      0.00
   32    2   15    -11.32      0.00
   34    2   15      5.96      0.00
   36    2   15    -17.21      0.00
   38    2   15     -0.92      0.00
   40    2   15     -9.22      0.00
   42    2   15     -3.38      0.00
   44    2   15     -2.74      0.00
   46    2   15     -1.13      0.00
   48    2   15      2.64      0.00
   50    2   15      2.78      0.00
   52    2   15      5.71      0.00
   54    2   15      0.68      0.00
    1    3   15      5.04      0.00
    3    3   15      0.99      0.00
    5    3   15     15.26      0.00
    7    3   15     -1.42      0.00
    9    3   15      4.75      0.00
   11    3   15     -9.36      0.00
   13    3   15     -1.33      0.00
   15    3   15     -5.17      0.00
   17    3   15     -1.45      0.00
   19    3   15     -0.50      0.00
   21    3   15     -9.32      0.00
   23    3   15      0.49      0.00
   25    3   15    -15.60      0.00
   27    3   15     -0.13      0.00
   29    3   15    -13.55      0.00
   31    3   15     -1.94      0.00
   33    3   15     -7.99      0.00
   35    3   15     -4.58      0.00
   37    3   15     -4.01      0.00
   39    3   15     -1.60      0.00
   41    3   15     -3.87      0.00
   43    3   15     -1.08      0.00
   45    3   15     -4.19      0.00
   47    3   15     -0.50      0.00
   49    3   15      0.25      0.00
   51    3   15      1.35      0.00
   53    3   15     -3.85      0.00
   55    3   15     -0.59      0.00
    0    4   15    -49.90      0.00
    2    4   15    -34.72      0.00
    4    4   15    -48.03      0.00
    6    4   15    -30.01      0.00
    8    4   15    -32.75      0.00
   10    4   15    -21.51      0.00
   12    4   15     -8.48      0.00
   14    4   15    -16.87      0.00
   16    4   15     -2.61      0.00
   18    4   15    -14.99      0.00
   20    4   15    -10.85      0.00
   22    4   15     -8.26      0.00
   24    4   15    -16.06      0.00
   26    4   15     -4.78      0.00
   28    4   15    -12.88      0.00
   30    4   15     -5.80      0.00
   32    4   15     -4.31      0.00
   34    4   15     -8.99      0.00
   36    4   15     -2.61      0.00
   38    4   15     -9.44      0.00
   40    4   15     -5.36      0.00
   42    4   15     -4.67      0.00
   44    4   15     -3.88      0.00
   46    4   15      0.85      0.00
   48    4   15     -0.52      0.00
   50    4   15      1.19      0.00
   52    4   15     -1.87      0.00
   54    4   15     -2.95      0.00
    1    5   15     14.23      0.00
    3    5   15      8.03      0.00
    5    5   15      4.47      0.00
    7    5   15     -1.97      0.00
    9    5   15     11.74      0.00
   11    5   15      6.72      0.00
   13    5   15      8.31      0.00
   15    5   15      0.88      0.00
   17    5   15    -11.65      0.00
   19    5   15     -4.26      0.00
   21    5   15     -1.86      0.00
   23    5   15      4.58      0.00
   25    5   15      8.40      0.00
   27    5   15     -4.38      0.00
   29    5   15     -0.92      0.00
   31    5   15    -10.98      0.00
   33    5   15     -0.40      0.00
   35    5   15     -0.94      0.00
   37    5   15      4.83      0.00
   39    5   15      2.92      0.00
   41    5   15      2.79      0.00
   43    5   15     -0.72      0.00
   45    5   15      0.50      0.00
   47    5   15      0.88      0.00
   49    5   15      0.97      0.00
   51    5   15      0.31      0.00
   53    5   15     -1.02      0.00
    0    6   15     -0.07      0.00
    2    6   15     -9.98      0.00
    4    6   15      5.12      0.00
    6    6   15     -7.59      0.00
    8    6   15      0.84      0.00
   10    6   15    -17.40      0.00
   12    6   15     -6.85      0.00
   14    6   15    -19.51      0.00
   16    6   15     -1.67      0.00
   18    6   15    -15.25      0.00
   20    6   15      0.56      0.00
   22    6   15    -13.93      0.00
   24    6   15      0.66      0.00
   26    6   15    -12.90      0.00
   28    6   15      5.38      0.00
   30    6   15     -9.11      0.00
   32    6   15      9.65      0.00
   34    6   15     -1.52      0.00
   36    6   15      8.51      0.00
   38    6   15      0.70      0.00
   40    6   15      3.07      0.00
   42    6   15     -2.08      0.00
   44    6   15      1.25      0.00
   46    6   15      0.08      0.00
   48    6   15     -0.28      0.00
   50    6   15     -0.90      0.00
   52    6   15     -4.26      0.00
   54    6   15     -2.30      0.00
    1    7   15     -8.02      0.00
    3    7   15     -2.53      0.00
    5    7   15     -8.60      0.00
    7    7   15      2.93      0.00
    9    7   15     -2.77      0.00
   11    7   15      1.17      0.00
   13    7   15      3.10      0.00
   15    7   15     -3.10      0.00
   17    7   15     -1.05      0.00
   19    7   15      0.87      0.00
   21    7   15     -3.32      0.00
   23    7   15     10.39      0.00
   25    7   15      3.56      0.00
   27    7   15      6.70      0.00
   29    7   15      0.85      0.00
   31    7   15     -2.96      0.00
   33    7   15     -2.36      0.00
   35    7   15      1.98      0.00
   37    7   15      1.82      0.00
   39    7   15      3.36      0.00
   41    7   15     -0.57      0.00
   43    7   15     -4.59      0.00
   45    7   15     -2.84      0.00
   47    7   15     -4.68      0.00
   49    7   15     -1.78      0.00
   51    7   15      0.33      0.00
   53    7   15     -2.00      0.00
    0    8   15      3.06      0.00
    2    8   15    -15.26      0.00
    4    8   15     -0.07      0.00
    6    8   15     -4.77      0.00
    8    8   15    -10.63      0.00
   10    8   15     -2.78      0.00
   12    8   15    -10.74      0.00
   14    8   15     -2.21      0.00
   16    8   15     -2.76      0.00
   18    8   15     -7.34      0.00
   20    8   15     -3.70      0.00
   22    8   15    -11.77      0.00
   24    8   15     -3.81      0.00
   26    8   15     -9.47      0.00
   28    8   15     -6.36      0.00
   30    8   15     -8.52      0.00
   32    8   15     -9.90      0.00
   34    8   15     -2.91      0.00
   36    8   15     -5.74      0.00
   38    8   15      3.57      0.00
   40    8   15     -3.41      0.00
   42    8   15      1.24      0.00
   44    8   15     -1.13      0.00
   46    8   15     -1.14      0.00
   48    8   15      4.28      0.00
   50    8   15     -1.28      0.00
   52    8   15      2.97      0.00
    1    9   15    -16.49      0.00
    3    9   15     -8.53      0.00
    5    9   15     -2.81      0.00
    7    9   15      2.06      0.00
    9    9   15     -5.78      0.00
   11    9   15     -7.28      0.00
   13    9   15     -9.78      0.00
   15    9   15     -1.64      0.00
   17    9   15      3.73      0.00
   19    9   15      1.86      0.00
   21    9   15     -3.94      0.00
   23    9   15     -8.13      0.00
   25    9   15    -11.34      0.00
   27    9   15     -2.51      0.00
   29    9   15     -4.71      0.00
   31    9   15     -1.95      0.00
   33    9   15     -5.03      0.00
   35    9   15     -5.02      0.00
   37    9   15     -3.00      0.00
   39    9   15     -2.40      0.00
   41    9   15     -2.81      0.00
   43    9   15     -3.10      0.00
   45    9   15     -0.96      0.00
   47    9   15      0.88      0.00
   49    9   15      3.67      0.00
   51    9   15      1.84      0.00
    0   10   15      2.27      0.00
    4   10   15      0.07      0.00
    6   10   15     -0.80      0.00
    8   10   15      0.95      0.00
   10   10   15     -1.84      0.00
   12   10   15      5.36      0.00
   14   10   15      0.40      0.00
   16   10   15      3.12      0.00
   18   10   15     -2.63      0.00
   20   10   15      3.88      0.00
   22   10   15      1.65      0.00
   24   10   15      8.38      0.00
   26   10   15      5.21      0.00
   28   10   15      3.57      0.00
   30   10   15      2.32      0.00
   32   10   15      1.12      0.00
   34   10   15      3.39      0.00
   36   10   15      1.25      0.00
   38   10   15      1.03      0.00
   40   10   15     -4.32      0.00
   42   10   15     -3.57      0.00
   44   10   15     -5.75      0.00
   46   10   15     -0.99      0.00
   48   10   15     -3.38      0.00
    1   11   15      0.48      0.00
    3   11   15     -3.13      0.00
    5   11   15      3.48      0.00
    7   11   15     -2.90      0.00
    9   11   15     -7.95      0.00
   11   11   15     -4.33      0.00
   13   11   15    -16.36      0.00
   15   11   15      2.00      0.00
   17   11   15     -5.71      0.00
   19   11   15      3.76      0.00
   21   11   15     -3.90      0.00
   23   11   15     -5.66      0.00
   25   11   15     -4.59      0.00
   27   11   15     -0.24      0.00
   29   11   15      3.76      0.00
   31   11   15      3.18      0.00
   33   11   15      0.26      0.00
   35   11   15     -6.19      0.00
   37   11   15     -1.51      0.00
   39   11   15     -3.78      0.00
   41   11   15      4.62      0.00
   43   11   15      1.57      0.00
   45   11   15      1.20      0.00
   47   11   15      0.10      0.00
    0   12   15    -15.51      0.00
    2   12   15     -5.73      0.00
    4   12   15    -11.22      0.00
    6   12   15     -7.37      0.00
    8   12   15     -6.38      0.00
   10   12   15     -7.55      0.00
   12   12   15     -3.86      0.00
   14   12   15     -1.04      0.00
   16   12   15     -3.46      0.00
   18   12   15      3.16      0.00
   20   12   15     -8.17      0.00
   22   12   15      2.36      0.00
   24   12   15     -6.08      0.00
   26   12   15      1.35      0.00
   28   12   15     -2.76      0.00
   30   12   15     -2.41      0.00
   32   12   15     -4.53      0.00
   34   12   15     -2.13      0.00
   36   12   15     -2.50      0.00
   38   12   15      0.61      0.00
   40   12   15      0.07      0.00
   42   12   15      1.72      0.00
   44   12   15      1.28      0.00
   46   12   15      2.76      0.00
    1   13   15      0.62      0.00
    3   13   15      4.47      0.00
    5   13   15      0.64      0.00
    7   13   15      5.25      0.00
    9   13   15      3.30      0.00
   11   13   15      2.05      0.00
   13   13   15      4.66      0.00
   15   13   15      1.64      0.00
   17   13   15      3.93      0.00
   19   13   15      0.70      0.00
   21   13   15      1.66      0.00
   23   13   15     -3.27      0.00
   25   13   15     -0.82      0.00
   27   13   15     -2.89      0.00
   29   13   15     -0.83      0.00
   31   13   15     -0.51      0.00
   33   13   15     -1.69      0.00
   35   13   15     -5.94      0.00
   37   13   15     -5.07      0.00
   39   13   15     -5.78      0.00
   41   13   15     -0.81      0.00
   43   13   15      3.57      0.00
   45   13   15      3.18      0.00
    0   14   15      8.92      0.00
    2   14   15      1.47      0.00
    4   14   15      9.53      0.00
    6   14   15      7.69      0.00
    8   14   15      7.85      0.00
   10   14   15      6.12      0.00
   12   14   15      6.88      0.00
   14   14   15      3.52      0.00
   16   14   15      8.90      0.00
   18   14   15     -0.22      0.00
   20   14   15      4.71      0.00
   22   14   15     -1.76      0.00
   24   14   15      4.06      0.00
   26   14   15      5.89      0.00
   28   14   15      5.05      0.00
   30   14   15      6.41      0.00
   32   14   15      4.15      0.00
   34   14   15      4.39      0.00
   36   14   15      4.81      0.00
   38   14   15      3.77      0.00
   40   14   15      1.69      0.00
   42   14   15      2.01      0.00
    1   15   15      7.43      0.00
    3   15   15     10.77      0.00
    5   15   15      7.01      0.00
    7   15   15     10.67      0.00
    9   15   15      6.03      0.00
   11   15   15      5.23      0.00
   13   15   15      3.23      0.00
   15   15   15      3.88      0.00
   17   15   15      4.11      0.00
   19   15   15      3.62      0.00
   21   15   15      1.53      0.00
   23   15   15     -1.44      0.00
   25   15   15      1.08      0.00
   27   15   15     -0.36      0.00
   29   15   15      5.88      0.00
   31   15   15      0.18      0.00
   33   15   15      3.33      0.00
   35   15   15     -1.10      0.00
   37   15   15      2.02      0.00
   39   15   15      1.12      0.00
    0   16   15     -1.53      0.00
    2   16   15     -7.52      0.00
    4   16   15     -0.38      0.00
    6   16   15     -4.15      0.00
    8   16   15     -2.06      0.00
   10   16   15     -4.43      0.00
   12   16   15     -6.74      0.00
   14   16   15     -4.26      0.00
   16   16   15     -1.23      0.00
   18   16   15     -1.29      0.00
   20   16   15      1.17      0.00
   22   16   15     -4.58      0.00
   24   16   15     -1.40      0.00
   26   16   15     -2.69      0.00
   28   16   15      1.48      0.00
   30   16   15      1.13      0.00
   32   16   15      0.45      0.00
   34   16   15      0.03      0.00
   36   16   15     -3.08      0.00
   38   16   15     -0.51      0.00
    1   17   15      2.08      0.00
    3   17   15      0.27      0.00
    5   17   15      0.29      0.00
    7   17   15     -2.63      0.00
    9   17   15     -4.41      0.00
   11   17   15     -0.75      0.00
   13   17   15     -0.45      0.00
   15   17   15      3.94      0.00
   17   17   15      1.11      0.00
   19   17   15      1.16      0.00
   21   17   15     -1.49      0.00
   23   17   15      1.18      0.00
   25   17   15      2.22      0.00
   27   17   15      2.37      0.00
   29   17   15      2.77      0.00
   31   17   15     -1.50      0.00
   33   17   15     -0.60      0.00
   35   17   15     -2.63      0.00
    0   18   15      3.50      0.00
    2   18   15      5.60      0.00
    4   18   15      5.00      0.00
    6   18   15      8.69      0.00
    8   18   15      6.60      0.00
   10   18   15      6.21      0.00
   12   18   15      1.19      0.00
   14   18   15      1.38      0.00
   16   18   15      3.63      0.00
   18   18   15      6.27      0.00
   20   18   15      5.20      0.00
   22   18   15      3.58      0.00
   24   18   15     -2.74      0.00
   26   18   15      2.27      0.00
   28   18   15     -0.75      0.00
   30   18   15      4.98      0.00
    1   19   15     -0.39      0.00
    3   19   15     -0.26      0.00
    5   19   15      1.58      0.00
    7   19   15      0.62      0.00
    9   19   15      0.20      0.00
   11   19   15      3.19      0.00
   13   19   15      3.34      0.00
   15   19   15      4.51      0.00
   17   19   15      1.69      0.00
   19   19   15     -1.21      0.00
   21   19   15     -0.34      0.00
   23   19   15      1.86      0.00
   25   19   15      3.20      0.00
   27   19   15      3.42      0.00
    0   20   15     -8.33      0.00
    2   20   15      2.25      0.00
    4   20   15     -2.51      0.00
    6   20   15      3.90      0.00
    8   20   15      3.63      0.00
   10   20   15     -0.04      0.00
   12   20   15      0.49      0.00
   14   20   15     -0.88      0.00
   16   20   15      2.77      0.00
   18   20   15      4.26      0.00
   20   20   15      5.41      0.00
   22   20   15      1.17      0.00
    1   21   15     -0.93      0.00
    3   21   15      3.27      0.00
    5   21   15      2.98      0.00
    7   21   15      1.77      0.00
    9   21   15     -1.27      0.00
   11   21   15     -5.32      0.00
   13   21   15     -0.25      0.00
   15   21   15      1.46      0.00
    0    0   16      4.31      0.00
    2    0   16     17.03      0.00
    4    0   16    -12.01      0.00
    6    0   16      5.69      0.00
    8    0   16     -6.82      0.00
   10    0   16     13.89      0.00
   12    0   16      3.66      0.00
   14    0   16     -4.57      0.00
   16    0   16      4.95      0.00
   18    0   16     -3.30      0.00
   20    0   16     17.15      0.00
   22    0   16     11.30      0.00
   24    0   16      4.87      0.00
   26    0   16      7.13      0.00
   28    0   16     -9.61      0.00
   30    0   16      1.36      0.00
   32    0   16     -7.24      0.00
   34    0   16     -0.79      0.00
   36    0   16     -1.32      0.00
   38    0   16     -3.68      0.00
   40    0   16     -5.61      0.00
   42    0   16     -8.63      0.00
   44    0   16    -11.75      0.00
   46    0   16     -7.27      0.00
   48    0   16     -4.89      0.00
   50    0   16      1.22      0.00
   52    0   16      3.57      0.00
   54    0   16      1.90      0.00
    1    1   16    -30.37      0.00
    3    1   16    -21.61      0.00
    5    1   16    -24.19      0.00
    7    1   16    -17.40      0.00
    9    1   16    -16.36      0.00
   11    1   16    -16.69      0.00
   13    1   16    -20.61      0.00
   15    1   16     -7.79      0.00
   17    1   16    -30.63      0.00
   19    1   16     -2.44      0.00
   21    1   16    -25.83      0.00
   23    1   16     -2.57      0.00
   25    1   16    -13.65      0.00
   27    1   16    -10.48      0.00
   29    1   16    -12.94      0.00
   31    1   16    -10.75      0.00
   33    1   16    -13.78      0.00
   35    1   16      0.56      0.00
   37    1   16    -15.93      0.00
   39    1   16      3.34      0.00
   41    1   16    -13.77      0.00
   43    1   16      1.49      0.00
   45    1   16     -7.26      0.00
   47    1   16     -0.36      0.00
   49    1   16     -7.40      0.00
   51    1   16     -0.88      0.00
   53    1   16     -4.94      0.00
   55    1   16      1.64      0.00
    0    2   16     -1.86      0.00
    2    2   16    -19.45      0.00
    4    2   16     -6.83      0.00
    6    2   16    -19.18      0.00
    8    2   16     -1.35      0.00
   10    2   16     -9.99      0.00
   12    2   16     -3.49      0.00
   14    2   16    -12.89      0.00
   16    2   16    -11.50      0.00
   18    2   16     -5.07      0.00
   20    2   16     -7.07      0.00
   22    2   16      2.04      0.00
   24    2   16     -8.58      0.00
   26    2   16     -1.68      0.00
   28    2   16    -10.84      0.00
   30    2   16     -5.76      0.00
   32    2   16     -9.21      0.00
   34    2   16     -6.92      0.00
   36    2   16     -7.13      0.00
   38    2   16     -7.14      0.00
   40    2   16     -3.10      0.00
   42    2   16     -4.55      0.00
   44    2   16      2.70      0.00
   46    2   16     -3.18      0.00
   48    2   16      0.06      0.00
   50    2   16     -1.72      0.00
   52    2   16     -1.05      0.00
   54    2   16      1.49      0.00
    1    3   16     32.16      0.00
    3    3   16     33.96      0.00
    5    3   16     31.40      0.00
    7    3   16     32.37      0.00
    9    3   16     23.19      0.00
   11    3   16     23.40      0.00
   13    3   16     16.59      0.00
   15    3   16     17.41      0.00
   17    3   16     12.50      0.00
   19    3   16     12.91      0.00
   21    3   16      8.39      0.00
   23    3   16      9.39      0.00
   25    3   16      7.56      0.00
   27    3   16      8.79      0.00
   29    3   16      5.71      0.00
   31    3   16     13.10      0.00
   33    3   16      4.03      0.00
   35    3   16     16.19      0.00
   37    3   16      1.60      0.00
   39    3   16     12.25      0.00
   41    3   16     -0.96      0.00
   43    3   16      8.30      0.00
   45    3   16     -2.40      0.00
   47    3   16      4.20      0.00
   49    3   16     -3.34      0.00
   51    3   16      2.62      0.00
   53    3   16     -1.25      0.00
    0    4   16     25.10      0.00
    2    4   16     -8.34      0.00
    4    4   16     28.18      0.00
    6    4   16      2.34      0.00
    8    4   16     18.26      0.00
   10    4   16     -0.51      0.00
   12    4   16      2.05      0.00
   14    4   16      2.42      0.00
   16    4   16      5.32      0.00
   18    4   16      8.94      0.00
   20    4   16      2.03      0.00
   22    4   16      1.99      0.00
   24    4   16     -1.45      0.00
   26    4   16      4.99      0.00
   28    4   16      8.68      0.00
   30    4   16      9.29      0.00
   32    4   16      8.43      0.00
   34    4   16      3.80      0.00
   36    4   16      1.33      0.00
   38    4   16      2.05      0.00
   40    4   16      4.38      0.00
   42    4   16      6.56      0.00
   44    4   16      8.18      0.00
   46    4   16      0.95      0.00
   48    4   16      2.31      0.00
   50    4   16     -3.39      0.00
   52    4   16      3.63      0.00
   54    4   16      1.62      0.00
    1    5   16    -12.51      0.00
    3    5   16    -10.00      0.00
    5    5   16    -28.49      0.00
    7    5   16    -12.22      0.00
    9    5   16    -27.06      0.00
   11    5   16     -7.64      0.00
   13    5   16    -16.52      0.00
   15    5   16    -12.09      0.00
   17    5   16    -11.45      0.00
   19    5   16    -12.35      0.00
   21    5   16     -9.09      0.00
   23    5   16     -3.83      0.00
   25    5   16    -12.74      0.00
   27    5   16      2.33      0.00
   29    5   16    -15.05      0.00
   31    5   16     -0.71      0.00
   33    5   16    -13.73      0.00
   35    5   16     -8.81      0.00
   37    5   16     -9.56      0.00
   39    5   16     -9.81      0.00
   41    5   16     -4.45      0.00
   43    5   16     -7.42      0.00
   45    5   16     -2.81      0.00
   47    5   16     -4.40      0.00
   49    5   16     -1.97      0.00
   51    5   16      0.90      0.00
   53    5   16     -2.27      0.00
    0    6   16    -14.57      0.00
    2    6   16     -8.00      0.00
    4    6   16     -5.95      0.00
    6    6   16     -3.53      0.00
    8    6   16     -4.22      0.00
   10    6   16     -9.32      0.00
   12    6   16    -11.89      0.00
   14    6   16     -4.77      0.00
   16    6   16     -5.02      0.00
   18    6   16      3.64      0.00
   20    6   16     -2.02      0.00
   22    6   16     -5.22      0.00
   24    6   16     -9.36      0.00
   26    6   16     -6.45      0.00
   28    6   16     -6.77      0.00
   30    6   16      7.52      0.00
   32    6   16     -2.31      0.00
   34    6   16      7.35      0.00
   36    6   16     -7.05      0.00
   38    6   16     -2.12      0.00
   40    6   16     -4.03      0.00
   42    6   16      1.66      0.00
   44    6   16      1.03      0.00
   46    6   16      2.18      0.00
   48    6   16     -5.06      0.00
   50    6   16     -2.00      0.00
   52    6   16     -5.51      0.00
    1    7   16     33.42      0.00
    3    7   16     15.58      0.00
    5    7   16     24.82      0.00
    7    7   16      3.90      0.00
    9    7   16     29.95      0.00
   11    7   16     19.93      0.00
   13    7   16     26.84      0.00
   15    7   16     13.74      0.00
   17    7   16      8.60      0.00
   19    7   16      4.06      0.00
   21    7   16      8.67      0.00
   23    7   16      7.28      0.00
   25    7   16      8.32      0.00
   27    7   16      2.79      0.00
   29    7   16      4.20      0.00
   31    7   16      0.29      0.00
   33    7   16      8.28      0.00
   35    7   16      3.21      0.00
   37    7   16      8.29      0.00
   39    7   16      2.46      0.00
   41    7   16      3.35      0.00
   43    7   16      0.73      0.00
   45    7   16      0.36      0.00
   47    7   16     -1.27      0.00
   49    7   16      0.89      0.00
   51    7   16     -1.76      0.00
    0    8   16      4.73      0.00
    2    8   16     10.22      0.00
    4    8   16      3.59      0.00
    6    8   16     -0.10      0.00
    8    8   16      4.93      0.00
   10    8   16     -4.93      0.00
   12    8   16      5.34      0.00
   14    8   16     -2.43      0.00
   16    8   16     -2.40      0.00
   18    8   16      4.00      0.00
   20    8   16     -4.09      0.00
   22    8   16      7.86      0.00
   24    8   16     -2.19      0.00
   26    8   16      1.72      0.00
   28    8   16     -1.55      0.00
   30    8   16      1.69      0.00
   32    8   16      0.92      0.00
   34    8   16      1.83      0.00
   36    8   16     -1.61      0.00
   38    8   16     -2.48      0.00
   40    8   16      3.21      0.00
   42    8   16      0.73      0.00
   44    8   16      7.25      0.00
   46    8   16     -0.18      0.00
   48    8   16      1.12      0.00
   50    8   16     -0.21      0.00
    1    9   16     -9.85      0.00
    3    9   16    -15.46      0.00
    5    9   16     -8.99      0.00
    7    9   16    -13.80      0.00
    9    9   16    -10.28      0.00
   11    9   16     -7.45      0.00
   13    9   16    -12.76      0.00
   15    9   16     -6.29      0.00
   17    9   16    -13.26      0.00
   19    9   16     -5.07      0.00
   21    9   16     -9.50      0.00
   23    9   16     -5.48      0.00
   25    9   16     -6.22      0.00
   27    9   16     -6.28      0.00
   29    9   16     -7.51      0.00
   31    9   16     -4.93      0.00
   33    9   16     -9.04      0.00
   35    9   16     -2.52      0.00
   37    9   16     -9.01      0.00
   39    9   16     -3.73      0.00
   41    9   16    -10.30      0.00
   43    9   16     -4.96      0.00
   45    9   16     -8.24      0.00
   47    9   16     -6.15      0.00
   49    9   16     -5.67      0.00
    0   10   16     -4.11      0.00
    2   10   16     -9.65      0.00
    4   10   16    -10.77      0.00
    6   10   16     -9.65      0.00
    8   10   16    -14.74      0.00
   10   10   16     -2.81      0.00
   12   10   16     -7.27      0.00
   14   10   16     -6.18      0.00
   16   10   16    -10.09      0.00
   18   10   16    -15.89      0.00
   20   10   16    -10.02      0.00
   22   10   16     -5.55      0.00
   24   10   16     -5.19      0.00
   26   10   16     -3.60      0.00
   28   10   16    -13.32      0.00
   30   10   16    -11.08      0.00
   32   10   16    -11.94      0.00
   34   10   16     -7.00      0.00
   36   10   16     -6.32      0.00
   38   10   16     -5.69      0.00
   40   10   16     -7.89      0.00
   42   10   16     -5.26      0.00
   44   10   16     -6.04      0.00
   46   10   16     -3.95      0.00
   48   10   16     -3.33      0.00
    1   11   16     -2.07      0.00
    3   11   16      4.78      0.00
    5   11   16     -5.66      0.00
    7   11   16      7.01      0.00
    9   11   16      3.68      0.00
   11   11   16      4.54      0.00
   13   11   16      5.07      0.00
   15   11   16      0.65      0.00
   17   11   16      2.58      0.00
   19   11   16      4.65      0.00
   21   11   16      1.01      0.00
   23   11   16      5.86      0.00
   25   11   16     -1.54      0.00
   27   11   16      6.48      0.00
   29   11   16      1.66      0.00
   31   11   16      4.46      0.00
   33   11   16      2.17      0.00
   35   11   16      2.81      0.00
   37   11   16      3.41      0.00
   39   11   16      4.13      0.00
   41   11   16      3.03      0.00
   43   11   16      1.20      0.00
   45   11   16      1.09      0.00
   47   11   16      0.12      0.00
    0   12   16      3.87      0.00
    2   12   16     -4.02      0.00
    4   12   16     -0.23      0.00
    6   12   16     -5.46      0.00
    8   12   16     -2.25      0.00
   10   12   16     -1.58      0.00
   12   12   16      2.45      0.00
   14   12   16      0.08      0.00
   16   12   16      2.03      0.00
   18   12   16     -1.76      0.00
   20   12   16      2.08      0.00
   22   12   16      2.86      0.00
   24   12   16      2.43      0.00
   26   12   16      1.53      0.00
   28   12   16     -4.00      0.00
   30   12   16     -5.20      0.00
   32   12   16     -2.48      0.00
   34   12   16     -0.22      0.00
   36   12   16      4.24      0.00
   38   12   16      4.56      0.00
   40   12   16     -0.64      0.00
   42   12   16      0.01      0.00
   44   12   16     -4.55      0.00
    1   13   16    -12.66      0.00
    3   13   16    -14.00      0.00
    5   13   16    -14.35      0.00
    7   13   16    -13.64      0.00
    9   13   16    -14.21      0.00
   11   13   16    -11.52      0.00
   13   13   16    -11.50      0.00
   15   13   16    -12.45      0.00
   17   13   16     -8.22      0.00
   19   13   16     -8.43      0.00
   21   13   16     -4.83      0.00
   23   13   16     -4.82      0.00
   25   13   16     -6.55      0.00
   27   13   16     -4.74      0.00
   29   13   16     -4.96      0.00
   31   13   16     -1.40      0.00
   33   13   16     -2.32      0.00
   35   13   16     -2.75      0.00
   37   13   16     -3.95      0.00
   39   13   16     -6.38      0.00
   41   13   16     -3.71      0.00
   43   13   16     -3.90      0.00
    0   14   16      3.37      0.00
    2   14   16      0.44      0.00
    4   14   16      2.51      0.00
    6   14   16     -8.22      0.00
    8   14   16      1.15      0.00
   10   14   16     -8.24      0.00
   12   14   16     -0.86      0.00
   14   14   16     -5.26      0.00
   16   14   16     -5.50      0.00
   18   14   16     -6.85      0.00
   20   14   16     -5.83      0.00
   22   14   16     -2.04      0.00
   24   14   16     -3.46      0.00
   26   14   16      1.91      0.00
   28   14   16     -6.18      0.00
   30   14   16     -0.54      0.00
   32   14   16     -4.94      0.00
   34   14   16     -0.55      0.00
   36   14   16     -0.35      0.00
   38   14   16     -0.29      0.00
   40   14   16      0.76      0.00
   42   14   16     -1.09      0.00
    1   15   16     -2.29      0.00
    3   15   16     -3.84      0.00
    5   15   16     -0.26      0.00
    7   15   16     -2.43      0.00
    9   15   16      0.70      0.00
   11   15   16      3.51      0.00
   13   15   16      1.29      0.00
   15   15   16      4.77      0.00
   17   15   16     -0.47      0.00
   19   15   16      1.47      0.00
   21   15   16      3.93      0.00
   23   15   16     -0.76      0.00
   25   15   16      5.09      0.00
   27   15   16     -2.71      0.00
   29   15   16      3.92      0.00
   31   15   16     -1.52      0.00
   33   15   16      4.27      0.00
   35   15   16     -2.85      0.00
   37   15   16      3.77      0.00
   39   15   16     -1.97      0.00
    0   16   16      4.92      0.00
    2   16   16      3.08      0.00
    4   16   16      2.67      0.00
    6   16   16      4.14      0.00
    8   16   16      4.07      0.00
   10   16   16      7.68      0.00
   12   16   16      7.03      0.00
   14   16   16      5.31      0.00
   16   16   16      2.47      0.00
   18   16   16      1.31      0.00
   20   16   16      3.18      0.00
   22   16   16      4.38      0.00
   24   16   16      8.43      0.00
   26   16   16      3.99      0.00
   28   16   16      5.06      0.00
   30   16   16      1.91      0.00
   32   16   16      3.06      0.00
   34   16   16      4.19      0.00
   36   16   16      2.97      0.00
    1   17   16     -2.07      0.00
    3   17   16     -3.64      0.00
    5   17   16     -1.25      0.00
    7   17   16     -7.11      0.00
    9   17   16     -2.91      0.00
   11   17   16     -4.66      0.00
   13   17   16      0.64      0.00
   15   17   16     -3.11      0.00
   17   17   16     -1.08      0.00
   19   17   16     -6.78      0.00
   21   17   16      0.13      0.00
   23   17   16     -3.22      0.00
   25   17   16      0.41      0.00
   27   17   16     -4.01      0.00
   29   17   16     -3.89      0.00
   31   17   16     -4.58      0.00
   33   17   16     -3.35      0.00
    0   18   16     -0.56      0.00
    2   18   16     -5.86      0.00
    4   18   16     -1.86      0.00
    6   18   16     -2.18      0.00
    8   18   16     -0.62      0.00
   10   18   16      2.23      0.00
   12   18   16     -2.27      0.00
   14   18   16      0.53      0.00
   16   18   16     -1.55      0.00
   18   18   16      5.19      0.00
   20   18   16      2.84      0.00
   22   18   16      5.72      0.00
   24   18   16     -0.44      0.00
   26   18   16      0.22      0.00
   28   18   16     -0.10      0.00
   30   18   16      0.65      0.00
    1   19   16      2.29      0.00
    3   19   16      2.88      0.00
    5   19   16     -1.88      0.00
    7   19   16     -1.33      0.00
    9   19   16     -1.11      0.00
   11   19   16      2.95      0.00
   13   19   16      7.71      0.00
   15   19   16      3.69      0.00
   17   19   16      2.10      0.00
   19   19   16     -2.95      0.00
   21   19   16      3.83      0.00
   23   19   16      1.73      0.00
   25   19   16      7.81      0.00
    0   20   16      2.54      0.00
    2   20   16      5.01      0.00
    4   20   16     -0.97      0.00
    6   20   16      3.24      0.00
    8   20   16      3.33      0.00
   10   20   16      8.03      0.00
   12   20   16      5.05      0.00
   14   20   16      4.31      0.00
   16   20   16     -0.52      0.00
   18   20   16      4.32      0.00
   20   20   16      1.16      0.00
    1   21   16      0.09      0.00
    3   21   16      3.68      0.00
    5   21   16     -0.56      0.00
    7   21   16      3.70      0.00
    9   21   16      5.14      0.00
   11   21   16      4.54      0.00
    1    1   17      8.88      0.00
    3    1   17     15.90      0.00
    5    1   17      2.11      0.00
    7    1   17     12.85      0.00
    9    1   17    -21.06      0.00
   11    1   17      7.71      0.00
   13    1   17    -20.82      0.00
   15    1   17     11.72      0.00
   17    1   17    -13.59      0.00
   19    1   17     -3.34      0.00
   21    1   17    -13.10      0.00
   23    1   17     -9.85      0.00
   25    1   17     -4.83      0.00
   27    1   17     -1.54      0.00
   29    1   17     -1.40      0.00
   31    1   17      0.56      0.00
   33    1   17     -5.03      0.00
   35    1   17     -2.45      0.00
   37    1   17     -2.77      0.00
   39    1   17      0.51      0.00
   41    1   17      1.00      0.00
   43    1   17      3.64      0.00
   45    1   17      1.02      0.00
   47    1   17      4.32      0.00
   49    1   17     -3.16      0.00
   51    1   17     -0.43      0.00
   53    1   17     -6.20      0.00
    0    2   17      9.81      0.00
    2    2   17     11.97      0.00
    4    2   17      0.58      0.00
    6    2   17      3.01      0.00
    8    2   17     -6.48      0.00
   10    2   17     11.60      0.00
   12    2   17    -10.00      0.00
   14    2   17     12.26      0.00
   16    2   17     -8.74      0.00
   18    2   17      5.19      0.00
   20    2   17      1.96      0.00
   22    2   17     -0.85      0.00
   24    2   17      0.80      0.00
   26    2   17      0.47      0.00
   28    2   17     -4.88      0.00
   30    2   17     10.28      0.00
   32    2   17     -7.40      0.00
   34    2   17     10.86      0.00
   36    2   17     -5.73      0.00
   38    2   17      3.50      0.00
   40    2   17     -1.86      0.00
   42    2   17     -2.77      0.00
   44    2   17     -0.39      0.00
   46    2   17      0.33      0.00
   48    2   17      4.99      0.00
   50    2   17      6.15      0.00
   52    2   17      6.56      0.00
   54    2   17      2.90      0.00
    1    3   17      4.74      0.00
    3    3   17      1.86      0.00
    5    3   17     -2.61      0.00
    7    3   17     -8.12      0.00
    9    3   17     -3.07      0.00
   11    3   17     -5.04      0.00
   13    3   17      3.17      0.00
   15    3   17     -1.62      0.00
   17    3   17     -3.69      0.00
   19    3   17     -1.35      0.00
   21    3   17     -3.96      0.00
   23    3   17      6.20      0.00
   25    3   17     -3.17      0.00
   27    3   17      1.96      0.00
   29    3   17     -6.26      0.00
   31    3   17     -2.59      0.00
   33    3   17     -0.40      0.00
   35    3   17      2.41      0.00
   37    3   17      3.24      0.00
   39    3   17      3.27      0.00
   41    3   17     -4.87      0.00
   43    3   17     -3.50      0.00
   45    3   17     -5.94      0.00
   47    3   17     -0.77      0.00
   49    3   17      0.55      0.00
   51    3   17      0.11      0.00
   53    3   17     -1.53      0.00
    0    4   17    -27.41      0.00
    2    4   17     -3.38      0.00
    4    4   17    -17.13      0.00
    6    4   17      2.76      0.00
    8    4   17      0.37      0.00
   10    4   17     -1.91      0.00
   12    4   17      8.63      0.00
   14    4   17     -4.79      0.00
   16    4   17      6.98      0.00
   18    4   17      0.68      0.00
   20    4   17     -0.16      0.00
   22    4   17      1.61      0.00
   24    4   17     -5.57      0.00
   26    4   17     -2.18      0.00
   28    4   17     -6.52      0.00
   30    4   17     -4.65      0.00
   32    4   17     -3.01      0.00
   34    4   17     -3.18      0.00
   36    4   17     -0.75      0.00
   38    4   17     -1.26      0.00
   40    4   17     -1.71      0.00
   42    4   17      1.24      0.00
   44    4   17      0.69      0.00
   46    4   17      4.04      0.00
   48    4   17      2.16      0.00
   50    4   17      3.43      0.00
   52    4   17      0.89      0.00
    1    5   17     -1.71      0.00
    3    5   17     -8.90      0.00
    5    5   17     -0.80      0.00
    7    5   17     -8.09      0.00
    9    5   17      5.77      0.00
   11    5   17      6.13      0.00
   13    5   17      8.86      0.00
   15    5   17      6.00      0.00
   17    5   17      0.12      0.00
   19    5   17      0.08      0.00
   21    5   17      3.12      0.00
   23    5   17      1.82      0.00
   25    5   17      9.51      0.00
   27    5   17     -2.82      0.00
   29    5   17      5.45      0.00
   31    5   17     -8.88      0.00
   33    5   17      2.20      0.00
   35    5   17     -5.98      0.00
   37    5   17      5.51      0.00
   39    5   17     -3.27      0.00
   41    5   17      1.14      0.00
   43    5   17     -5.03      0.00
   45    5   17     -0.48      0.00
   47    5   17      2.43      0.00
   49    5   17      4.00      0.00
   51    5   17      3.73      0.00
    0    6   17      5.75      0.00
    2    6   17      2.17      0.00
    4    6   17     21.17      0.00
    6    6   17     11.51      0.00
    8    6   17     17.94      0.00
   10    6   17     -9.03      0.00
   12    6   17     -1.59      0.00
   14    6   17    -15.47      0.00
   16    6   17      5.75      0.00
   18    6   17     -6.17      0.00
   20    6   17      5.39      0.00
   22    6   17     -6.67      0.00
   24    6   17      1.36      0.00
   26    6   17     -2.72      0.00
   28    6   17     11.20      0.00
   30    6   17      1.13      0.00
   32    6   17     14.33      0.00
   34    6   17      0.47      0.00
   36    6   17      8.02      0.00
   38    6   17      2.21      0.00
   40    6   17      3.69      0.00
   42    6   17      4.84      0.00
   44    6   17      1.27      0.00
   46    6   17      3.99      0.00
   48    6   17     -0.29      0.00
   50    6   17      1.78      0.00
   52    6   17      0.42      0.00
    1    7   17     -3.44      0.00
    3    7   17      3.91      0.00
    5    7   17    -13.52      0.00
    7    7   17      3.40      0.00
    9    7   17     -7.61      0.00
   11    7   17      3.39      0.00
   13    7   17      1.08      0.00
   15    7   17      0.12      0.00
   17    7   17     -4.12      0.00
   19    7   17     -2.00      0.00
   21    7   17     -5.14      0.00
   23    7   17      4.33      0.00
   25    7   17      4.87      0.00
   27    7   17      5.51      0.00
   29    7   17      5.31      0.00
   31    7   17     -2.73      0.00
   33    7   17     -0.70      0.00
   35    7   17      0.88      0.00
   37    7   17      1.94      0.00
   39    7   17      4.61      0.00
   41    7   17     -0.72      0.00
   43    7   17     -4.31      0.00
   45    7   17      0.25      0.00
   47    7   17     -0.54      0.00
   49    7   17      5.73      0.00
   51    7   17      3.43      0.00
    0    8   17    -14.21      0.00
    2    8   17    -37.58      0.00
    4    8   17     -8.70      0.00
    6    8   17    -11.49      0.00
    8    8   17    -12.00      0.00
   10    8   17     -9.18      0.00
   12    8   17    -16.77      0.00
   14    8   17    -10.06      0.00
   16    8   17     -1.79      0.00
   18    8   17     -2.59      0.00
   20    8   17      4.42      0.00
   22    8   17     -7.98      0.00
   24    8   17     -4.61      0.00
   26    8   17    -10.05      0.00
   28    8   17     -5.01      0.00
   30    8   17     -1.41      0.00
   32    8   17     -3.60      0.00
   34    8   17     -1.21      0.00
   36    8   17     -5.88      0.00
   38    8   17     -0.36      0.00
   40    8   17     -0.91      0.00
   42    8   17      1.29      0.00
   44    8   17      0.28      0.00
   46    8   17     -3.96      0.00
   48    8   17     -0.91      0.00
   50    8   17     -5.29      0.00
    1    9   17      6.42      0.00
    3    9   17      6.35      0.00
    5    9   17      2.79      0.00
    7    9   17      4.96      0.00
    9    9   17     -0.81      0.00
   11    9   17      4.66      0.00
   13    9   17      0.49      0.00
   15    9   17      4.30      0.00
   17    9   17      1.07      0.00
   19    9   17     -0.99      0.00
   21    9   17     -6.85      0.00
   23    9   17     -6.93      0.00
   25    9   17    -11.22      0.00
   27    9   17     -5.65      0.00
   29    9   17     -7.38      0.00
   31    9   17     -1.99      0.00
   33    9   17     -3.34      0.00
   35    9   17      1.32      0.00
   37    9   17     -1.63      0.00
   39    9   17      0.88      0.00
   41    9   17     -3.44      0.00
   43    9   17      0.34      0.00
   45    9   17     -0.25      0.00
   47    9   17      4.77      0.00
   49    9   17      4.58      0.00
    0   10   17    -16.16      0.00
    2   10   17     -3.47      0.00
    4   10   17     -6.72      0.00
    6   10   17     -1.83      0.00
    8   10   17     -1.05      0.00
   10   10   17     -6.77      0.00
   12   10   17     -4.17      0.00
   14   10   17     -5.76      0.00
   16   10   17     -3.34      0.00
   18   10   17     -6.00      0.00
   20   10   17     -2.53      0.00
   22   10   17     -7.74      0.00
   24   10   17     -2.54      0.00
   26   10   17     -5.64      0.00
   28   10   17     -2.17      0.00
   30   10   17      0.58      0.00
   32   10   17     -0.60      0.00
   34   10   17      2.13      0.00
   36   10   17     -4.49      0.00
   38   10   17     -1.58      0.00
   40   10   17     -4.52      0.00
   42   10   17     -3.29      0.00
   44   10   17     -4.40      0.00
   46   10   17     -4.76      0.00
    1   11   17     -0.18      0.00
    3   11   17     -1.73      0.00
    5   11   17      1.98      0.00
    7   11   17     -0.16      0.00
    9   11   17     -9.05      0.00
   11   11   17     -2.35      0.00
   13   11   17    -16.24      0.00
   15   11   17      1.85      0.00
   17   11   17     -6.12      0.00
   19   11   17      4.35      0.00
   21   11   17     -1.92      0.00
   23   11   17     -2.45      0.00
   25   11   17     -3.00      0.00
   27   11   17     -0.94      0.00
   29   11   17      1.31      0.00
   31   11   17      0.49      0.00
   33   11   17      1.43      0.00
   35   11   17     -5.33      0.00
   37   11   17      1.73      0.00
   39   11   17     -3.05      0.00
   41   11   17      4.39      0.00
   43   11   17      1.37      0.00
   45   11   17      1.36      0.00
    0   12   17    -25.55      0.00
    2   12   17    -22.90      0.00
    4   12   17    -20.05      0.00
    6   12   17    -20.21      0.00
    8   12   17    -16.97      0.00
   10   12   17    -20.39      0.00
   12   12   17    -15.59      0.00
   14   12   17    -13.24      0.00
   16   12   17    -14.24      0.00
   18   12   17     -9.53      0.00
   20   12   17    -16.40      0.00
   22   12   17     -8.60      0.00
   24   12   17     -9.61      0.00
   26   12   17     -8.38      0.00
   28   12   17     -6.46      0.00
   30   12   17    -10.84      0.00
   32   12   17     -8.00      0.00
   34   12   17     -7.58      0.00
   36   12   17     -6.79      0.00
   38   12   17     -3.26      0.00
   40   12   17     -4.57      0.00
   42   12   17     -0.63      0.00
   44   12   17     -4.35      0.00
    1   13   17     -8.36      0.00
    3   13   17     -2.94      0.00
    5   13   17     -6.64      0.00
    7   13   17      0.00      0.00
    9   13   17     -2.07      0.00
   11   13   17     -2.00      0.00
   13   13   17     -1.38      0.00
   15   13   17     -0.55      0.00
   17   13   17      1.19      0.00
   19   13   17      1.07      0.00
   21   13   17      1.44      0.00
   23   13   17     -1.53      0.00
   25   13   17     -1.36      0.00
   27   13   17      0.79      0.00
   29   13   17     -1.73      0.00
   31   13   17      2.34      0.00
   33   13   17     -3.57      0.00
   35   13   17     -2.12      0.00
   37   13   17     -4.16      0.00
   39   13   17     -2.23      0.00
   41   13   17     -1.38      0.00
    0   14   17      0.32      0.00
    2   14   17     -5.45      0.00
    4   14   17     -1.82      0.00
    6   14   17     -4.53      0.00
    8   14   17     -1.93      0.00
   10   14   17     -4.29      0.00
   12   14   17     -3.73      0.00
   14   14   17     -7.14      0.00
   16   14   17     -3.35      0.00
   18   14   17     -6.52      0.00
   20   14   17     -2.25      0.00
   22   14   17     -5.46      0.00
   24   14   17     -2.19      0.00
   26   14   17     -0.93      0.00
   28   14   17     -2.06      0.00
   30   14   17     -2.00      0.00
   32   14   17     -3.11      0.00
   34   14   17     -2.20      0.00
   36   14   17      1.13      0.00
   38   14   17      3.18      0.00
   40   14   17      1.21      0.00
    1   15   17     -7.03      0.00
    3   15   17     -2.65      0.00
    5   15   17     -2.16      0.00
    7   15   17      2.69      0.00
    9   15   17     -1.79      0.00
   11   15   17     -0.21      0.00
   13   15   17     -3.24      0.00
   15   15   17      1.20      0.00
   17   15   17      1.15      0.00
   19   15   17      2.37      0.00
   21   15   17      1.76      0.00
   23   15   17     -4.33      0.00
   25   15   17      1.02      0.00
   27   15   17     -3.52      0.00
   29   15   17      4.80      0.00
   31   15   17      3.31      0.00
   33   15   17      4.81      0.00
   35   15   17      3.38      0.00
   37   15   17      1.86      0.00
    0   16   17      1.37      0.00
    2   16   17     -6.74      0.00
    4   16   17     -3.59      0.00
    6   16   17     -6.40      0.00
    8   16   17     -8.00      0.00
   10   16   17     -5.41      0.00
   12   16   17    -11.58      0.00
   14   16   17     -9.04      0.00
   16   16   17     -8.99      0.00
   18   16   17     -7.99      0.00
   20   16   17     -6.73      0.00
   22   16   17     -6.54      0.00
   24   16   17     -5.69      0.00
   26   16   17     -2.81      0.00
   28   16   17     -3.55      0.00
   30   16   17     -2.05      0.00
   32   16   17     -3.04      0.00
   34   16   17      0.34      0.00
    1   17   17     -2.18      0.00
    3   17   17     -2.64      0.00
    5   17   17     -0.24      0.00
    7   17   17     -2.21      0.00
    9   17   17     -2.52      0.00
   11   17   17     -2.73      0.00
   13   17   17     -3.64      0.00
   15   17   17     -1.08      0.00
   17   17   17     -2.41      0.00
   19   17   17      0.38      0.00
   21   17   17     -3.79      0.00
   23   17   17      0.44      0.00
   25   17   17     -2.99      0.00
   27   17   17      0.56      0.00
   29   17   17      0.70      0.00
   31   17   17     -1.96      0.00
    0   18   17      0.03      0.00
    2   18   17      3.45      0.00
    4   18   17     -0.69      0.00
    6   18   17      3.91      0.00
    8   18   17      3.42      0.00
   10   18   17      3.69      0.00
   12   18   17     -1.26      0.00
   14   18   17     -0.98      0.00
   16   18   17      0.56      0.00
   18   18   17      4.94      0.00
   20   18   17      1.34      0.00
   22   18   17      0.83      0.00
   24   18   17     -5.84      0.00
   26   18   17      1.65      0.00
   28   18   17     -2.40      0.00
    1   19   17      3.34      0.00
    3   19   17      2.82      0.00
    5   19   17      6.19      0.00
    7   19   17      0.26      0.00
    9   19   17      1.21      0.00
   11   19   17     -3.87      0.00
   13   19   17      0.87      0.00
   15   19   17     -3.55      0.00
   17   19   17      1.21      0.00
   19   19   17     -5.57      0.00
   21   19   17     -0.50      0.00
   23   19   17     -1.63      0.00
    0   20   17    -10.04      0.00
    2   20   17     -1.21      0.00
    4   20   17     -6.93      0.00
    6   20   17     -0.68      0.00
    8   20   17      0.39      0.00
   10   20   17     -0.14      0.00
   12   20   17     -2.71      0.00
   14   20   17      0.02      0.00
   16   20   17      1.98      0.00
    1   21   17     -2.11      0.00
    3   21   17      2.40      0.00
    5   21   17     -1.29      0.00
    0    0   18    -16.88      0.00
    2    0   18     -9.08      0.00
    4    0   18    -23.90      0.00
    6    0   18     -3.56      0.00
    8    0   18    -22.09      0.00
   10    0   18     -4.78      0.00
   12    0   18    -18.89      0.00
   14    0   18    -23.06      0.00
   16    0   18    -13.45      0.00
   18    0   18    -17.56      0.00
   20    0   18     -0.19      0.00
   22    0   18     -1.42      0.00
   24    0   18     -4.69      0.00
   26    0   18     -3.52      0.00
   28    0   18    -18.51      0.00
   30    0   18    -10.88      0.00
   32    0   18    -13.74      0.00
   34    0   18     -6.71      0.00
   36    0   18     -3.48      0.00
   38    0   18     -3.71      0.00
   40    0   18     -7.09      0.00
   42    0   18     -5.46      0.00
   44    0   18    -12.22      0.00
   46    0   18     -8.61      0.00
   48    0   18     -9.45      0.00
   50    0   18     -3.04      0.00
   52    0   18     -1.61      0.00
    1    1   18    -38.80      0.00
    3    1   18    -38.87      0.00
    5    1   18    -19.09      0.00
    7    1   18    -29.62      0.00
    9    1   18    -13.49      0.00
   11    1   18    -21.13      0.00
   13    1   18    -17.27      0.00
   15    1   18     -4.63      0.00
   17    1   18    -19.02      0.00
   19    1   18     -4.40      0.00
   21    1   18    -20.85      0.00
   23    1   18    -14.01      0.00
   25    1   18    -15.50      0.00
   27    1   18    -14.24      0.00
   29    1   18    -13.43      0.00
   31    1   18    -10.95      0.00
   33    1   18    -19.12      0.00
   35    1   18     -8.58      0.00
   37    1   18    -20.90      0.00
   39    1   18     -5.66      0.00
   41    1   18    -13.05      0.00
   43    1   18     -1.45      0.00
   45    1   18     -7.39      0.00
   47    1   18     -2.61      0.00
   49    1   18    -10.30      0.00
   51    1   18     -4.52      0.00
   53    1   18     -7.47      0.00
    0    2   18    -28.42      0.00
    2    2   18    -13.29      0.00
    4    2   18    -23.79      0.00
    6    2   18    -11.52      0.00
    8    2   18    -12.41      0.00
   10    2   18     -6.11      0.00
   12    2   18    -17.80      0.00
   14    2   18     -9.67      0.00
   16    2   18    -21.98      0.00
   18    2   18     -4.73      0.00
   20    2   18    -17.28      0.00
   22    2   18     -2.25      0.00
   24    2   18    -18.04      0.00
   26    2   18     -3.62      0.00
   28    2   18    -15.03      0.00
   30    2   18     -5.74      0.00
   32    2   18    -12.12      0.00
   34    2   18     -8.58      0.00
   36    2   18    -10.17      0.00
   38    2   18     -9.35      0.00
   40    2   18     -3.77      0.00
   42    2   18     -6.97      0.00
   44    2   18     -0.89      0.00
   46    2   18     -7.79      0.00
   48    2   18     -4.78      0.00
   50    2   18     -4.17      0.00
   52    2   18     -2.45      0.00
    1    3   18     21.63      0.00
    3    3   18     22.06      0.00
    5    3   18     18.24      0.00
    7    3   18     15.35      0.00
    9    3   18      8.10      0.00
   11    3   18      8.57      0.00
   13    3   18      8.25      0.00
   15    3   18     13.07      0.00
   17    3   18      9.92      0.00
   19    3   18     10.58      0.00
   21    3   18      5.23      0.00
   23    3   18      5.69      0.00
   25    3   18      7.92      0.00
   27    3   18      7.35      0.00
   29    3   18      7.42      0.00
   31    3   18      6.98      0.00
   33    3   18     -2.19      0.00
   35    3   18      5.48      0.00
   37    3   18     -7.37      0.00
   39    3   18      5.57      0.00
   41    3   18     -5.96      0.00
   43    3   18      2.70      0.00
   45    3   18     -4.88      0.00
   47    3   18     -1.73      0.00
   49    3   18     -4.16      0.00
   51    3   18     -1.52      0.00
    0    4   18     32.32      0.00
    2    4   18    -16.77      0.00
    4    4   18     26.92      0.00
    6    4   18     -8.65      0.00
    8    4   18     17.54      0.00
   10    4   18     -3.09      0.00
   12    4   18      4.70      0.00
   14    4   18     -3.12      0.00
   16    4   18      0.35      0.00
   18    4   18      1.86      0.00
   20    4   18     -0.34      0.00
   22    4   18     -1.17      0.00
   24    4   18     -2.07      0.00
   26    4   18     -3.09      0.00
   28    4   18      4.16      0.00
   30    4   18     -0.12      0.00
   32    4   18      7.41      0.00
   34    4   18     -1.03      0.00
   36    4   18      2.80      0.00
   38    4   18     -2.06      0.00
   40    4   18      2.32      0.00
   42    4   18      2.33      0.00
   44    4   18      4.40      0.00
   46    4   18     -1.48      0.00
   48    4   18     -0.60      0.00
   50    4   18     -5.32      0.00
   52    4   18     -1.08      0.00
    1    5   18    -18.32      0.00
    3    5   18    -14.62      0.00
    5    5   18    -41.70      0.00
    7    5   18    -19.28      0.00
    9    5   18    -34.25      0.00
   11    5   18    -10.11      0.00
   13    5   18    -16.17      0.00
   15    5   18    -16.39      0.00
   17    5   18    -17.22      0.00
   19    5   18    -20.80      0.00
   21    5   18    -17.29      0.00
   23    5   18    -11.20      0.00
   25    5   18    -18.81      0.00
   27    5   18     -7.82      0.00
   29    5   18    -19.86      0.00
   31    5   18     -9.34      0.00
   33    5   18    -12.55      0.00
   35    5   18     -9.76      0.00
   37    5   18     -5.53      0.00
   39    5   18     -8.91      0.00
   41    5   18     -4.02      0.00
   43    5   18     -5.56      0.00
   45    5   18     -4.00      0.00
   47    5   18     -1.82      0.00
   49    5   18     -4.00      0.00
   51    5   18     -0.70      0.00
    0    6   18      3.75      0.00
    2    6   18      3.87      0.00
    4    6   18      5.83      0.00
    6    6   18      3.89      0.00
    8    6   18      7.84      0.00
   10    6   18      2.33      0.00
   12    6   18      3.89      0.00
   14    6   18      2.95      0.00
   16    6   18      3.47      0.00
   18    6   18      6.25      0.00
   20    6   18      4.48      0.00
   22    6   18      1.13      0.00
   24    6   18     -1.25      0.00
   26    6   18     -3.79      0.00
   28    6   18     -4.62      0.00
   30    6   18      1.61      0.00
   32    6   18     -1.71      0.00
   34    6   18      3.04      0.00
   36    6   18     -4.50      0.00
   38    6   18     -3.78      0.00
   40    6   18     -2.21      0.00
   42    6   18      1.82      0.00
   44    6   18      4.38      0.00
   46    6   18      5.21      0.00
   48    6   18     -1.39      0.00
   50    6   18      2.80      0.00
    1    7   18     19.97      0.00
    3    7   18      2.48      0.00
    5    7   18     14.42      0.00
    7    7   18     -7.23      0.00
    9    7   18     17.77      0.00
   11    7   18     10.64      0.00
   13    7   18     19.82      0.00
   15    7   18      9.36      0.00
   17    7   18      6.99      0.00
   19    7   18     -2.25      0.00
   21    7   18      6.62      0.00
   23    7   18      3.25      0.00
   25    7   18     11.40      0.00
   27    7   18      6.40      0.00
   29    7   18      5.76      0.00
   31    7   18      2.71      0.00
   33    7   18      6.46      0.00
   35    7   18      5.56      0.00
   37    7   18     10.99      0.00
   39    7   18      3.53      0.00
   41    7   18      5.33      0.00
   43    7   18     -1.29      0.00
   45    7   18      0.35      0.00
   47    7   18     -3.24      0.00
   49    7   18     -2.89      0.00
    0    8   18      6.98      0.00
    2    8   18     13.97      0.00
    4    8   18     15.17      0.00
    6    8   18     12.77      0.00
    8    8   18     18.08      0.00
   10    8   18      3.15      0.00
   12    8   18      6.45      0.00
   14    8   18      2.31      0.00
   16    8   18      4.63      0.00
   18    8   18     13.69      0.00
   20    8   18      6.81      0.00
   22    8   18     14.15      0.00
   24    8   18      3.51      0.00
   26    8   18      8.71      0.00
   28    8   18      4.02      0.00
   30    8   18      9.20      0.00
   32    8   18      3.42      0.00
   34    8   18      6.02      0.00
   36    8   18      0.00      0.00
   38    8   18      0.99      0.00
   40    8   18      5.74      0.00
   42    8   18      3.70      0.00
   44    8   18     10.02      0.00
   46    8   18      1.11      0.00
   48    8   18      2.45      0.00
    1    9   18      0.15      0.00
    3    9   18     -8.44      0.00
    5    9   18    -11.59      0.00
    7    9   18    -16.30      0.00
    9    9   18    -10.25      0.00
   11    9   18     -4.48      0.00
   13    9   18     -5.00      0.00
   15    9   18     -5.93      0.00
   17    9   18    -14.24      0.00
   19    9   18    -13.52      0.00
   21    9   18    -12.11      0.00
   23    9   18     -6.47      0.00
   25    9   18     -0.95      0.00
   27    9   18     -2.60      0.00
   29    9   18     -4.44      0.00
   31    9   18     -5.38      0.00
   33    9   18     -7.97      0.00
   35    9   18     -0.16      0.00
   37    9   18     -7.85      0.00
   39    9   18     -2.36      0.00
   41    9   18    -12.38      0.00
   43    9   18     -6.44      0.00
   45    9   18     -6.74      0.00
   47    9   18     -4.54      0.00
    0   10   18      6.82      0.00
    2   10   18     -3.70      0.00
    4   10   18      2.35      0.00
    6   10   18      3.30      0.00
    8   10   18      2.10      0.00
   10   10   18      8.42      0.00
   12   10   18      5.11      0.00
   14   10   18      2.73      0.00
   16   10   18      4.32      0.00
   18   10   18      0.19      0.00
   20   10   18      3.95      0.00
   22   10   18      0.22      0.00
   24   10   18      0.13      0.00
   26   10   18     -1.15      0.00
   28   10   18     -2.68      0.00
   30   10   18     -1.99      0.00
   32   10   18     -2.84      0.00
   34   10   18     -1.89      0.00
   36   10   18     -0.41      0.00
   38   10   18      1.88      0.00
   40   10   18     -0.45      0.00
   42   10   18      0.74      0.00
   44   10   18     -3.15      0.00
   46   10   18     -1.73      0.00
    1   11   18     21.60      0.00
    3   11   18     21.49      0.00
    5   11   18     10.44      0.00
    7   11   18     14.49      0.00
    9   11   18     13.49      0.00
   11   11   18     13.93      0.00
   13   11   18     13.40      0.00
   15   11   18     10.21      0.00
   17   11   18      6.00      0.00
   19   11   18     10.98      0.00
   21   11   18      2.42      0.00
   23   11   18      8.84      0.00
   25   11   18     -1.98      0.00
   27   11   18      3.31      0.00
   29   11   18     -0.90      0.00
   31   11   18      2.23      0.00
   33   11   18      1.95      0.00
   35   11   18      3.32      0.00
   37   11   18      1.44      0.00
   39   11   18      1.84      0.00
   41   11   18      0.11      0.00
   43   11   18      0.53      0.00
   45   11   18      2.01      0.00
    0   12   18      8.96      0.00
    2   12   18      4.26      0.00
    4   12   18      7.33      0.00
    6   12   18      1.55      0.00
    8   12   18      5.08      0.00
   10   12   18      3.03      0.00
   12   12   18      6.51      0.00
   14   12   18      4.45      0.00
   16   12   18      6.20      0.00
   18   12   18      1.12      0.00
   20   12   18      2.92      0.00
   22   12   18      2.58      0.00
   24   12   18      2.02      0.00
   26   12   18      4.30      0.00
   28   12   18      2.90      0.00
   30   12   18      2.60      0.00
   32   12   18      5.46      0.00
   34   12   18      3.87      0.00
   36   12   18      3.43      0.00
   38   12   18      3.26      0.00
   40   12   18     -3.17      0.00
   42   12   18      1.10      0.00
    1   13   18     -0.93      0.00
    3   13   18     -1.77      0.00
    5   13   18     -1.92      0.00
    7   13   18     -2.91      0.00
    9   13   18     -3.22      0.00
   11   13   18     -3.72      0.00
   13   13   18     -2.10      0.00
   15   13   18     -4.98      0.00
   17   13   18     -1.53      0.00
   19   13   18     -0.93      0.00
   21   13   18     -1.17      0.00
   23   13   18      0.64      0.00
   25   13   18     -6.05      0.00
   27   13   18     -3.62      0.00
   29   13   18     -4.28      0.00
   31   13   18     -1.42      0.00
   33   13   18      1.50      0.00
   35   13   18     -2.79      0.00
   37   13   18      0.00      0.00
   39   13   18     -5.52      0.00
   41   13   18      0.50      0.00
    0   14   18      2.84      0.00
    2   14   18     -6.22      0.00
    4   14   18      1.05      0.00
    6   14   18    -11.26      0.00
    8   14   18      0.34      0.00
   10   14   18     -8.36      0.00
   12   14   18      1.05      0.00
   14   14   18     -4.47      0.00
   16   14   18     -0.89      0.00
   18   14   18     -5.30      0.00
   20   14   18     -2.88      0.00
   22   14   18     -3.29      0.00
   24   14   18     -4.50      0.00
   26   14   18      1.49      0.00
   28   14   18     -6.87      0.00
   30   14   18      0.30      0.00
   32   14   18     -7.95      0.00
   34   14   18     -4.12      0.00
   36   14   18     -3.44      0.00
   38   14   18     -2.11      0.00
    1   15   18      1.71      0.00
    3   15   18      2.07      0.00
    5   15   18      5.17      0.00
    7   15   18      2.57      0.00
    9   15   18      4.31      0.00
   11   15   18      7.18      0.00
   13   15   18      6.49      0.00
   15   15   18     11.84      0.00
   17   15   18      4.59      0.00
   19   15   18      6.83      0.00
   21   15   18      3.74      0.00
   23   15   18      1.63      0.00
   25   15   18      1.24      0.00
   27   15   18     -0.13      0.00
   29   15   18      2.42      0.00
   31   15   18      3.64      0.00
   33   15   18      3.63      0.00
   35   15   18     -1.60      0.00
    0   16   18      0.64      0.00
    2   16   18     -2.91      0.00
    4   16   18     -1.93      0.00
    6   16   18     -2.90      0.00
    8   16   18     -2.35      0.00
   10   16   18      0.35      0.00
   12   16   18     -0.29      0.00
   14   16   18     -0.15      0.00
   16   16   18     -2.49      0.00
   18   16   18     -4.90      0.00
   20   16   18     -1.58      0.00
   22   16   18     -3.40      0.00
   24   16   18      4.00      0.00
   26   16   18      0.23      0.00
   28   16   18      2.40      0.00
   30   16   18     -1.30      0.00
   32   16   18     -2.70      0.00
   34   16   18     -1.11      0.00
    1   17   18     -5.54      0.00
    3   17   18     -5.66      0.00
    5   17   18     -0.38      0.00
    7   17   18     -3.83      0.00
    9   17   18     -2.70      0.00
   11   17   18     -0.58      0.00
   13   17   18     -0.10      0.00
   15   17   18     -2.08      0.00
   17   17   18     -3.55      0.00
   19   17   18     -7.58      0.00
   21   17   18     -2.66      0.00
   23   17   18     -4.63      0.00
   25   17   18     -3.89      0.00
   27   17   18     -6.05      0.00
   29   17   18     -4.19      0.00
    0   18   18      1.42      0.00
    2   18   18     -5.04      0.00
    4   18   18     -1.10      0.00
    6   18   18     -4.13      0.00
    8   18   18     -4.05      0.00
   10   18   18     -2.55      0.00
   12   18   18     -4.78      0.00
   14   18   18     -2.82      0.00
   16   18   18     -6.13      0.00
   18   18   18     -2.39      0.00
   20   18   18     -7.08      0.00
   22   18   18     -1.83      0.00
   24   18   18     -5.52      0.00
   26   18   18     -4.83      0.00
    1   19   18     -1.64      0.00
    3   19   18      1.99      0.00
    5   19   18     -2.44      0.00
    7   19   18     -2.08      0.00
    9   19   18     -2.71      0.00
   11   19   18     -0.29      0.00
   13   19   18      4.74      0.00
   15   19   18      3.70      0.00
   17   19   18     -0.26      0.00
   19   19   18     -0.04      0.00
   21   19   18      3.35      0.00
    0   20   18     -3.71      0.00
    2   20   18      1.72      0.00
    4   20   18     -5.31      0.00
    6   20   18     -1.07      0.00
    8   20   18     -3.23      0.00
   10   20   18     -1.87      0.00
   12   20   18     -2.13      0.00
   14   20   18     -2.83      0.00
    1    1   19      2.87      0.00
    3    1   19      9.61      0.00
    5    1   19     -4.30      0.00
    7    1   19     13.18      0.00
    9    1   19    -13.61      0.00
   11    1   19     18.11      0.00
   13    1   19     -7.47      0.00
   15    1   19     18.67      0.00
   17    1   19     -1.21      0.00
   19    1   19      5.96      0.00
   21    1   19      2.88      0.00
   23    1   19     -0.54      0.00
   25    1   19      6.32      0.00
   27    1   19      0.75      0.00
   29    1   19      6.61      0.00
   31    1   19      4.22      0.00
   33    1   19      6.22      0.00
   35    1   19      3.99      0.00
   37    1   19      5.91      0.00
   39    1   19      4.57      0.00
   41    1   19      5.85      0.00
   43    1   19      6.89      0.00
   45    1   19      6.04      0.00
   47    1   19      6.91      0.00
   49    1   19      3.35      0.00
   51    1   19      2.05      0.00
    0    2   19     25.64      0.00
    2    2   19      2.64      0.00
    4    2   19     10.52      0.00
    6    2   19      0.58      0.00
    8    2   19     -4.97      0.00
   10    2   19     10.36      0.00
   12    2   19    -11.51      0.00
   14    2   19      3.87      0.00
   16    2   19    -15.87      0.00
   18    2   19     -5.10      0.00
   20    2   19     -2.78      0.00
   22    2   19      0.67      0.00
   24    2   19      0.79      0.00
   26    2   19     -0.35      0.00
   28    2   19    -13.09      0.00
   30    2   19     -0.18      0.00
   32    2   19    -11.65      0.00
   34    2   19      6.73      0.00
   36    2   19     -1.19      0.00
   38    2   19      4.05      0.00
   40    2   19     -1.37      0.00
   42    2   19     -3.72      0.00
   44    2   19     -3.97      0.00
   46    2   19     -1.71      0.00
   48    2   19      1.08      0.00
   50    2   19      5.08      0.00
   52    2   19      4.06      0.00
    1    3   19      3.95      0.00
    3    3   19      8.90      0.00
    5    3   19      8.65      0.00
    7    3   19      5.11      0.00
    9    3   19      3.38      0.00
   11    3   19     -2.87      0.00
   13    3   19      3.74      0.00
   15    3   19      4.22      0.00
   17    3   19      4.83      0.00
   19    3   19      5.45      0.00
   21    3   19      2.40      0.00
   23    3   19      5.12      0.00
   25    3   19      0.86      0.00
   27    3   19      3.54      0.00
   29    3   19      0.85      0.00
   31    3   19      2.89      0.00
   33    3   19      4.59      0.00
   35    3   19      4.35      0.00
   37    3   19      4.22      0.00
   39    3   19      3.18      0.00
   41    3   19     -0.20      0.00
   43    3   19      0.08      0.00
   45    3   19     -0.78      0.00
   47    3   19     -0.55      0.00
   49    3   19      0.27      0.00
   51    3   19     -2.03      0.00
    0    4   19    -32.44      0.00
    2    4   19      4.98      0.00
    4    4   19    -19.00      0.00
    6    4   19      3.57      0.00
    8    4   19     -3.36      0.00
   10    4   19     -7.40      0.00
   12    4   19     -4.50      0.00
   14    4   19    -11.23      0.00
   16    4   19     -6.05      0.00
   18    4   19     -3.05      0.00
   20    4   19     -5.46      0.00
   22    4   19     -1.61      0.00
   24    4   19     -8.05      0.00
   26    4   19     -7.25      0.00
   28    4   19     -9.08      0.00
   30    4   19     -8.42      0.00
   32    4   19     -7.20      0.00
   34    4   19     -3.99      0.00
   36    4   19     -3.53      0.00
   38    4   19      0.30      0.00
   40    4   19     -0.32      0.00
   42    4   19     -0.40      0.00
   44    4   19     -1.76      0.00
   46    4   19     -3.60      0.00
   48    4   19     -4.04      0.00
   50    4   19     -3.72      0.00
    1    5   19      4.72      0.00
    3    5   19      1.10      0.00
    5    5   19     14.10      0.00
    7    5   19      3.54      0.00
    9    5   19      9.52      0.00
   11    5   19      4.64      0.00
   13    5   19      9.09      0.00
   15    5   19      6.65      0.00
   17    5   19      8.09      0.00
   19    5   19      1.50      0.00
   21    5   19      3.50      0.00
   23    5   19     -2.65      0.00
   25    5   19      5.07      0.00
   27    5   19     -5.22      0.00
   29    5   19      4.22      0.00
   31    5   19    -10.15      0.00
   33    5   19     -0.52      0.00
   35    5   19    -10.97      0.00
   37    5   19      0.99      0.00
   39    5   19     -5.45      0.00
   41    5   19      1.98      0.00
   43    5   19     -2.52      0.00
   45    5   19      1.37      0.00
   47    5   19      2.16      0.00
   49    5   19      3.90      0.00
    0    6   19     -2.13      0.00
    2    6   19     -8.83      0.00
    4    6   19      5.66      0.00
    6    6   19      1.78      0.00
    8    6   19      6.16      0.00
   10    6   19     -6.38      0.00
   12    6   19     -3.07      0.00
   14    6   19    -12.62      0.00
   16    6   19      0.20      0.00
   18    6   19     -5.35      0.00
   20    6   19      3.23      0.00
   22    6   19     -2.93      0.00
   24    6   19      0.78      0.00
   26    6   19     -3.50      0.00
   28    6   19      5.23      0.00
   30    6   19     -2.69      0.00
   32    6   19      7.77      0.00
   34    6   19     -5.96      0.00
   36    6   19      0.37      0.00
   38    6   19     -5.23      0.00
   40    6   19     -7.23      0.00
   42    6   19     -1.56      0.00
   44    6   19    -10.90      0.00
   46    6   19     -0.98      0.00
   48    6   19     -6.38      0.00
   50    6   19     -0.26      0.00
    1    7   19      1.58      0.00
    3    7   19      9.67      0.00
    5    7   19    -12.04      0.00
    7    7   19      3.66      0.00
    9    7   19     -9.69      0.00
   11    7   19     -0.73      0.00
   13    7   19     -3.84      0.00
   15    7   19     -5.47      0.00
   17    7   19     -9.84      0.00
   19    7   19    -10.03      0.00
   21    7   19     -9.31      0.00
   23    7   19     -6.22      0.00
   25    7   19     -1.52      0.00
   27    7   19     -4.27      0.00
   29    7   19      0.01      0.00
   31    7   19     -5.69      0.00
   33    7   19     -2.04      0.00
   35    7   19     -1.35      0.00
   37    7   19     -0.90      0.00
   39    7   19      1.64      0.00
   41    7   19     -0.36      0.00
   43    7   19     -2.31      0.00
   45    7   19      3.17      0.00
   47    7   19      0.71      0.00
   49    7   19      7.47      0.00
    0    8   19    -15.84      0.00
    2    8   19    -33.33      0.00
    4    8   19     -8.96      0.00
    6    8   19    -12.16      0.00
    8    8   19     -9.12      0.00
   10    8   19    -11.23      0.00
   12    8   19    -14.59      0.00
   14    8   19    -12.97      0.00
   16    8   19     -1.98      0.00
   18    8   19     -3.23      0.00
   20    8   19      5.55      0.00
   22    8   19     -4.47      0.00
   24    8   19     -4.61      0.00
   26    8   19     -8.89      0.00
   28    8   19     -6.24      0.00
   30    8   19     -3.06      0.00
   32    8   19     -4.06      0.00
   34    8   19     -5.41      0.00
   36    8   19     -9.67      0.00
   38    8   19     -7.80      0.00
   40    8   19     -4.27      0.00
   42    8   19     -2.39      0.00
   44    8   19      0.23      0.00
   46    8   19     -3.05      0.00
   48    8   19     -2.16      0.00
    1    9   19     -3.23      0.00
    3    9   19     -7.29      0.00
    5    9   19     -8.65      0.00
    7    9   19    -10.46      0.00
    9    9   19    -10.77      0.00
   11    9   19     -1.70      0.00
   13    9   19     -2.72      0.00
   15    9   19      0.89      0.00
   17    9   19     -5.74      0.00
   19    9   19     -6.29      0.00
   21    9   19     -9.22      0.00
   23    9   19     -3.07      0.00
   25    9   19     -5.13      0.00
   27    9   19     -2.19      0.00
   29    9   19     -5.82      0.00
   31    9   19     -1.98      0.00
   33    9   19     -3.38      0.00
   35    9   19      2.36      0.00
   37    9   19     -2.87      0.00
   39    9   19      0.65      0.00
   41    9   19     -4.64      0.00
   43    9   19      0.35      0.00
   45    9   19     -3.19      0.00
    0   10   19    -14.45      0.00
    2   10   19     -0.33      0.00
    4   10   19      1.41      0.00
    6   10   19     10.18      0.00
    8   10   19      7.59      0.00
   10   10   19     -0.79      0.00
   12   10   19     -5.52      0.00
   14   10   19     -4.61      0.00
   16   10   19     -1.09      0.00
   18   10   19      1.44      0.00
   20   10   19      2.19      0.00
   22   10   19     -4.49      0.00
   24   10   19     -2.62      0.00
   26   10   19     -4.54      0.00
   28   10   19     -1.54      0.00
   30   10   19      1.77      0.00
   32   10   19     -4.01      0.00
   34   10   19      0.15      0.00
   36   10   19     -6.59      0.00
   38   10   19     -0.74      0.00
   40   10   19     -1.97      0.00
   42   10   19     -1.91      0.00
   44   10   19     -2.15      0.00
    1   11   19     -6.36      0.00
    3   11   19     -7.37      0.00
    5   11   19     -7.18      0.00
    7   11   19     -6.43      0.00
    9   11   19    -10.97      0.00
   11   11   19     -2.70      0.00
   13   11   19    -12.00      0.00
   15   11   19     -1.64      0.00
   17   11   19    -11.90      0.00
   19   11   19     -5.41      0.00
   21   11   19     -8.82      0.00
   23   11   19     -4.85      0.00
   25   11   19     -5.56      0.00
   27   11   19     -4.12      0.00
   29   11   19     -5.53      0.00
   31   11   19     -4.67      0.00
   33   11   19     -0.64      0.00
   35   11   19     -5.36      0.00
   37   11   19      1.54      0.00
   39   11   19     -4.49      0.00
   41   11   19      2.24      0.00
   43   11   19      0.85      0.00
    0   12   19     -9.50      0.00
    2   12   19    -11.63      0.00
    4   12   19     -8.00      0.00
    6   12   19     -8.96      0.00
    8   12   19     -7.40      0.00
   10   12   19     -8.89      0.00
   12   12   19     -7.17      0.00
   14   12   19     -4.11      0.00
   16   12   19     -4.96      0.00
   18   12   19     -2.46      0.00
   20   12   19     -7.66      0.00
   22   12   19     -7.69      0.00
   24   12   19     -3.33      0.00
   26   12   19     -6.19      0.00
   28   12   19      0.79      0.00
   30   12   19     -7.96      0.00
   32   12   19     -5.39      0.00
   34   12   19     -6.98      0.00
   36   12   19     -4.69      0.00
   38   12   19     -0.60      0.00
   40   12   19     -3.35      0.00
   42   12   19     -1.25      0.00
    1   13   19     -7.84      0.00
    3   13   19     -4.10      0.00
    5   13   19     -5.86      0.00
    7   13   19     -0.23      0.00
    9   13   19     -1.80      0.00
   11   13   19     -1.08      0.00
   13   13   19     -4.52      0.00
   15   13   19     -4.53      0.00
   17   13   19     -5.29      0.00
   19   13   19     -3.63      0.00
   21   13   19     -1.66      0.00
   23   13   19     -1.05      0.00
   25   13   19     -4.44      0.00
   27   13   19     -2.57      0.00
   29   13   19    -11.17      0.00
   31   13   19     -3.83      0.00
   33   13   19     -9.85      0.00
   35   13   19     -2.71      0.00
   37   13   19     -5.10      0.00
   39   13   19     -2.66      0.00
    0   14   19      3.71      0.00
    2   14   19      3.39      0.00
    4   14   19      3.08      0.00
    6   14   19      0.70      0.00
    8   14   19      2.26      0.00
   10   14   19     -0.84      0.00
   12   14   19     -0.76      0.00
   14   14   19      0.16      0.00
   16   14   19      1.42      0.00
   18   14   19      2.44      0.00
   20   14   19      1.36      0.00
   22   14   19      0.49      0.00
   24   14   19      1.77      0.00
   26   14   19      1.83      0.00
   28   14   19      1.76      0.00
   30   14   19     -2.88      0.00
   32   14   19     -1.83      0.00
   34   14   19     -1.88      0.00
   36   14   19      1.83      0.00
    1   15   19     -8.29      0.00
    3   15   19     -5.33      0.00
    5   15   19     -3.03      0.00
    7   15   19     -0.80      0.00
    9   15   19     -0.20      0.00
   11   15   19     -0.92      0.00
   13   15   19     -0.69      0.00
   15   15   19      1.13      0.00
   17   15   19      0.02      0.00
   19   15   19      2.00      0.00
   21   15   19      2.60      0.00
   23   15   19     -1.48      0.00
   25   15   19      1.95      0.00
   27   15   19     -4.00      0.00
   29   15   19     -0.62      0.00
   31   15   19      3.11      0.00
   33   15   19      4.02      0.00
   35   15   19      8.11      0.00
    0   16   19      1.50      0.00
    2   16   19     -7.45      0.00
    4   16   19     -4.73      0.00
    6   16   19     -5.72      0.00
    8   16   19     -8.22      0.00
   10   16   19     -3.34      0.00
   12   16   19     -9.83      0.00
   14   16   19     -5.73      0.00
   16   16   19     -5.47      0.00
   18   16   19     -2.25      0.00
   20   16   19     -4.38      0.00
   22   16   19     -2.04      0.00
   24   16   19     -4.19      0.00
   26   16   19      3.95      0.00
   28   16   19     -1.34      0.00
   30   16   19      1.08      0.00
   32   16   19     -5.75      0.00
    1   17   19      1.71      0.00
    3   17   19      0.60      0.00
    5   17   19      3.77      0.00
    7   17   19      2.27      0.00
    9   17   19      3.59      0.00
   11   17   19      2.19      0.00
   13   17   19     -0.18      0.00
   15   17   19      0.43      0.00
   17   17   19     -1.48      0.00
   19   17   19      0.55      0.00
   21   17   19     -4.87      0.00
   23   17   19     -1.34      0.00
   25   17   19     -5.60      0.00
   27   17   19      0.49      0.00
    0   18   19     -4.26      0.00
    2   18   19     -0.92      0.00
    4   18   19     -4.23      0.00
    6   18   19      0.24      0.00
    8   18   19      0.67      0.00
   10   18   19      1.58      0.00
   12   18   19     -2.39      0.00
   14   18   19     -0.89      0.00
   16   18   19     -1.64      0.00
   18   18   19      2.60      0.00
   20   18   19     -4.38      0.00
   22   18   19     -2.89      0.00
   24   18   19     -9.05      0.00
    1   19   19      6.13      0.00
    3   19   19      4.48      0.00
    5   19   19      4.78      0.00
    7   19   19      2.26      0.00
    9   19   19      2.71      0.00
   11   19   19      0.64      0.00
   13   19   19      2.56      0.00
   15   19   19     -4.02      0.00
   17   19   19      0.86      0.00
    0   20   19      0.61      0.00
    2   20   19     -0.78      0.00
    4   20   19     -0.70      0.00
    6   20   19     -2.76      0.00
    8   20   19      1.66      0.00
    0    0   20     -9.38      0.00
    2    0   20      6.88      0.00
    4    0   20     -9.73      0.00
    6    0   20      9.66      0.00
    8    0   20     -9.93      0.00
   10    0   20     -0.80      0.00
   12    0   20     -8.86      0.00
   14    0   20     -9.82      0.00
   16    0   20      2.76      0.00
   18    0   20     -2.84      0.00
   20    0   20      5.27      0.00
   22    0   20     -0.22      0.00
   24    0   20     -1.73      0.00
   26    0   20      4.54      0.00
   28    0   20     -0.92      0.00
   30    0   20      6.07      0.00
   32    0   20     -0.40      0.00
   34    0   20      4.06      0.00
   36    0   20      1.93      0.00
   38    0   20      6.33      0.00
   40    0   20      2.51      0.00
   42    0   20      4.42      0.00
   44    0   20     -0.22      0.00
   46    0   20      0.07      0.00
   48    0   20     -1.56      0.00
   50    0   20     -0.15      0.00
    1    1   20    -28.23      0.00
    3    1   20    -39.65      0.00
    5    1   20    -10.90      0.00
    7    1   20    -35.41      0.00
    9    1   20    -11.56      0.00
   11    1   20    -24.95      0.00
   13    1   20    -15.62      0.00
   15    1   20     -9.64      0.00
   17    1   20    -11.26      0.00
   19    1   20     -5.69      0.00
   21    1   20    -11.24      0.00
   23    1   20    -13.00      0.00
   25    1   20     -8.82      0.00
   27    1   20    -11.25      0.00
   29    1   20     -7.58      0.00
   31    1   20     -9.88      0.00
   33    1   20    -15.13      0.00
   35    1   20    -11.62      0.00
   37    1   20    -12.94      0.00
   39    1   20     -4.34      0.00
   41    1   20     -3.38      0.00
   43    1   20      2.79      0.00
   45    1   20     -2.82      0.00
   47    1   20      1.15      0.00
   49    1   20     -6.25      0.00
   51    1   20     -0.79      0.00
    0    2   20    -10.22      0.00
    2    2   20      1.63      0.00
    4    2   20    -11.94      0.00
    6    2   20     -2.55      0.00
    8    2   20     -4.23      0.00
   10    2   20      6.68      0.00
   12    2   20     -2.14      0.00
   14    2   20      5.60      0.00
   16    2   20     -9.11      0.00
   18    2   20      0.71      0.00
   20    2   20    -10.96      0.00
   22    2   20      0.97      0.00
   24    2   20     -8.16      0.00
   26    2   20      5.36      0.00
   28    2   20     -2.91      0.00
   30    2   20      3.29      0.00
   32    2   20     -2.91      0.00
   34    2   20     -1.58      0.00
   36    2   20     -1.39      0.00
   38    2   20     -0.73      0.00
   40    2   20      0.43      0.00
   42    2   20     -0.75      0.00
   44    2   20     -0.02      0.00
   46    2   20     -0.22      0.00
   48    2   20      0.35      0.00
   50    2   20      0.77      0.00
    1    3   20     13.17      0.00
    3    3   20     16.75      0.00
    5    3   20     11.47      0.00
    7    3   20     13.68      0.00
    9    3   20      8.55      0.00
   11    3   20      7.42      0.00
   13    3   20      7.59      0.00
   15    3   20     10.96      0.00
   17    3   20     10.54      0.00
   19    3   20     12.44      0.00
   21    3   20      9.74      0.00
   23    3   20      7.66      0.00
   25    3   20     11.37      0.00
   27    3   20      9.77      0.00
   29    3   20     14.92      0.00
   31    3   20     13.38      0.00
   33    3   20      9.79      0.00
   35    3   20     12.61      0.00
   37    3   20      1.89      0.00
   39    3   20      9.35      0.00
   41    3   20      0.62      0.00
   43    3   20      5.04      0.00
   45    3   20      3.60      0.00
   47    3   20      1.52      0.00
   49    3   20      2.66      0.00
    0    4   20     38.55      0.00
    2    4   20    -15.71      0.00
    4    4   20     20.42      0.00
    6    4   20    -20.07      0.00
    8    4   20      9.37      0.00
   10    4   20     -4.64      0.00
   12    4   20      9.26      0.00
   14    4   20     -2.53      0.00
   16    4   20      0.23      0.00
   18    4   20     -3.18      0.00
   20    4   20      1.90      0.00
   22    4   20      2.72      0.00
   24    4   20      6.53      0.00
   26    4   20      0.35      0.00
   28    4   20      4.83      0.00
   30    4   20     -5.14      0.00
   32    4   20      2.94      0.00
   34    4   20     -4.23      0.00
   36    4   20      2.08      0.00
   38    4   20     -3.12      0.00
   40    4   20     -1.49      0.00
   42    4   20     -4.49      0.00
   44    4   20     -1.81      0.00
   46    4   20     -2.84      0.00
   48    4   20      0.15      0.00
   50    4   20     -0.66      0.00
    1    5   20    -18.93      0.00
    3    5   20    -13.22      0.00
    5    5   20    -27.57      0.00
    7    5   20    -12.70      0.00
    9    5   20    -23.34      0.00
   11    5   20    -10.77      0.00
   13    5   20    -11.59      0.00
   15    5   20    -11.31      0.00
   17    5   20     -8.33      0.00
   19    5   20    -11.93      0.00
   21    5   20    -10.55      0.00
   23    5   20     -7.32      0.00
   25    5   20    -10.76      0.00
   27    5   20     -3.93      0.00
   29    5   20     -8.54      0.00
   31    5   20     -3.78      0.00
   33    5   20     -2.88      0.00
   35    5   20     -3.70      0.00
   37    5   20      1.15      0.00
   39    5   20     -3.80      0.00
   41    5   20      0.18      0.00
   43    5   20     -1.34      0.00
   45    5   20     -3.52      0.00
   47    5   20     -1.48      0.00
   49    5   20     -6.22      0.00
    0    6   20      4.34      0.00
    2    6   20      5.14      0.00
    4    6   20      5.51      0.00
    6    6   20      0.23      0.00
    8    6   20      8.20      0.00
   10    6   20     -1.85      0.00
   12    6   20      5.07      0.00
   14    6   20     -1.81      0.00
   16    6   20      1.25      0.00
   18    6   20     -0.39      0.00
   20    6   20      0.23      0.00
   22    6   20     -3.16      0.00
   24    6   20     -2.95      0.00
   26    6   20     -5.22      0.00
   28    6   20     -5.25      0.00
   30    6   20     -2.83      0.00
   32    6   20     -4.34      0.00
   34    6   20      0.66      0.00
   36    6   20     -1.08      0.00
   38    6   20      1.63      0.00
   40    6   20      0.81      0.00
   42    6   20      1.72      0.00
   44    6   20      0.83      0.00
   46    6   20      3.05      0.00
   48    6   20     -1.08      0.00
    1    7   20     23.03      0.00
    3    7   20     11.47      0.00
    5    7   20     27.56      0.00
    7    7   20      7.69      0.00
    9    7   20     24.41      0.00
   11    7   20     12.77      0.00
   13    7   20     19.81      0.00
   15    7   20     10.45      0.00
   17    7   20     12.22      0.00
   19    7   20      0.79      0.00
   21    7   20      7.00      0.00
   23    7   20     -0.04      0.00
   25    7   20      6.78      0.00
   27    7   20      3.36      0.00
   29    7   20      2.43      0.00
   31    7   20      1.59      0.00
   33    7   20      2.81      0.00
   35    7   20      2.87      0.00
   37    7   20      9.31      0.00
   39    7   20      3.33      0.00
   41    7   20      8.76      0.00
   43    7   20      1.81      0.00
   45    7   20      4.67      0.00
   47    7   20      0.10      0.00
    0    8   20     -7.75      0.00
    2    8   20     -0.87      0.00
    4    8   20     -2.26      0.00
    6    8   20      0.15      0.00
    8    8   20      1.57      0.00
   10    8   20     -3.73      0.00
   12    8   20     -4.90      0.00
   14    8   20     -4.77      0.00
   16    8   20     -4.86      0.00
   18    8   20      3.89      0.00
   20    8   20      0.54      0.00
   22    8   20      6.39      0.00
   24    8   20     -0.53      0.00
   26    8   20      4.61      0.00
   28    8   20     -0.47      0.00
   30    8   20      6.25      0.00
   32    8   20     -1.56      0.00
   34    8   20      3.07      0.00
   36    8   20     -1.99      0.00
   38    8   20     -0.03      0.00
   40    8   20      1.90      0.00
   42    8   20     -1.02      0.00
   44    8   20      3.20      0.00
   46    8   20     -1.88      0.00
    1    9   20      5.75      0.00
    3    9   20     -2.05      0.00
    5    9   20    -10.61      0.00
    7    9   20    -15.39      0.00
    9    9   20     -7.96      0.00
   11    9   20     -6.98      0.00
   13    9   20     -2.15      0.00
   15    9   20    -11.92      0.00
   17    9   20    -12.87      0.00
   19    9   20    -19.39      0.00
   21    9   20     -8.18      0.00
   23    9   20     -7.89      0.00
   25    9   20      2.48      0.00
   27    9   20     -3.25      0.00
   29    9   20     -1.58      0.00
   31    9   20     -6.85      0.00
   33    9   20     -6.21      0.00
   35    9   20     -3.64      0.00
   37    9   20     -8.08      0.00
   39    9   20     -3.74      0.00
   41    9   20    -10.21      0.00
   43    9   20     -5.44      0.00
   45    9   20     -3.66      0.00
    0   10   20     -9.39      0.00
    2   10   20    -16.44      0.00
    4   10   20     -5.42      0.00
    6   10   20     -2.12      0.00
    8   10   20     -3.13      0.00
   10   10   20     -1.75      0.00
   12   10   20     -5.97      0.00
   14   10   20     -6.56      0.00
   16   10   20     -1.30      0.00
   18   10   20     -1.60      0.00
   20   10   20      1.98      0.00
   22   10   20     -3.18      0.00
   24   10   20     -3.51      0.00
   26   10   20     -4.25      0.00
   28   10   20     -0.59      0.00
   30   10   20      0.02      0.00
   32   10   20      0.00      0.00
   34   10   20     -2.33      0.00
   36   10   20     -2.66      0.00
   38   10   20     -0.20      0.00
   40   10   20     -2.08      0.00
   42   10   20      0.18      0.00
   44   10   20     -2.43      0.00
    1   11   20     18.13      0.00
    3   11   20     12.51      0.00
    5   11   20      6.85      0.00
    7   11   20      2.53      0.00
    9   11   20      6.74      0.00
   11   11   20      8.86      0.00
   13   11   20     12.33      0.00
   15   11   20      9.68      0.00
   17   11   20      3.44      0.00
   19   11   20      6.97      0.00
   21   11   20      0.58      0.00
   23   11   20      6.10      0.00
   25   11   20     -2.23      0.00
   27   11   20     -3.53      0.00
   29   11   20     -4.40      0.00
   31   11   20     -0.74      0.00
   33   11   20      1.99      0.00
   35   11   20      4.59      0.00
   37   11   20      0.28      0.00
   39   11   20      1.49      0.00
   41   11   20      0.33      0.00
    0   12   20      4.68      0.00
    2   12   20      5.47      0.00
    4   12   20      6.39      0.00
    6   12   20      5.16      0.00
    8   12   20      4.59      0.00
   10   12   20      2.09      0.00
   12   12   20      1.92      0.00
   14   12   20      1.18      0.00
   16   12   20      3.73      0.00
   18   12   20      1.49      0.00
   20   12   20      1.24      0.00
   22   12   20     -0.66      0.00
   24   12   20     -3.93      0.00
   26   12   20     -0.03      0.00
   28   12   20      1.40      0.00
   30   12   20      2.43      0.00
   32   12   20      3.93      0.00
   34   12   20     -0.24      0.00
   36   12   20      0.20      0.00
   38   12   20      1.01      0.00
   40   12   20     -2.93      0.00
    1   13   20     -2.72      0.00
    3   13   20     -2.43      0.00
    5   13   20     -3.73      0.00
    7   13   20     -4.36      0.00
    9   13   20     -3.08      0.00
   11   13   20     -6.67      0.00
   13   13   20     -4.62      0.00
   15   13   20     -9.68      0.00
   17   13   20     -7.93      0.00
   19   13   20     -4.97      0.00
   21   13   20     -5.65      0.00
   23   13   20     -1.36      0.00
   25   13   20     -7.64      0.00
   27   13   20     -5.01      0.00
   29   13   20     -2.84      0.00
   31   13   20     -3.31      0.00
   33   13   20      2.62      0.00
   35   13   20     -6.51      0.00
   37   13   20     -0.34      0.00
    0   14   20      9.05      0.00
    2   14   20      0.84      0.00
    4   14   20      6.93      0.00
    6   14   20     -4.03      0.00
    8   14   20      3.21      0.00
   10   14   20     -4.99      0.00
   12   14   20      3.33      0.00
   14   14   20     -0.85      0.00
   16   14   20      4.62      0.00
   18   14   20     -0.12      0.00
   20   14   20      0.72      0.00
   22   14   20     -3.46      0.00
   24   14   20     -5.77      0.00
   26   14   20      0.32      0.00
   28   14   20     -3.22      0.00
   30   14   20      4.56      0.00
   32   14   20     -2.34      0.00
   34   14   20     -2.88      0.00
   36   14   20     -1.55      0.00
    1   15   20      4.06      0.00
    3   15   20      3.56      0.00
    5   15   20      5.31      0.00
    7   15   20      3.54      0.00
    9   15   20      5.00      0.00
   11   15   20      7.43      0.00
   13   15   20      4.41      0.00
   15   15   20      7.66      0.00
   17   15   20     -0.18      0.00
   19   15   20      6.08      0.00
   21   15   20      1.46      0.00
   23   15   20      4.93      0.00
   25   15   20     -3.39      0.00
   27   15   20     -2.41      0.00
   29   15   20     -5.17      0.00
   31   15   20      0.75      0.00
   33   15   20     -0.49      0.00
    0   16   20      8.17      0.00
    2   16   20      3.91      0.00
    4   16   20      5.95      0.00
    6   16   20      0.91      0.00
    8   16   20      1.94      0.00
   10   16   20      2.89      0.00
   12   16   20      2.11      0.00
   14   16   20      6.38      0.00
   16   16   20      4.41      0.00
   18   16   20      5.41      0.00
   20   16   20      8.80      0.00
   22   16   20      6.08      0.00
   24   16   20      9.17      0.00
   26   16   20      3.42      0.00
   28   16   20      2.31      0.00
   30   16   20     -1.50      0.00
    1   17   20     -7.24      0.00
    3   17   20     -7.92      0.00
    5   17   20     -2.39      0.00
    7   17   20     -3.94      0.00
    9   17   20     -2.62      0.00
   11   17   20      0.50      0.00
   13   17   20     -2.69      0.00
   15   17   20     -3.19      0.00
   17   17   20     -7.28      0.00
   19   17   20     -6.35      0.00
   21   17   20     -2.77      0.00
   23   17   20     -2.37      0.00
   25   17   20     -4.32      0.00
    0   18   20      2.14      0.00
    2   18   20      0.28      0.00
    4   18   20      2.19      0.00
    6   18   20      3.97      0.00
    8   18   20      0.42      0.00
   10   18   20      1.72      0.00
   12   18   20      1.53      0.00
   14   18   20      0.88      0.00
   16   18   20      1.13      0.00
   18   18   20      0.85      0.00
   20   18   20     -3.40      0.00
    1   19   20      4.50      0.00
    3   19   20      6.50      0.00
    5   19   20      4.60      0.00
    7   19   20      3.15      0.00
    9   19   20      3.23      0.00
   11   19   20      1.47      0.00
   13   19   20      2.62      0.00
   15   19   20      1.86      0.00
    1    1   21     -2.14      0.00
    3    1   21      4.62      0.00
    5    1   21     -9.00      0.00
    7    1   21     10.09      0.00
    9    1   21     -8.24      0.00
   11    1   21     16.18      0.00
   13    1   21     -4.18      0.00
   15    1   21      8.93      0.00
   17    1   21     -6.49      0.00
   19    1   21     -0.89      0.00
   21    1   21      0.29      0.00
   23    1   21      0.53      0.00
   25    1   21      2.33      0.00
   27    1   21     -1.97      0.00
   29    1   21     -1.62      0.00
   31    1   21      0.65      0.00
   33    1   21      0.66      0.00
   35    1   21      0.93      0.00
   37    1   21     -2.60      0.00
   39    1   21     -2.41      0.00
   41    1   21     -2.29      0.00
   43    1   21      0.17      0.00
   45    1   21      0.99      0.00
   47    1   21     -0.03      0.00
   49    1   21      1.47      0.00
    0    2   21     14.41      0.00
    2    2   21     -5.99      0.00
    4    2   21      5.75      0.00
    6    2   21     -1.44      0.00
    8    2   21     -7.34      0.00
   10    2   21      4.35      0.00
   12    2   21     -8.77      0.00
   14    2   21      5.43      0.00
   16    2   21     -5.42      0.00
   18    2   21      0.31      0.00
   20    2   21     -1.82      0.00
   22    2   21     -0.28      0.00
   24    2   21     -1.38      0.00
   26    2   21      0.81      0.00
   28    2   21     -7.00      0.00
   30    2   21      3.16      0.00
   32    2   21     -3.61      0.00
   34    2   21      8.48      0.00
   36    2   21      2.52      0.00
   38    2   21      5.93      0.00
   40    2   21      0.23      0.00
   42    2   21      0.34      0.00
   44    2   21     -1.69      0.00
   46    2   21      0.27      0.00
   48    2   21      0.04      0.00
    1    3   21     -4.35      0.00
    3    3   21     -1.72      0.00
    5    3   21     12.13      0.00
    7    3   21      2.46      0.00
    9    3   21      5.76      0.00
   11    3   21     -6.93      0.00
   13    3   21     -1.68      0.00
   15    3   21      0.99      0.00
   17    3   21      3.85      0.00
   19    3   21      6.85      0.00
   21    3   21     -0.48      0.00
   23    3   21     -0.29      0.00
   25    3   21     -7.75      0.00
   27    3   21     -2.67      0.00
   29    3   21     -5.25      0.00
   31    3   21      0.72      0.00
   33    3   21     -1.26      0.00
   35    3   21     -1.73      0.00
   37    3   21     -1.04      0.00
   39    3   21     -1.95      0.00
   41    3   21      1.12      0.00
   43    3   21      0.06      0.00
   45    3   21     -0.68      0.00
   47    3   21     -2.50      0.00
   49    3   21     -0.74      0.00
    0    4   21    -21.82      0.00
    2    4   21     10.61      0.00
    4    4   21    -16.71      0.00
    6    4   21     -0.26      0.00
    8    4   21     -4.65      0.00
   10    4   21     -0.21      0.00
   12    4   21      2.48      0.00
   14    4   21      3.21      0.00
   16    4   21     -1.87      0.00
   18    4   21      0.33      0.00
   20    4   21     -4.86      0.00
   22    4   21      0.07      0.00
   24    4   21     -1.12      0.00
   26    4   21     -0.21      0.00
   28    4   21     -0.43      0.00
   30    4   21     -1.95      0.00
   32    4   21     -1.68      0.00
   34    4   21      0.41      0.00
   36    4   21      1.78      0.00
   38    4   21      3.29      0.00
   40    4   21      5.41      0.00
   42    4   21      1.53      0.00
   44    4   21      2.52      0.00
   46    4   21     -1.89      0.00
   48    4   21     -0.61      0.00
    1    5   21      1.74      0.00
    3    5   21      2.87      0.00
    5    5   21     11.71      0.00
    7    5   21      5.65      0.00
    9    5   21      7.74      0.00
   11    5   21     -1.65      0.00
   13    5   21      1.81      0.00
   15    5   21     -1.59      0.00
   17    5   21      4.58      0.00
   19    5   21      0.26      0.00
   21    5   21      2.88      0.00
   23    5   21     -3.11      0.00
   25    5   21     -0.35      0.00
   27    5   21     -4.26      0.00
   29    5   21      4.17      0.00
   31    5   21     -1.07      0.00
   33    5   21      7.73      0.00
   35    5   21     -1.09      0.00
   37    5   21      3.97      0.00
   39    5   21     -0.61      0.00
   41    5   21      3.65      0.00
   43    5   21      1.51      0.00
   45    5   21      4.21      0.00
   47    5   21      1.60      0.00
    0    6   21     19.90      0.00
    2    6   21      4.18      0.00
    4    6   21     10.87      0.00
    6    6   21      3.73      0.00
    8    6   21      3.77      0.00
   10    6   21      5.84      0.00
   12    6   21      5.58      0.00
   14    6   21      2.91      0.00
   16    6   21      4.13      0.00
   18    6   21      2.66      0.00
   20    6   21      6.30      0.00
   22    6   21      7.26      0.00
   24    6   21      8.67      0.00
   26    6   21      4.98      0.00
   28    6   21      6.67      0.00
   30    6   21     -0.95      0.00
   32    6   21      6.48      0.00
   34    6   21     -3.25      0.00
   36    6   21      2.75      0.00
   38    6   21     -2.70      0.00
   40    6   21     -6.94      0.00
   42    6   21     -1.32      0.00
   44    6   21    -10.20      0.00
   46    6   21      1.22      0.00
    1    7   21     -8.01      0.00
    3    7   21      0.49      0.00
    5    7   21    -11.94      0.00
    7    7   21      1.57      0.00
    9    7   21     -7.04      0.00
   11    7   21     -1.72      0.00
   13    7   21     -0.64      0.00
   15    7   21     -1.05      0.00
   17    7   21     -0.84      0.00
   19    7   21     -1.37      0.00
   21    7   21     -3.12      0.00
   23    7   21     -3.05      0.00
   25    7   21     -1.07      0.00
   27    7   21     -3.54      0.00
   29    7   21      0.18      0.00
   31    7   21     -0.74      0.00
   33    7   21      0.47      0.00
   35    7   21      1.56      0.00
   37    7   21     -0.69      0.00
   39    7   21     -0.55      0.00
   41    7   21     -0.12      0.00
   43    7   21     -2.15      0.00
   45    7   21     -0.19      0.00
    0    8   21      0.88      0.00
    2    8   21     -7.58      0.00
    4    8   21      2.70      0.00
    6    8   21     -2.12      0.00
    8    8   21      0.53      0.00
   10    8   21     -2.57      0.00
   12    8   21     -3.16      0.00
   14    8   21     -3.02      0.00
   16    8   21      1.81      0.00
   18    8   21     -0.18      0.00
   20    8   21      2.72      0.00
   22    8   21     -1.97      0.00
   24    8   21     -3.87      0.00
   26    8   21     -4.97      0.00
   28    8   21     -4.89      0.00
   30    8   21     -4.08      0.00
   32    8   21     -2.75      0.00
   34    8   21     -2.91      0.00
   36    8   21     -2.85      0.00
   38    8   21     -1.19      0.00
   40    8   21      1.21      0.00
   42    8   21      2.85      0.00
   44    8   21      3.70      0.00
    1    9   21      0.60      0.00
    3    9   21     -4.26      0.00
    5    9   21      0.52      0.00
    7    9   21     -2.73      0.00
    9    9   21      1.73      0.00
   11    9   21      4.83      0.00
   13    9   21      2.07      0.00
   15    9   21      3.48      0.00
   17    9   21     -2.14      0.00
   19    9   21     -1.40      0.00
   21    9   21     -3.08      0.00
   23    9   21      2.12      0.00
   25    9   21      1.81      0.00
   27    9   21      4.30      0.00
   29    9   21     -0.14      0.00
   31    9   21      1.00      0.00
   33    9   21     -2.55      0.00
   35    9   21      1.72      0.00
   37    9   21     -2.35      0.00
   39    9   21      1.91      0.00
   41    9   21     -1.18      0.00
   43    9   21      2.03      0.00
    0   10   21    -13.76      0.00
    2   10   21     -3.31      0.00
    4   10   21     -1.77      0.00
    6   10   21      8.14      0.00
    8   10   21      4.11      0.00
   10   10   21     -0.10      0.00
   12   10   21     -5.80      0.00
   14   10   21     -4.34      0.00
   16   10   21      0.75      0.00
   18   10   21      5.23      0.00
   20   10   21      5.93      0.00
   22   10   21      2.27      0.00
   24   10   21      2.19      0.00
   26   10   21      3.64      0.00
   28   10   21      3.83      0.00
   30   10   21      8.68      0.00
   32   10   21     -0.69      0.00
   34   10   21      4.77      0.00
   36   10   21     -3.63      0.00
   38   10   21      1.60      0.00
   40   10   21     -0.60      0.00
   42   10   21     -0.35      0.00
    1   11   21      1.47      0.00
    3   11   21     -3.96      0.00
    5   11   21     -5.93      0.00
    7   11   21     -8.10      0.00
    9   11   21     -3.87      0.00
   11   11   21      0.33      0.00
   13   11   21     -1.91      0.00
   15   11   21     -0.87      0.00
   17   11   21     -7.81      0.00
   19   11   21     -6.53      0.00
   21   11   21     -6.17      0.00
   23   11   21     -0.71      0.00
   25   11   21     -0.44      0.00
   27   11   21      1.47      0.00
   29   11   21     -2.74      0.00
   31   11   21     -2.90      0.00
   33   11   21      1.53      0.00
   35   11   21     -3.11      0.00
   37   11   21      4.02      0.00
   39   11   21     -4.01      0.00
   41   11   21      2.61      0.00
    0   12   21    -11.34      0.00
    2   12   21    -11.76      0.00
    4   12   21     -8.63      0.00
    6   12   21     -6.98      0.00
    8   12   21     -5.77      0.00
   10   12   21     -4.96      0.00
   12   12   21     -6.51      0.00
   14   12   21     -0.84      0.00
   16   12   21     -2.39      0.00
   18   12   21      2.47      0.00
   20   12   21     -0.76      0.00
   22   12   21     -1.94      0.00
   24   12   21      2.06      0.00
   26   12   21      0.46      0.00
   28   12   21      5.08      0.00
   30   12   21     -0.47      0.00
   32   12   21     -1.01      0.00
   34   12   21     -1.84      0.00
   36   12   21     -2.59      0.00
   38   12   21     -0.49      0.00
    1   13   21     -0.36      0.00
    3   13   21     -0.06      0.00
    5   13   21      0.21      0.00
    7   13   21      2.08      0.00
    9   13   21      1.94      0.00
   11   13   21      2.70      0.00
   13   13   21      1.31      0.00
   15   13   21     -0.20      0.00
   17   13   21     -0.58      0.00
   19   13   21     -2.59      0.00
   21   13   21      0.28      0.00
   23   13   21      1.47      0.00
   25   13   21      0.71      0.00
   27   13   21      0.08      0.00
   29   13   21     -8.12      0.00
   31   13   21     -3.18      0.00
   33   13   21     -5.57      0.00
   35   13   21      0.09      0.00
   37   13   21     -1.92      0.00
    0   14   21      0.75      0.00
    2   14   21      5.72      0.00
    4   14   21      0.93      0.00
    6   14   21      1.40      0.00
    8   14   21     -0.13      0.00
   10   14   21     -0.94      0.00
   12   14   21     -1.51      0.00
   14   14   21      2.33      0.00
   16   14   21      0.18      0.00
   18   14   21      3.59      0.00
   20   14   21     -1.75      0.00
   22   14   21      0.26      0.00
   24   14   21      0.98      0.00
   26   14   21      1.26      0.00
   28   14   21      3.04      0.00
   30   14   21     -2.44      0.00
   32   14   21     -1.68      0.00
   34   14   21     -2.28      0.00
    1   15   21     -5.07      0.00
    3   15   21     -3.39      0.00
    5   15   21     -1.46      0.00
    7   15   21     -0.98      0.00
    9   15   21      5.14      0.00
   11   15   21     -1.30      0.00
   13   15   21      3.21      0.00
   15   15   21      0.34      0.00
   17   15   21      0.85      0.00
   19   15   21      0.89      0.00
   21   15   21      0.50      0.00
   23   15   21     -1.39      0.00
   25   15   21      2.06      0.00
   27   15   21     -0.17      0.00
   29   15   21     -1.56      0.00
   31   15   21      0.76      0.00
    0   16   21      1.04      0.00
    2   16   21     -7.40      0.00
    4   16   21     -3.01      0.00
    6   16   21     -5.30      0.00
    8   16   21     -8.66      0.00
   10   16   21     -5.06      0.00
   12   16   21     -7.88      0.00
   14   16   21     -0.05      0.00
   16   16   21      2.06      0.00
   18   16   21      6.35      0.00
   20   16   21      1.58      0.00
   22   16   21      2.86      0.00
   24   16   21     -0.89      0.00
   26   16   21      7.53      0.00
   28   16   21      2.56      0.00
    1   17   21      2.88      0.00
    3   17   21      0.31      0.00
    5   17   21      3.02      0.00
    7   17   21      1.29      0.00
    9   17   21      2.85      0.00
   11   17   21      3.19      0.00
   13   17   21      1.37      0.00
   15   17   21      3.45      0.00
   17   17   21      2.15      0.00
   19   17   21      2.49      0.00
   21   17   21     -2.08      0.00
   23   17   21     -1.12      0.00
    0   18   21     -0.78      0.00
    2   18   21      1.43      0.00
    4   18   21     -0.24      0.00
    6   18   21      2.17      0.00
    8   18   21      0.95      0.00
   10   18   21      3.39      0.00
   12   18   21      0.50      0.00
   14   18   21      4.22      0.00
   16   18   21      1.39      0.00
   18   18   21      4.85      0.00
    1   19   21     -2.33      0.00
    3   19   21     -2.83      0.00
    5   19   21     -3.84      0.00
    7   19   21      0.56      0.00
    9   19   21     -0.81      0.00
    0    0   22    -19.58      0.00
    2    0   22      7.57      0.00
    4    0   22     -7.39      0.00
    6    0   22     10.64      0.00
    8    0   22      1.95      0.00
   10    0   22     -2.04      0.00
   12    0   22     -1.19      0.00
   14    0   22     -7.29      0.00
   16    0   22      6.96      0.00
   18    0   22     -1.04      0.00
   20    0   22      2.64      0.00
   22    0   22     -3.41      0.00
   24    0   22     -4.44      0.00
   26    0   22      4.86      0.00
   28    0   22      2.37      0.00
   30    0   22      7.77      0.00
   32    0   22     -2.26      0.00
   34    0   22      2.55      0.00
   36    0   22     -2.04      0.00
   38    0   22      3.86      0.00
   40    0   22      1.73      0.00
   42    0   22     -0.94      0.00
   44    0   22     -1.50      0.00
   46    0   22     -3.71      0.00
   48    0   22     -3.22      0.00
    1    1   22    -20.59      0.00
    3    1   22    -31.03      0.00
    5    1   22    -11.02      0.00
    7    1   22    -25.21      0.00
    9    1   22     -5.35      0.00
   11    1   22    -10.20      0.00
   13    1   22     -6.05      0.00
   15    1   22     -7.38      0.00
   17    1   22     -7.84      0.00
   19    1   22     -9.15      0.00
   21    1   22     -5.20      0.00
   23    1   22     -9.69      0.00
   25    1   22     -4.50      0.00
   27    1   22    -10.38      0.00
   29    1   22     -8.06      0.00
   31    1   22    -12.83      0.00
   33    1   22    -13.29      0.00
   35    1   22    -13.75      0.00
   37    1   22    -11.37      0.00
   39    1   22     -5.89      0.00
   41    1   22     -4.50      0.00
   43    1   22      2.22      0.00
   45    1   22     -1.57      0.00
   47    1   22      3.82      0.00
    0    2   22      2.20      0.00
    2    2   22     -2.41      0.00
    4    2   22      0.30      0.00
    6    2   22     -0.67      0.00
    8    2   22      0.57      0.00
   10    2   22      2.60      0.00
   12    2   22      0.62      0.00
   14    2   22      2.85      0.00
   16    2   22     -0.13      0.00
   18    2   22      2.77      0.00
   20    2   22     -0.49      0.00
   22    2   22      2.91      0.00
   24    2   22      0.39      0.00
   26    2   22      5.86      0.00
   28    2   22      0.38      0.00
   30    2   22      1.95      0.00
   32    2   22     -2.10      0.00
   34    2   22     -2.34      0.00
   36    2   22     -2.08      0.00
   38    2   22     -1.55      0.00
   40    2   22     -5.80      0.00
   42    2   22      0.18      0.00
   44    2   22     -3.11      0.00
   46    2   22      3.97      0.00
   48    2   22      0.32      0.00
    1    3   22     15.86      0.00
    3    3   22     21.58      0.00
    5    3   22     14.34      0.00
    7    3   22     21.62      0.00
    9    3   22     14.70      0.00
   11    3   22     13.46      0.00
   13    3   22      9.26      0.00
   15    3   22      8.99      0.00
   17    3   22      7.68      0.00
   19    3   22     11.17      0.00
   21    3   22     10.09      0.00
   23    3   22      8.33      0.00
   25    3   22     10.85      0.00
   27    3   22      6.81      0.00
   29    3   22     12.90      0.00
   31    3   22      9.59      0.00
   33    3   22      9.75      0.00
   35    3   22      9.26      0.00
   37    3   22      4.48      0.00
   39    3   22      6.40      0.00
   41    3   22      3.68      0.00
   43    3   22      2.58      0.00
   45    3   22      5.35      0.00
   47    3   22      0.82      0.00
    0    4   22     20.49      0.00
    2    4   22    -18.36      0.00
    4    4   22      5.27      0.00
    6    4   22    -24.96      0.00
    8    4   22     -5.92      0.00
   10    4   22    -11.90      0.00
   12    4   22      0.33      0.00
   14    4   22     -4.23      0.00
   16    4   22     -2.25      0.00
   18    4   22     -8.95      0.00
   20    4   22     -4.52      0.00
   22    4   22     -4.32      0.00
   24    4   22      3.65      0.00
   26    4   22      1.43      0.00
   28    4   22      6.24      0.00
   30    4   22     -2.81      0.00
   32    4   22      2.10      0.00
   34    4   22     -2.57      0.00
   36    4   22      1.62      0.00
   38    4   22     -0.71      0.00
   40    4   22     -0.28      0.00
   42    4   22     -3.18      0.00
   44    4   22      0.08      0.00
   46    4   22     -0.64      0.00
    1    5   22    -21.55      0.00
    3    5   22    -15.06      0.00
    5    5   22    -10.91      0.00
    7    5   22     -6.54      0.00
    9    5   22    -12.57      0.00
   11    5   22    -13.77      0.00
   13    5   22    -14.13      0.00
   15    5   22     -9.76      0.00
   17    5   22     -2.96      0.00
   19    5   22     -2.01      0.00
   21    5   22     -4.83      0.00
   23    5   22     -6.57      0.00
   25    5   22    -11.23      0.00
   27    5   22     -6.17      0.00
   29    5   22     -6.65      0.00
   31    5   22     -4.28      0.00
   33    5   22     -6.27      0.00
   35    5   22     -8.88      0.00
   37    5   22     -6.55      0.00
   39    5   22     -7.12      0.00
   41    5   22     -2.98      0.00
   43    5   22     -1.76      0.00
   45    5   22     -2.73      0.00
    0    6   22     -6.10      0.00
    2    6   22     -3.26      0.00
    4    6   22     -6.34      0.00
    6    6   22    -13.44      0.00
    8    6   22     -1.66      0.00
   10    6   22    -11.01      0.00
   12    6   22      3.80      0.00
   14    6   22     -3.83      0.00
   16    6   22      1.39      0.00
   18    6   22     -2.05      0.00
   20    6   22      0.50      0.00
   22    6   22      0.26      0.00
   24    6   22      3.32      0.00
   26    6   22      2.09      0.00
   28    6   22      2.32      0.00
   30    6   22      1.30      0.00
   32    6   22     -0.85      0.00
   34    6   22      1.97      0.00
   36    6   22      0.29      0.00
   38    6   22      2.76      0.00
   40    6   22     -1.01      0.00
   42    6   22     -0.81      0.00
   44    6   22     -4.06      0.00
   46    6   22     -1.82      0.00
    1    7   22     16.94      0.00
    3    7   22     12.16      0.00
    5    7   22     27.11      0.00
    7    7   22     12.34      0.00
    9    7   22     21.83      0.00
   11    7   22      8.22      0.00
   13    7   22     12.82      0.00
   15    7   22      8.18      0.00
   17    7   22     12.00      0.00
   19    7   22      7.32      0.00
   21    7   22      8.01      0.00
   23    7   22      2.26      0.00
   25    7   22      1.95      0.00
   27    7   22      4.02      0.00
   29    7   22      3.72      0.00
   31    7   22      7.87      0.00
   33    7   22      7.08      0.00
   35    7   22      4.87      0.00
   37    7   22      8.65      0.00
   39    7   22      2.95      0.00
   41    7   22      7.26      0.00
   43    7   22      1.79      0.00
   45    7   22      2.78      0.00
    0    8   22     -3.92      0.00
    2    8   22      3.51      0.00
    4    8   22     -5.90      0.00
    6    8   22     -0.47      0.00
    8    8   22     -6.45      0.00
   10    8   22     -1.08      0.00
   12    8   22     -4.03      0.00
   14    8   22     -0.81      0.00
   16    8   22     -5.77      0.00
   18    8   22     -1.44      0.00
   20    8   22     -3.85      0.00
   22    8   22      0.09      0.00
   24    8   22     -4.04      0.00
   26    8   22     -1.30      0.00
   28    8   22     -7.68      0.00
   30    8   22      0.25      0.00
   32    8   22     -4.79      0.00
   34    8   22      1.29      0.00
   36    8   22     -0.36      0.00
   38    8   22     -1.50      0.00
   40    8   22     -0.73      0.00
   42    8   22     -5.13      0.00
   44    8   22     -1.60      0.00
    1    9   22     -6.44      0.00
    3    9   22     -7.92      0.00
    5    9   22    -11.11      0.00
    7    9   22    -14.33      0.00
    9    9   22    -12.50      0.00
   11    9   22    -14.56      0.00
   13    9   22     -8.65      0.00
   15    9   22    -14.15      0.00
   17    9   22     -8.50      0.00
   19    9   22    -14.62      0.00
   21    9   22     -4.40      0.00
   23    9   22     -7.87      0.00
   25    9   22      0.99      0.00
   27    9   22     -5.90      0.00
   29    9   22     -0.66      0.00
   31    9   22     -8.02      0.00
   33    9   22     -4.13      0.00
   35    9   22     -5.65      0.00
   37    9   22     -5.67      0.00
   39    9   22     -3.52      0.00
   41    9   22     -6.72      0.00
    0   10   22     -0.71      0.00
    2   10   22     -3.91      0.00
    4   10   22      4.03      0.00
    6   10   22      4.90      0.00
    8   10   22      0.43      0.00
   10   10   22      0.05      0.00
   12   10   22     -4.74      0.00
   14   10   22     -4.13      0.00
   16   10   22     -1.94      0.00
   18   10   22     -3.24      0.00
   20   10   22     -0.60      0.00
   22   10   22     -1.38      0.00
   24   10   22     -3.09      0.00
   26   10   22     -2.83      0.00
   28   10   22     -1.51      0.00
   30   10   22     -1.27      0.00
   32   10   22      1.03      0.00
   34   10   22     -1.75      0.00
   36   10   22     -2.36      0.00
   38   10   22     -2.09      0.00
   40   10   22     -3.44      0.00
    1   11   22      0.42      0.00
    3   11   22     -3.58      0.00
    5   11   22     -2.82      0.00
    7   11   22     -6.18      0.00
    9   11   22     -0.03      0.00
   11   11   22      1.21      0.00
   13   11   22      4.10      0.00
   15   11   22      1.39      0.00
   17   11   22     -2.50      0.00
   19   11   22     -1.09      0.00
   21   11   22     -2.16      0.00
   23   11   22      1.12      0.00
   25   11   22     -0.15      0.00
   27   11   22     -2.27      0.00
   29   11   22     -2.42      0.00
   31   11   22     -2.13      0.00
   33   11   22     -3.10      0.00
   35   11   22      0.55      0.00
   37   11   22     -2.27      0.00
   39   11   22      2.48      0.00
    0   12   22     -5.51      0.00
    2   12   22     -1.36      0.00
    4   12   22     -0.61      0.00
    6   12   22      4.47      0.00
    8   12   22      0.44      0.00
   10   12   22     -0.52      0.00
   12   12   22     -3.61      0.00
   14   12   22     -5.60      0.00
   16   12   22     -2.25      0.00
   18   12   22     -1.40      0.00
   20   12   22      0.09      0.00
   22   12   22     -0.72      0.00
   24   12   22     -5.11      0.00
   26   12   22     -2.56      0.00
   28   12   22      0.44      0.00
   30   12   22      2.59      0.00
   32   12   22      4.90      0.00
   34   12   22     -0.56      0.00
   36   12   22      1.43      0.00
    1   13   22    -10.87      0.00
    3   13   22     -8.61      0.00
    5   13   22     -8.89      0.00
    7   13   22     -9.25      0.00
    9   13   22     -6.55      0.00
   11   13   22    -11.74      0.00
   13   13   22     -6.31      0.00
   15   13   22     -9.90      0.00
   17   13   22     -8.52      0.00
   19   13   22     -7.00      0.00
   21   13   22     -9.95      0.00
   23   13   22     -6.66      0.00
   25   13   22     -8.83      0.00
   27   13   22     -6.52      0.00
   29   13   22     -1.28      0.00
   31   13   22     -4.23      0.00
   33   13   22      3.13      0.00
   35   13   22     -4.99      0.00
    0   14   22     -2.91      0.00
    2   14   22     -2.68      0.00
    4   14   22     -2.27      0.00
    6   14   22     -6.96      0.00
    8   14   22     -2.42      0.00
   10   14   22     -6.45      0.00
   12   14   22     -0.13      0.00
   14   14   22     -2.18      0.00
   16   14   22     -0.26      0.00
   18   14   22     -1.49      0.00
   20   14   22      0.76      0.00
   22   14   22     -0.44      0.00
   24   14   22     -3.51      0.00
   26   14   22     -0.13      0.00
   28   14   22     -2.30      0.00
   30   14   22      7.36      0.00
   32   14   22      5.18      0.00
    1   15   22      2.82      0.00
    3   15   22      2.18      0.00
    5   15   22      5.42      0.00
    7   15   22      5.64      0.00
    9   15   22      5.84      0.00
   11   15   22      6.85      0.00
   13   15   22      0.24      0.00
   15   15   22      1.46      0.00
   17   15   22     -5.59      0.00
   19   15   22      2.86      0.00
   21   15   22     -2.18      0.00
   23   15   22      6.64      0.00
   25   15   22     -2.36      0.00
   27   15   22      0.51      0.00
   29   15   22     -3.01      0.00
    0   16   22      5.18      0.00
    2   16   22      3.37      0.00
    4   16   22      4.10      0.00
    6   16   22     -1.84      0.00
    8   16   22     -1.97      0.00
   10   16   22     -2.00      0.00
   12   16   22     -1.48      0.00
   14   16   22      3.84      0.00
   16   16   22      2.10      0.00
   18   16   22      5.07      0.00
   20   16   22      8.45      0.00
   22   16   22      9.05      0.00
   24   16   22      8.99      0.00
    1   17   22     -0.13      0.00
    3   17   22     -2.81      0.00
    5   17   22      1.09      0.00
    7   17   22     -2.71      0.00
    9   17   22      1.30      0.00
   11   17   22     -0.41      0.00
   13   17   22     -1.53      0.00
   15   17   22     -0.62      0.00
   17   17   22     -2.33      0.00
   19   17   22      0.77      0.00
   21   17   22      1.68      0.00
    0   18   22     -6.85      0.00
    2   18   22     -4.82      0.00
    4   18   22     -6.10      0.00
    6   18   22     -1.03      0.00
    8   18   22     -7.08      0.00
   10   18   22     -3.66      0.00
   12   18   22     -1.36      0.00
   14   18   22     -1.32      0.00
    1    1   23      0.71      0.00
    3    1   23      3.63      0.00
    5    1   23    -10.39      0.00
    7    1   23      1.38      0.00
    9    1   23     -7.93      0.00
   11    1   23      6.39      0.00
   13    1   23     -2.07      0.00
   15    1   23      0.82      0.00
   17    1   23     -7.23      0.00
   19    1   23     -4.80      0.00
   21    1   23     -3.45      0.00
   23    1   23      0.23      0.00
   25    1   23     -2.57      0.00
   27    1   23      0.17      0.00
   29    1   23     -4.62      0.00
   31    1   23      2.89      0.00
   33    1   23     -3.46      0.00
   35    1   23      1.22      0.00
   37    1   23     -6.13      0.00
   39    1   23     -1.56      0.00
   41    1   23     -4.05      0.00
   43    1   23     -2.60      0.00
   45    1   23     -3.14      0.00
   47    1   23     -4.89      0.00
    0    2   23      6.10      0.00
    2    2   23      1.07      0.00
    4    2   23      6.92      0.00
    6    2   23      4.39      0.00
    8    2   23     -0.60      0.00
   10    2   23     -1.95      0.00
   12    2   23     -6.76      0.00
   14    2   23     -3.04      0.00
   16    2   23     -1.16      0.00
   18    2   23     -1.22      0.00
   20    2   23     -0.47      0.00
   22    2   23     -1.49      0.00
   24    2   23     -1.48      0.00
   26    2   23      2.24      0.00
   28    2   23     -0.81      0.00
   30    2   23      4.19      0.00
   32    2   23     -0.97      0.00
   34    2   23      4.30      0.00
   36    2   23     -1.06      0.00
   38    2   23      1.58      0.00
   40    2   23     -2.25      0.00
   42    2   23     -2.08      0.00
   44    2   23     -3.47      0.00
   46    2   23     -3.97      0.00
    1    3   23     -3.71      0.00
    3    3   23    -10.74      0.00
    5    3   23      5.14      0.00
    7    3   23     -9.45      0.00
    9    3   23      2.15      0.00
   11    3   23     -6.36      0.00
   13    3   23     -4.84      0.00
   15    3   23     -3.05      0.00
   17    3   23     -6.74      0.00
   19    3   23      0.33      0.00
   21    3   23     -6.43      0.00
   23    3   23     -1.91      0.00
   25    3   23    -10.18      0.00
   27    3   23     -4.29      0.00
   29    3   23     -9.61      0.00
   31    3   23     -1.93      0.00
   33    3   23     -5.68      0.00
   35    3   23     -3.60      0.00
   37    3   23     -1.00      0.00
   39    3   23     -1.37      0.00
   41    3   23      0.22      0.00
   43    3   23     -2.69      0.00
   45    3   23     -6.27      0.00
    0    4   23     -7.91      0.00
    2    4   23      6.24      0.00
    4    4   23     -9.32      0.00
    6    4   23     -1.80      0.00
    8    4   23     -1.50      0.00
   10    4   23      5.05      0.00
   12    4   23      7.60      0.00
   14    4   23      8.16      0.00
   16    4   23     -0.63      0.00
   18    4   23     -0.54      0.00
   20    4   23     -3.87      0.00
   22    4   23     -0.17      0.00
   24    4   23      3.46      0.00
   26    4   23      0.09      0.00
   28    4   23     -1.19      0.00
   30    4   23     -5.22      0.00
   32    4   23     -4.35      0.00
   34    4   23     -4.25      0.00
   36    4   23     -0.69      0.00
   38    4   23     -4.24      0.00
   40    4   23      1.21      0.00
   42    4   23     -1.26      0.00
   44    4   23      3.53      0.00
   46    4   23      0.85      0.00
    1    5   23     -4.60      0.00
    3    5   23      0.79      0.00
    5    5   23      5.91      0.00
    7    5   23      5.48      0.00
    9    5   23      6.61      0.00
   11    5   23     -4.01      0.00
   13    5   23     -1.47      0.00
   15    5   23     -5.62      0.00
   17    5   23     -0.62      0.00
   19    5   23     -1.40      0.00
   21    5   23     -1.93      0.00
   23    5   23     -3.79      0.00
   25    5   23     -6.28      0.00
   27    5   23     -4.35      0.00
   29    5   23      0.66      0.00
   31    5   23      0.50      0.00
   33    5   23      7.39      0.00
   35    5   23      1.94      0.00
   37    5   23      4.03      0.00
   39    5   23      1.02      0.00
   41    5   23      1.63      0.00
   43    5   23     -0.33      0.00
   45    5   23      2.59      0.00
    0    6   23     27.92      0.00
    2    6   23      9.80      0.00
    4    6   23     10.38      0.00
    6    6   23     -1.03      0.00
    8    6   23     -3.36      0.00
   10    6   23      5.23      0.00
   12    6   23      2.24      0.00
   14    6   23      5.10      0.00
   16    6   23     -3.71      0.00
   18    6   23     -4.14      0.00
   20    6   23     -6.32      0.00
   22    6   23      4.54      0.00
   24    6   23      5.44      0.00
   26    6   23     10.30      0.00
   28    6   23      6.05      0.00
   30    6   23      1.17      0.00
   32    6   23      5.20      0.00
   34    6   23      2.22      0.00
   36    6   23      6.46      0.00
   38    6   23      3.29      0.00
   40    6   23     -1.17      0.00
   42    6   23      1.38      0.00
   44    6   23     -4.04      0.00
    1    7   23     -7.88      0.00
    3    7   23     -0.02      0.00
    5    7   23     -4.30      0.00
    7    7   23      5.15      0.00
    9    7   23     -2.65      0.00
   11    7   23     -1.32      0.00
   13    7   23      0.15      0.00
   15    7   23      1.78      0.00
   17    7   23      5.34      0.00
   19    7   23      5.74      0.00
   21    7   23      0.76      0.00
   23    7   23      0.42      0.00
   25    7   23     -0.72      0.00
   27    7   23      0.51      0.00
   29    7   23      1.30      0.00
   31    7   23      1.95      0.00
   33    7   23     -2.24      0.00
   35    7   23     -0.92      0.00
   37    7   23     -2.86      0.00
   39    7   23     -2.00      0.00
   41    7   23     -0.71      0.00
   43    7   23     -2.63      0.00
    0    8   23      2.24      0.00
    2    8   23     -5.14      0.00
    4    8   23     -3.86      0.00
    6    8   23     -9.21      0.00
    8    8   23     -3.34      0.00
   10    8   23     -0.23      0.00
   12    8   23      1.50      0.00
   14    8   23      3.02      0.00
   16    8   23      0.27      0.00
   18    8   23      1.27      0.00
   20    8   23      0.14      0.00
   22    8   23      0.08      0.00
   24    8   23     -1.53      0.00
   26    8   23     -3.45      0.00
   28    8   23     -4.05      0.00
   30    8   23     -5.18      0.00
   32    8   23     -2.11      0.00
   34    8   23     -1.38      0.00
   36    8   23      0.03      0.00
   38    8   23      1.11      0.00
   40    8   23      0.38      0.00
   42    8   23      3.38      0.00
    1    9   23     11.76      0.00
    3    9   23      8.85      0.00
    5    9   23     15.96      0.00
    7    9   23     10.58      0.00
    9    9   23     13.86      0.00
   11    9   23      9.45      0.00
   13    9   23      6.03      0.00
   15    9   23      8.43      0.00
   17    9   23      5.26      0.00
   19    9   23      6.82      0.00
   21    9   23      2.86      0.00
   23    9   23      3.06      0.00
   25    9   23      2.68      0.00
   27    9   23      6.24      0.00
   29    9   23      3.22      0.00
   31    9   23      4.77      0.00
   33    9   23     -0.77      0.00
   35    9   23      2.19      0.00
   37    9   23      0.06      0.00
   39    9   23      3.71      0.00
   41    9   23      3.39      0.00
    0   10   23      1.19      0.00
    2   10   23      6.08      0.00
    4   10   23      0.32      0.00
    6   10   23      6.22      0.00
    8   10   23      2.19      0.00
   10   10   23      4.49      0.00
   12   10   23      3.34      0.00
   14   10   23      0.80      0.00
   16   10   23      3.67      0.00
   18   10   23      2.12      0.00
   20   10   23      3.01      0.00
   22   10   23      1.91      0.00
   24   10   23      0.03      0.00
   26   10   23      2.03      0.00
   28   10   23     -1.54      0.00
   30   10   23      6.05      0.00
   32   10   23     -0.96      0.00
   34   10   23      7.37      0.00
   36   10   23     -1.88      0.00
   38   10   23      0.85      0.00
    1   11   23      0.76      0.00
    3   11   23     -5.11      0.00
    5   11   23     -2.14      0.00
    7   11   23     -7.68      0.00
    9   11   23     -1.37      0.00
   11   11   23     -1.98      0.00
   13   11   23      0.05      0.00
   15   11   23     -1.74      0.00
   17   11   23     -1.19      0.00
   19   11   23     -4.94      0.00
   21   11   23     -2.14      0.00
   23   11   23      0.89      0.00
   25   11   23      1.76      0.00
   27   11   23      5.26      0.00
   29   11   23      0.13      0.00
   31   11   23     -1.05      0.00
   33   11   23      2.26      0.00
   35   11   23     -1.73      0.00
   37   11   23      5.89      0.00
    0   12   23      1.04      0.00
    2   12   23     -0.54      0.00
    4   12   23      2.13      0.00
    6   12   23     -1.19      0.00
    8   12   23      2.34      0.00
   10   12   23     -0.30      0.00
   12   12   23     -2.63      0.00
   14   12   23     -0.22      0.00
   16   12   23     -5.05      0.00
   18   12   23      0.42      0.00
   20   12   23     -1.47      0.00
   22   12   23      2.62      0.00
   24   12   23      1.65      0.00
   26   12   23      3.02      0.00
   28   12   23     -0.78      0.00
   30   12   23     -0.68      0.00
   32   12   23     -2.97      0.00
   34   12   23     -0.96      0.00
    1   13   23     -2.08      0.00
    3   13   23     -3.90      0.00
    5   13   23     -3.12      0.00
    7   13   23     -3.84      0.00
    9   13   23      0.10      0.00
   11   13   23      0.25      0.00
   13   13   23      5.62      0.00
   15   13   23      3.16      0.00
   17   13   23      4.80      0.00
   19   13   23     -1.99      0.00
   21   13   23     -0.12      0.00
   23   13   23     -0.82      0.00
   25   13   23      5.05      0.00
   27   13   23      4.16      0.00
   29   13   23      0.84      0.00
   31   13   23     -1.13      0.00
   33   13   23     -2.23      0.00
    0   14   23      2.46      0.00
    2   14   23      6.56      0.00
    4   14   23     -0.45      0.00
    6   14   23      2.04      0.00
    8   14   23     -0.52      0.00
   10   14   23      1.65      0.00
   12   14   23     -1.42      0.00
   14   14   23     -1.09      0.00
   16   14   23     -6.28      0.00
   18   14   23     -1.75      0.00
   20   14   23     -4.95      0.00
   22   14   23     -0.53      0.00
   24   14   23      0.36      0.00
   26   14   23      0.98      0.00
   28   14   23      3.52      0.00
   30   14   23      2.35      0.00
    1   15   23     -8.54      0.00
    3   15   23     -5.05      0.00
    5   15   23     -4.02      0.00
    7   15   23     -2.68      0.00
    9   15   23      2.87      0.00
   11   15   23     -8.08      0.00
   13   15   23     -1.92      0.00
   15   15   23     -8.08      0.00
   17   15   23     -5.23      0.00
   19   15   23     -7.80      0.00
   21   15   23     -9.09      0.00
   23   15   23     -8.86      0.00
   25   15   23     -1.92      0.00
   27   15   23      1.27      0.00
    0   16   23      0.21      0.00
    2   16   23     -5.57      0.00
    4   16   23     -1.93      0.00
    6   16   23     -5.21      0.00
    8   16   23     -6.92      0.00
   10   16   23     -4.74      0.00
   12   16   23     -4.64      0.00
   14   16   23      1.07      0.00
   16   16   23      1.22      0.00
   18   16   23      3.30      0.00
   20   16   23      0.61      0.00
   22   16   23      1.52      0.00
    1   17   23      0.93      0.00
    3   17   23     -3.00      0.00
    5   17   23      0.13      0.00
    7   17   23     -1.22      0.00
    9   17   23      1.02      0.00
   11   17   23      1.27      0.00
   13   17   23     -1.96      0.00
   15   17   23     -0.21      0.00
   17   17   23      0.47      0.00
    0   18   23      0.93      0.00
    2   18   23      1.85      0.00
    4   18   23      0.26      0.00
    6   18   23      0.58      0.00
    8   18   23     -2.11      0.00
    0    0   24    -11.37      0.00
    2    0   24      9.82      0.00
    4    0   24     -1.75      0.00
    6    0   24      5.63      0.00
    8    0   24      5.71      0.00
   10    0   24     -6.47      0.00
   12    0   24     -1.14      0.00
   14    0   24     -9.06      0.00
   16    0   24      1.26      0.00
   18    0   24      0.41      0.00
   20    0   24      2.39      0.00
   22    0   24      2.61      0.00
   24    0   24      1.31      0.00
   26    0   24      6.60      0.00
   28    0   24      3.75      0.00
   30    0   24      7.71      0.00
   32    0   24      2.64      0.00
   34    0   24      8.67      0.00
   36    0   24      7.07      0.00
   38    0   24      7.87      0.00
   40    0   24      8.49      0.00
   42    0   24      3.74      0.00
   44    0   24      5.73      0.00
    1    1   24    -17.71      0.00
    3    1   24    -19.67      0.00
    5    1   24    -13.72      0.00
    7    1   24    -13.17      0.00
    9    1   24     -4.10      0.00
   11    1   24     -2.34      0.00
   13    1   24     -2.73      0.00
   15    1   24     -7.86      0.00
   17    1   24     -8.13      0.00
   19    1   24    -15.74      0.00
   21    1   24     -6.68      0.00
   23    1   24    -13.09      0.00
   25    1   24     -6.77      0.00
   27    1   24    -10.22      0.00
   29    1   24     -8.21      0.00
   31    1   24    -10.38      0.00
   33    1   24    -10.01      0.00
   35    1   24    -11.17      0.00
   37    1   24    -13.21      0.00
   39    1   24     -7.27      0.00
   41    1   24     -8.84      0.00
   43    1   24      0.39      0.00
   45    1   24     -0.70      0.00
    0    2   24      6.64      0.00
    2    2   24     -2.58      0.00
    4    2   24      8.37      0.00
    6    2   24      6.26      0.00
    8    2   24      7.02      0.00
   10    2   24      4.46      0.00
   12    2   24      3.17      0.00
   14    2   24      2.81      0.00
   16    2   24      7.96      0.00
   18    2   24      6.25      0.00
   20    2   24      6.67      0.00
   22    2   24      3.53      0.00
   24    2   24      1.48      0.00
   26    2   24      4.17      0.00
   28    2   24      0.79      0.00
   30    2   24      2.97      0.00
   32    2   24      2.18      0.00
   34    2   24      3.22      0.00
   36    2   24      1.85      0.00
   38    2   24      2.80      0.00
   40    2   24     -4.26      0.00
   42    2   24      4.33      0.00
   44    2   24     -0.08      0.00
    1    3   24     18.07      0.00
    3    3   24     21.28      0.00
    5    3   24     12.08      0.00
    7    3   24     18.86      0.00
    9    3   24     10.69      0.00
   11    3   24     13.84      0.00
   13    3   24      9.79      0.00
   15    3   24      9.70      0.00
   17    3   24      6.95      0.00
   19    3   24      8.67      0.00
   21    3   24      6.15      0.00
   23    3   24      5.48      0.00
   25    3   24      7.90      0.00
   27    3   24      4.01      0.00
   29    3   24      7.63      0.00
   31    3   24      2.29      0.00
   33    3   24      0.33      0.00
   35    3   24     -0.43      0.00
   37    3   24      0.42      0.00
   39    3   24      0.58      0.00
   41    3   24      2.07      0.00
   43    3   24     -2.75      0.00
    0    4   24      8.53      0.00
    2    4   24    -13.48      0.00
    4    4   24      3.15      0.00
    6    4   24    -12.70      0.00
    8    4   24     -2.86      0.00
   10    4   24     -6.42      0.00
   12    4   24     -4.15      0.00
   14    4   24     -3.72      0.00
   16    4   24     -3.10      0.00
   18    4   24     -6.02      0.00
   20    4   24     -2.58      0.00
   22    4   24     -6.23      0.00
   24    4   24      1.06      0.00
   26    4   24     -1.97      0.00
   28    4   24      4.55      0.00
   30    4   24     -1.75      0.00
   32    4   24      3.06      0.00
   34    4   24     -1.90      0.00
   36    4   24      0.57      0.00
   38    4   24     -1.41      0.00
   40    4   24      1.70      0.00
   42    4   24      2.01      0.00
   44    4   24      5.89      0.00
    1    5   24    -16.56      0.00
    3    5   24    -13.07      0.00
    5    5   24     -4.14      0.00
    7    5   24     -5.78      0.00
    9    5   24     -9.88      0.00
   11    5   24    -14.91      0.00
   13    5   24    -18.58      0.00
   15    5   24    -12.23      0.00
   17    5   24     -8.28      0.00
   19    5   24     -4.09      0.00
   21    5   24     -9.68      0.00
   23    5   24    -12.61      0.00
   25    5   24    -17.48      0.00
   27    5   24    -11.23      0.00
   29    5   24     -9.08      0.00
   31    5   24     -5.64      0.00
   33    5   24     -8.97      0.00
   35    5   24     -9.67      0.00
   37    5   24     -8.76      0.00
   39    5   24     -5.25      0.00
   41    5   24     -3.02      0.00
   43    5   24     -1.36      0.00
    0    6   24     -0.93      0.00
    2    6   24     -0.37      0.00
    4    6   24     -4.02      0.00
    6    6   24    -10.61      0.00
    8    6   24      3.52      0.00
   10    6   24     -3.53      0.00
   12    6   24     11.30      0.00
   14    6   24     -0.23      0.00
   16    6   24      1.79      0.00
   18    6   24     -2.65      0.00
   20    6   24     -0.53      0.00
   22    6   24      2.36      0.00
   24    6   24      4.70      0.00
   26    6   24      1.33      0.00
   28    6   24      0.48      0.00
   30    6   24     -3.78      0.00
   32    6   24     -3.40      0.00
   34    6   24     -3.23      0.00
   36    6   24     -3.91      0.00
   38    6   24     -3.32      0.00
   40    6   24     -3.28      0.00
   42    6   24     -0.35      0.00
    1    7   24      0.87      0.00
    3    7   24      2.00      0.00
    5    7   24     14.86      0.00
    7    7   24      4.61      0.00
    9    7   24      9.41      0.00
   11    7   24     -3.10      0.00
   13    7   24      1.84      0.00
   15    7   24      4.45      0.00
   17    7   24      8.62      0.00
   19    7   24     10.95      0.00
   21    7   24      5.65      0.00
   23    7   24      4.36      0.00
   25    7   24     -1.64      0.00
   27    7   24      6.20      0.00
   29    7   24      4.45      0.00
   31    7   24      9.37      0.00
   33    7   24      6.53      0.00
   35    7   24      1.89      0.00
   37    7   24      3.99      0.00
   39    7   24     -1.05      0.00
   41    7   24      0.95      0.00
    0    8   24     -0.56      0.00
    2    8   24      7.04      0.00
    4    8   24     -6.20      0.00
    6    8   24     -0.37      0.00
    8    8   24     -7.52      0.00
   10    8   24      1.76      0.00
   12    8   24     -3.15      0.00
   14    8   24      0.72      0.00
   16    8   24     -7.26      0.00
   18    8   24     -5.27      0.00
   20    8   24     -6.10      0.00
   22    8   24     -1.94      0.00
   24    8   24     -3.27      0.00
   26    8   24     -0.80      0.00
   28    8   24     -7.65      0.00
   30    8   24     -1.01      0.00
   32    8   24     -2.02      0.00
   34    8   24      2.63      0.00
   36    8   24      3.87      0.00
   38    8   24     -1.39      0.00
   40    8   24     -0.24      0.00
    1    9   24    -15.49      0.00
    3    9   24    -13.16      0.00
    5    9   24    -10.81      0.00
    7    9   24    -11.73      0.00
    9    9   24    -16.73      0.00
   11    9   24    -14.52      0.00
   13    9   24    -12.82      0.00
   15    9   24     -7.61      0.00
   17    9   24     -4.47      0.00
   19    9   24     -5.86      0.00
   21    9   24     -5.03      0.00
   23    9   24     -7.89      0.00
   25    9   24     -3.13      0.00
   27    9   24     -7.52      0.00
   29    9   24     -1.00      0.00
   31    9   24     -7.95      0.00
   33    9   24     -3.88      0.00
   35    9   24     -5.50      0.00
   37    9   24     -2.79      0.00
   39    9   24     -0.60      0.00
    0   10   24      8.33      0.00
    2   10   24      3.23      0.00
    4   10   24      2.45      0.00
    6   10   24      0.84      0.00
    8   10   24     -1.65      0.00
   10   10   24      3.70      0.00
   12   10   24      2.00      0.00
   14   10   24      2.22      0.00
   16   10   24      2.41      0.00
   18   10   24      1.02      0.00
   20   10   24      1.75      0.00
   22   10   24      2.24      0.00
   24   10   24     -3.29      0.00
   26   10   24     -4.08      0.00
   28   10   24     -4.82      0.00
   30   10   24     -4.53      0.00
   32   10   24      0.44      0.00
   34   10   24     -2.07      0.00
   36   10   24     -0.60      0.00
    1   11   24      4.76      0.00
    3   11   24      6.92      0.00
    5   11   24      9.11      0.00
    7   11   24      9.04      0.00
    9   11   24      8.53      0.00
   11   11   24      5.23      0.00
   13   11   24      4.35      0.00
   15   11   24      3.65      0.00
   17   11   24      3.86      0.00
   19   11   24      4.32      0.00
   21   11   24      3.16      0.00
   23   11   24      1.98      0.00
   25   11   24     -0.12      0.00
   27   11   24      1.28      0.00
   29   11   24     -1.58      0.00
   31   11   24     -0.23      0.00
   33   11   24     -6.57      0.00
   35   11   24     -2.68      0.00
    0   12   24     -4.91      0.00
    2   12   24     -2.03      0.00
    4   12   24     -2.69      0.00
    6   12   24      3.05      0.00
    8   12   24     -1.59      0.00
   10   12   24     -1.69      0.00
   12   12   24     -3.87      0.00
   14   12   24     -8.94      0.00
   16   12   24     -3.64      0.00
   18   12   24     -4.22      0.00
   20   12   24      0.02      0.00
   22   12   24     -0.39      0.00
   24   12   24     -3.99      0.00
   26   12   24     -4.94      0.00
   28   12   24     -2.87      0.00
   30   12   24     -2.71      0.00
   32   12   24      1.41      0.00
    1   13   24     -7.39      0.00
    3   13   24     -5.63      0.00
    5   13   24     -2.89      0.00
    7   13   24     -7.13      0.00
    9   13   24     -3.54      0.00
   11   13   24    -10.19      0.00
   13   13   24     -1.38      0.00
   15   13   24     -3.80      0.00
   17   13   24     -1.69      0.00
   19   13   24     -3.57      0.00
   21   13   24     -7.61      0.00
   23   13   24     -6.96      0.00
   25   13   24     -8.11      0.00
   27   13   24     -7.20      0.00
   29   13   24     -3.58      0.00
   31   13   24     -4.52      0.00
    0   14   24     -6.95      0.00
    2   14   24     -0.35      0.00
    4   14   24     -3.78      0.00
    6   14   24     -4.65      0.00
    8   14   24      0.53      0.00
   10   14   24     -3.02      0.00
   12   14   24     -0.67      0.00
   14   14   24     -2.48      0.00
   16   14   24     -5.02      0.00
   18   14   24     -2.92      0.00
   20   14   24     -0.03      0.00
   22   14   24     -0.94      0.00
   24   14   24     -5.23      0.00
   26   14   24     -7.04      0.00
   28   14   24    -11.55      0.00
    1   15   24     -3.84      0.00
    3   15   24     -3.08      0.00
    5   15   24      2.17      0.00
    7   15   24      2.93      0.00
    9   15   24      2.74      0.00
   11   15   24      4.91      0.00
   13   15   24      1.45      0.00
   15   15   24      5.16      0.00
   17   15   24     -1.68      0.00
   19   15   24      3.38      0.00
   21   15   24     -5.73      0.00
   23   15   24      2.75      0.00
    0   16   24      1.65      0.00
    2   16   24      3.49      0.00
    4   16   24      2.02      0.00
    6   16   24      0.22      0.00
    8   16   24     -0.39      0.00
   10   16   24     -0.57      0.00
   12   16   24      1.18      0.00
   14   16   24      1.54      0.00
   16   16   24     -0.79      0.00
   18   16   24     -1.94      0.00
    1   17   24      0.32      0.00
    3   17   24     -1.49      0.00
    5   17   24      1.09      0.00
    7   17   24     -3.34      0.00
    9   17   24      1.30      0.00
   11   17   24     -3.42      0.00
    1    1   25      3.64      0.00
    3    1   25      5.41      0.00
    5    1   25     -3.87      0.00
    7    1   25      1.96      0.00
    9    1   25     -2.75      0.00
   11    1   25      5.40      0.00
   13    1   25      5.21      0.00
   15    1   25      5.91      0.00
   17    1   25      3.03      0.00
   19    1   25      3.46      0.00
   21    1   25      1.41      0.00
   23    1   25      4.85      0.00
   25    1   25     -0.15      0.00
   27    1   25      5.17      0.00
   29    1   25      0.70      0.00
   31    1   25      8.62      0.00
   33    1   25      2.02      0.00
   35    1   25      8.46      0.00
   37    1   25      2.18      0.00
   39    1   25      7.05      0.00
   41    1   25      2.55      0.00
   43    1   25      1.78      0.00
    0    2   25      1.77      0.00
    2    2   25      2.35      0.00
    4    2   25      5.73      0.00
    6    2   25      1.98      0.00
    8    2   25      5.03      0.00
   10    2   25     -4.49      0.00
   12    2   25      0.63      0.00
   14    2   25     -5.10      0.00
   16    2   25      4.32      0.00
   18    2   25      1.36      0.00
   20    2   25      6.31      0.00
   22    2   25      6.19      0.00
   24    2   25      4.46      0.00
   26    2   25      6.22      0.00
   28    2   25      2.14      0.00
   30    2   25      4.19      0.00
   32    2   25      2.00      0.00
   34    2   25      4.71      0.00
   36    2   25      2.27      0.00
   38    2   25      1.75      0.00
   40    2   25      0.60      0.00
   42    2   25     -2.12      0.00
    1    3   25      1.38      0.00
    3    3   25     -6.55      0.00
    5    3   25      2.49      0.00
    7    3   25     -9.96      0.00
    9    3   25     -0.09      0.00
   11    3   25     -2.20      0.00
   13    3   25     -4.36      0.00
   15    3   25     -1.70      0.00
   17    3   25    -11.28      0.00
   19    3   25     -4.49      0.00
   21    3   25     -5.62      0.00
   23    3   25      0.53      0.00
   25    3   25     -1.19      0.00
   27    3   25      2.35      0.00
   29    3   25     -2.65      0.00
   31    3   25      1.48      0.00
   33    3   25     -1.33      0.00
   35    3   25      0.08      0.00
   37    3   25      2.26      0.00
   39    3   25      2.26      0.00
   41    3   25      0.56      0.00
   43    3   25      0.52      0.00
    0    4   25     -5.35      0.00
    2    4   25     -0.41      0.00
    4    4   25     -5.81      0.00
    6    4   25     -0.62      0.00
    8    4   25     -1.62      0.00
   10    4   25      2.66      0.00
   12    4   25      3.95      0.00
   14    4   25      4.60      0.00
   16    4   25      1.00      0.00
   18    4   25      1.31      0.00
   20    4   25      2.02      0.00
   22    4   25      2.44      0.00
   24    4   25      6.38      0.00
   26    4   25      0.64      0.00
   28    4   25     -1.68      0.00
   30    4   25     -2.77      0.00
   32    4   25     -0.57      0.00
   34    4   25      0.32      0.00
   36    4   25      3.14      0.00
   38    4   25     -2.77      0.00
   40    4   25      0.87      0.00
   42    4   25      0.21      0.00
    1    5   25     -1.11      0.00
    3    5   25      2.80      0.00
    5    5   25      5.28      0.00
    7    5   25      3.16      0.00
    9    5   25      3.25      0.00
   11    5   25     -3.95      0.00
   13    5   25      1.51      0.00
   15    5   25     -1.26      0.00
   17    5   25      1.11      0.00
   19    5   25      1.73      0.00
   21    5   25     -1.92      0.00
   23    5   25      2.18      0.00
   25    5   25     -0.88      0.00
   27    5   25      1.14      0.00
   29    5   25      0.35      0.00
   31    5   25     -3.39      0.00
   33    5   25     -1.24      0.00
   35    5   25     -2.24      0.00
   37    5   25      2.50      0.00
   39    5   25      1.71      0.00
   41    5   25      1.53      0.00
    0    6   25     16.80      0.00
    2    6   25      4.08      0.00
    4    6   25      3.66      0.00
    6    6   25     -4.96      0.00
    8    6   25     -5.05      0.00
   10    6   25      3.89      0.00
   12    6   25     -1.16      0.00
   14    6   25      3.11      0.00
   16    6   25     -9.77      0.00
   18    6   25     -7.54      0.00
   20    6   25    -12.40      0.00
   22    6   25      2.51      0.00
   24    6   25      0.58      0.00
   26    6   25      8.68      0.00
   28    6   25      2.36      0.00
   30    6   25      0.98      0.00
   32    6   25      2.80      0.00
   34    6   25      4.13      0.00
   36    6   25      4.78      0.00
   38    6   25      4.95      0.00
   40    6   25      2.11      0.00
    1    7   25     -8.90      0.00
    3    7   25     -0.62      0.00
    5    7   25     -2.89      0.00
    7    7   25      4.11      0.00
    9    7   25     -6.38      0.00
   11    7   25     -6.24      0.00
   13    7   25     -8.20      0.00
   15    7   25     -4.94      0.00
   17    7   25     -1.22      0.00
   19    7   25     -1.33      0.00
   21    7   25     -3.68      0.00
   23    7   25     -5.93      0.00
   25    7   25     -5.27      0.00
   27    7   25     -1.34      0.00
   29    7   25      0.36      0.00
   31    7   25      1.42      0.00
   33    7   25     -3.54      0.00
   35    7   25     -3.23      0.00
   37    7   25     -3.24      0.00
   39    7   25     -0.97      0.00
    0    8   25      5.08      0.00
    2    8   25     -6.57      0.00
    4    8   25     -2.14      0.00
    6    8   25     -8.10      0.00
    8    8   25      0.13      0.00
   10    8   25      2.83      0.00
   12    8   25      4.55      0.00
   14    8   25      1.77      0.00
   16    8   25     -1.80      0.00
   18    8   25     -1.77      0.00
   20    8   25      0.05      0.00
   22    8   25      1.05      0.00
   24    8   25      2.54      0.00
   26    8   25     -2.24      0.00
   28    8   25     -2.74      0.00
   30    8   25     -5.60      0.00
   32    8   25     -2.16      0.00
   34    8   25     -1.70      0.00
   36    8   25     -0.52      0.00
   38    8   25      0.14      0.00
    1    9   25     -0.88      0.00
    3    9   25      0.35      0.00
    5    9   25      7.07      0.00
    7    9   25      1.11      0.00
    9    9   25      1.93      0.00
   11    9   25     -2.28      0.00
   13    9   25     -0.56      0.00
   15    9   25      4.74      0.00
   17    9   25      2.22      0.00
   19    9   25      4.04      0.00
   21    9   25     -0.25      0.00
   23    9   25      0.38      0.00
   25    9   25      1.31      0.00
   27    9   25      4.02      0.00
   29    9   25      2.35      0.00
   31    9   25      2.99      0.00
   33    9   25     -1.45      0.00
   35    9   25     -0.76      0.00
   37    9   25     -1.11      0.00
    0   10   25      9.06      0.00
    2   10   25     12.16      0.00
    4   10   25      2.33      0.00
    6   10   25      4.55      0.00
    8   10   25      0.80      0.00
   10   10   25      3.47      0.00
   12   10   25      5.37      0.00
   14   10   25      0.30      0.00
   16   10   25      3.38      0.00
   18   10   25     -2.30      0.00
   20   10   25      0.28      0.00
   22   10   25     -0.01      0.00
   24   10   25     -0.52      0.00
   26   10   25      1.76      0.00
   28   10   25     -3.63      0.00
   30   10   25      2.94      0.00
   32   10   25     -1.97      0.00
   34   10   25      7.38      0.00
    1   11   25     -8.83      0.00
    3   11   25    -10.81      0.00
    5   11   25     -3.90      0.00
    7   11   25     -8.92      0.00
    9   11   25     -8.72      0.00
   11   11   25     -7.20      0.00
   13   11   25     -4.90      0.00
   15   11   25     -4.13      0.00
   17   11   25      1.10      0.00
   19   11   25     -6.03      0.00
   21   11   25     -0.61      0.00
   23   11   25     -0.47      0.00
   25   11   25      0.57      0.00
   27   11   25      4.04      0.00
   29   11   25     -0.75      0.00
   31   11   25     -1.31      0.00
   33   11   25      0.21      0.00
    0   12   25      8.51      0.00
    2   12   25      1.22      0.00
    4   12   25      3.89      0.00
    6   12   25     -6.73      0.00
    8   12   25      2.14      0.00
   10   12   25     -3.13      0.00
   12   12   25      0.54      0.00
   14   12   25     -0.88      0.00
   16   12   25     -4.02      0.00
   18   12   25     -0.85      0.00
   20   12   25     -4.18      0.00
   22   12   25      2.84      0.00
   24   12   25     -1.11      0.00
   26   12   25      4.93      0.00
   28   12   25     -2.16      0.00
   30   12   25     -1.05      0.00
    1   13   25      5.57      0.00
    3   13   25      4.41      0.00
    5   13   25      3.79      0.00
    7   13   25      0.67      0.00
    9   13   25      5.93      0.00
   11   13   25      3.12      0.00
   13   13   25     11.74      0.00
   15   13   25      7.55      0.00
   17   13   25      9.40      0.00
   19   13   25      2.45      0.00
   21   13   25      4.03      0.00
   23   13   25      0.85      0.00
   25   13   25      6.61      0.00
   27   13   25      3.86      0.00
    0   14   25      1.65      0.00
    2   14   25      0.45      0.00
    4   14   25     -1.23      0.00
    6   14   25      1.65      0.00
    8   14   25      1.43      0.00
   10   14   25      4.20      0.00
   12   14   25      0.14      0.00
   14   14   25     -1.51      0.00
   16   14   25     -3.45      0.00
   18   14   25      0.68      0.00
   20   14   25      1.67      0.00
   22   14   25      2.96      0.00
   24   14   25      2.55      0.00
    1   15   25     -1.49      0.00
    3   15   25      3.00      0.00
    5   15   25      1.17      0.00
    7   15   25      1.38      0.00
    9   15   25      1.99      0.00
   11   15   25     -8.21      0.00
   13   15   25     -2.03      0.00
   15   15   25     -8.91      0.00
   17   15   25     -6.14      0.00
   19   15   25     -8.44      0.00
    0   16   25     -1.48      0.00
    2   16   25     -2.83      0.00
    4   16   25     -2.93      0.00
    6   16   25     -4.37      0.00
    8   16   25     -2.51      0.00
   10   16   25     -2.77      0.00
   12   16   25     -2.85      0.00
   14   16   25     -4.09      0.00
    1   17   25      3.47      0.00
    3   17   25     -0.38      0.00
    0    0   26     -9.02      0.00
    2    0   26      1.70      0.00
    4    0   26     -6.89      0.00
    6    0   26     -3.10      0.00
    8    0   26     -1.69      0.00
   10    0   26     -7.27      0.00
   12    0   26     -2.88      0.00
   14    0   26     -4.70      0.00
   16    0   26     -2.58      0.00
   18    0   26      3.51      0.00
   20    0   26      0.56      0.00
   22    0   26      2.03      0.00
   24    0   26      0.94      0.00
   26    0   26     -0.38      0.00
   28    0   26     -0.98      0.00
   30    0   26      0.28      0.00
   32    0   26     -1.38      0.00
   34    0   26      0.37      0.00
   36    0   26      1.20      0.00
   38    0   26     -1.31      0.00
   40    0   26      2.88      0.00
   42    0   26      1.83      0.00
    1    1   26     -8.15      0.00
    3    1   26     -7.79      0.00
    5    1   26     -8.55      0.00
    7    1   26     -8.01      0.00
    9    1   26     -4.35      0.00
   11    1   26     -5.87      0.00
   13    1   26     -1.25      0.00
   15    1   26     -7.13      0.00
   17    1   26     -0.79      0.00
   19    1   26    -10.21      0.00
   21    1   26     -2.10      0.00
   23    1   26     -9.04      0.00
   25    1   26     -5.00      0.00
   27    1   26     -5.73      0.00
   29    1   26     -5.56      0.00
   31    1   26     -5.25      0.00
   33    1   26     -6.69      0.00
   35    1   26     -4.49      0.00
   37    1   26     -7.67      0.00
   39    1   26     -1.49      0.00
   41    1   26     -4.11      0.00
    0    2   26      8.59      0.00
    2    2   26      2.79      0.00
    4    2   26      8.71      0.00
    6    2   26      6.59      0.00
    8    2   26      6.48      0.00
   10    2   26      4.46      0.00
   12    2   26      2.73      0.00
   14    2   26      1.33      0.00
   16    2   26      7.86      0.00
   18    2   26      3.39      0.00
   20    2   26      5.34      0.00
   22    2   26      0.87      0.00
   24    2   26     -1.93      0.00
   26    2   26      1.41      0.00
   28    2   26     -0.05      0.00
   30    2   26      1.57      0.00
   32    2   26      1.07      0.00
   34    2   26      1.40      0.00
   36    2   26     -1.45      0.00
   38    2   26      1.03      0.00
   40    2   26     -4.47      0.00
    1    3   26     19.32      0.00
    3    3   26     20.34      0.00
    5    3   26     11.49      0.00
    7    3   26     16.77      0.00
    9    3   26      8.06      0.00
   11    3   26     13.12      0.00
   13    3   26      8.35      0.00
   15    3   26     10.04      0.00
   17    3   26      8.21      0.00
   19    3   26      8.33      0.00
   21    3   26      5.71      0.00
   23    3   26      4.14      0.00
   25    3   26      6.25      0.00
   27    3   26      6.80      0.00
   29    3   26      8.75      0.00
   31    3   26      8.30      0.00
   33    3   26      3.92      0.00
   35    3   26      4.91      0.00
   37    3   26      4.65      0.00
   39    3   26      3.65      0.00
   41    3   26      4.08      0.00
    0    4   26     -1.22      0.00
    2    4   26    -16.58      0.00
    4    4   26     -0.75      0.00
    6    4   26     -9.36      0.00
    8    4   26     -0.07      0.00
   10    4   26     -3.36      0.00
   12    4   26     -5.63      0.00
   14    4   26     -3.21      0.00
   16    4   26     -3.26      0.00
   18    4   26      0.27      0.00
   20    4   26      3.56      0.00
   22    4   26     -2.49      0.00
   24    4   26      1.21      0.00
   26    4   26     -5.99      0.00
   28    4   26      0.54      0.00
   30    4   26     -3.73      0.00
   32    4   26      2.57      0.00
   34    4   26     -4.64      0.00
   36    4   26     -1.94      0.00
   38    4   26     -6.79      0.00
   40    4   26     -2.09      0.00
    1    5   26     -8.11      0.00
    3    5   26     -7.97      0.00
    5    5   26     -4.41      0.00
    7    5   26     -6.58      0.00
    9    5   26     -8.21      0.00
   11    5   26     -9.75      0.00
   13    5   26    -12.74      0.00
   15    5   26     -6.72      0.00
   17    5   26     -7.57      0.00
   19    5   26     -1.93      0.00
   21    5   26     -7.36      0.00
   23    5   26     -6.29      0.00
   25    5   26     -8.40      0.00
   27    5   26     -3.42      0.00
   29    5   26     -1.91      0.00
   31    5   26     -1.12      0.00
   33    5   26     -2.98      0.00
   35    5   26     -2.41      0.00
   37    5   26     -1.02      0.00
   39    5   26      1.51      0.00
    0    6   26      6.47      0.00
    2    6   26      4.98      0.00
    4    6   26      3.31      0.00
    6    6   26     -0.10      0.00
    8    6   26      9.28      0.00
   10    6   26      4.66      0.00
   12    6   26     13.00      0.00
   14    6   26      2.50      0.00
   16    6   26      2.04      0.00
   18    6   26     -0.79      0.00
   20    6   26     -1.32      0.00
   22    6   26      3.47      0.00
   24    6   26      3.01      0.00
   26    6   26      2.19      0.00
   28    6   26      0.80      0.00
   30    6   26     -0.73      0.00
   32    6   26      1.46      0.00
   34    6   26      0.26      0.00
   36    6   26     -0.35      0.00
   38    6   26     -3.83      0.00
    1    7   26      5.16      0.00
    3    7   26      6.28      0.00
    5    7   26     16.93      0.00
    7    7   26      9.00      0.00
    9    7   26     12.69      0.00
   11    7   26      3.26      0.00
   13    7   26      6.85      0.00
   15    7   26      9.43      0.00
   17    7   26     11.71      0.00
   19    7   26     14.29      0.00
   21    7   26      7.89      0.00
   23    7   26     10.64      0.00
   25    7   26      3.57      0.00
   27    7   26     12.18      0.00
   29    7   26      6.59      0.00
   31    7   26      7.67      0.00
   33    7   26      3.71      0.00
   35    7   26      0.19      0.00
   37    7   26      3.59      0.00
    0    8   26      1.26      0.00
    2    8   26      6.79      0.00
    4    8   26     -4.65      0.00
    6    8   26     -1.27      0.00
    8    8   26     -4.15      0.00
   10    8   26      3.71      0.00
   12    8   26     -3.30      0.00
   14    8   26      0.33      0.00
   16    8   26     -8.01      0.00
   18    8   26     -4.61      0.00
   20    8   26     -3.56      0.00
   22    8   26      1.12      0.00
   24    8   26      1.37      0.00
   26    8   26      3.71      0.00
   28    8   26     -0.97      0.00
   30    8   26      1.07      0.00
   32    8   26      1.70      0.00
   34    8   26      1.80      0.00
   36    8   26      3.73      0.00
    1    9   26     -7.80      0.00
    3    9   26     -7.46      0.00
    5    9   26     -5.46      0.00
    7    9   26     -4.82      0.00
    9    9   26    -10.04      0.00
   11    9   26     -4.29      0.00
   13    9   26    -10.14      0.00
   15    9   26     -3.72      0.00
   17    9   26     -7.41      0.00
   19    9   26     -5.12      0.00
   21    9   26     -5.96      0.00
   23    9   26     -6.41      0.00
   25    9   26     -1.54      0.00
   27    9   26     -2.46      0.00
   29    9   26      4.84      0.00
   31    9   26      0.66      0.00
   33    9   26      2.28      0.00
   35    9   26     -0.47      0.00
    0   10   26      2.21      0.00
    2   10   26     -4.41      0.00
    4   10   26     -5.61      0.00
    6   10   26     -4.47      0.00
    8   10   26     -1.68      0.00
   10   10   26      4.77      0.00
   12   10   26      5.63      0.00
   14   10   26      2.93      0.00
   16   10   26      5.49      0.00
   18   10   26      5.84      0.00
   20   10   26      5.10      0.00
   22   10   26      3.45      0.00
   24   10   26     -2.87      0.00
   26   10   26     -4.33      0.00
   28   10   26     -1.98      0.00
   30   10   26     -1.15      0.00
   32   10   26      4.48      0.00
    1   11   26     -0.57      0.00
    3   11   26      4.97      0.00
    5   11   26      5.41      0.00
    7   11   26      7.93      0.00
    9   11   26      4.33      0.00
   11   11   26      1.77      0.00
   13   11   26      1.34      0.00
   15   11   26      1.36      0.00
   17   11   26      2.91      0.00
   19   11   26      4.91      0.00
   21   11   26      3.51      0.00
   23   11   26      3.80      0.00
   25   11   26     -3.59      0.00
   27   11   26      0.71      0.00
   29   11   26     -4.00      0.00
   31   11   26      3.90      0.00
    0   12   26      2.46      0.00
    2   12   26      2.95      0.00
    4   12   26     -0.71      0.00
    6   12   26      2.21      0.00
    8   12   26     -0.73      0.00
   10   12   26     -0.33      0.00
   12   12   26     -0.38      0.00
   14   12   26     -6.23      0.00
   16   12   26      0.88      0.00
   18   12   26     -1.99      0.00
   20   12   26      2.70      0.00
   22   12   26      2.06      0.00
   24   12   26      0.82      0.00
   26   12   26      0.40      0.00
   28   12   26      1.56      0.00
    1   13   26     -6.47      0.00
    3   13   26     -8.13      0.00
    5   13   26     -2.40      0.00
    7   13   26    -11.28      0.00
    9   13   26     -5.26      0.00
   11   13   26    -11.63      0.00
   13   13   26     -2.24      0.00
   15   13   26     -4.99      0.00
   17   13   26     -0.40      0.00
   19   13   26     -1.48      0.00
   21   13   26     -0.16      0.00
   23   13   26      0.67      0.00
    0   14   26     -1.12      0.00
    2   14   26      3.67      0.00
    4   14   26      0.97      0.00
    6   14   26     -1.46      0.00
    8   14   26      5.23      0.00
   10   14   26     -0.49      0.00
   12   14   26      0.08      0.00
   14   14   26      0.04      0.00
   16   14   26     -1.07      0.00
   18   14   26      2.61      0.00
   20   14   26      4.26      0.00
    1   15   26     -0.86      0.00
    3   15   26     -1.39      0.00
    5   15   26      0.32      0.00
    7   15   26     -2.71      0.00
    9   15   26     -1.80      0.00
   11   15   26      1.50      0.00
   13   15   26      4.34      0.00
   15   15   26      9.29      0.00
    0   16   26     -2.39      0.00
    2   16   26      0.57      0.00
    4   16   26     -2.45      0.00
    6   16   26      0.33      0.00
    8   16   26      1.47      0.00
    1    1   27      2.89      0.00
    3    1   27      4.12      0.00
    5    1   27     -1.70      0.00
    7    1   27      1.84      0.00
    9    1   27     -4.42      0.00
   11    1   27      1.02      0.00
   13    1   27     -1.86      0.00
   15    1   27     -0.39      0.00
   17    1   27     -3.49      0.00
   19    1   27     -1.12      0.00
   21    1   27     -2.40      0.00
   23    1   27      2.54      0.00
   25    1   27      0.64      0.00
   27    1   27      2.33      0.00
   29    1   27      0.41      0.00
   31    1   27      2.80      0.00
   33    1   27      1.49      0.00
   35    1   27      4.91      0.00
   37    1   27      1.86      0.00
   39    1   27      2.83      0.00
    0    2   27      2.31      0.00
    2    2   27     -0.99      0.00
    4    2   27      3.31      0.00
    6    2   27     -3.63      0.00
    8    2   27      4.17      0.00
   10    2   27     -4.13      0.00
   12    2   27      7.32      0.00
   14    2   27      0.72      0.00
   16    2   27      8.22      0.00
   18    2   27      3.73      0.00
   20    2   27      4.34      0.00
   22    2   27      4.95      0.00
   24    2   27      0.70      0.00
   26    2   27      2.10      0.00
   28    2   27     -1.97      0.00
   30    2   27      0.53      0.00
   32    2   27      0.86      0.00
   34    2   27      1.04      0.00
   36    2   27      1.31      0.00
   38    2   27     -3.12      0.00
    1    3   27     -1.56      0.00
    3    3   27     -4.81      0.00
    5    3   27     -1.49      0.00
    7    3   27     -7.61      0.00
    9    3   27     -1.01      0.00
   11    3   27     -1.18      0.00
   13    3   27     -2.05      0.00
   15    3   27      0.19      0.00
   17    3   27     -7.41      0.00
   19    3   27     -5.22      0.00
   21    3   27     -2.81      0.00
   23    3   27     -0.21      0.00
   25    3   27      3.11      0.00
   27    3   27      2.93      0.00
   29    3   27      0.07      0.00
   31    3   27     -1.19      0.00
   33    3   27     -0.95      0.00
   35    3   27     -2.02      0.00
   37    3   27     -0.29      0.00
   39    3   27     -0.61      0.00
    0    4   27     -6.11      0.00
    2    4   27      0.53      0.00
    4    4   27     -5.04      0.00
    6    4   27     -0.45      0.00
    8    4   27     -3.51      0.00
   10    4   27     -1.06      0.00
   12    4   27      0.71      0.00
   14    4   27      1.44      0.00
   16    4   27      2.35      0.00
   18    4   27     -1.12      0.00
   20    4   27      0.79      0.00
   22    4   27     -3.08      0.00
   24    4   27     -1.32      0.00
   26    4   27     -4.47      0.00
   28    4   27     -6.22      0.00
   30    4   27     -3.48      0.00
   32    4   27     -2.09      0.00
   34    4   27      0.15      0.00
   36    4   27      0.47      0.00
   38    4   27     -1.56      0.00
    1    5   27      0.62      0.00
    3    5   27     -0.41      0.00
    5    5   27     -0.99      0.00
    7    5   27     -4.17      0.00
    9    5   27     -4.40      0.00
   11    5   27     -6.03      0.00
   13    5   27     -0.82      0.00
   15    5   27     -0.88      0.00
   17    5   27      1.18      0.00
   19    5   27      3.49      0.00
   21    5   27     -0.41      0.00
   23    5   27      3.67      0.00
   25    5   27      1.68      0.00
   27    5   27      1.98      0.00
   29    5   27     -0.34      0.00
   31    5   27     -2.41      0.00
   33    5   27     -3.87      0.00
   35    5   27     -0.37      0.00
   37    5   27      2.83      0.00
    0    6   27      7.09      0.00
    2    6   27     -0.02      0.00
    4    6   27      2.28      0.00
    6    6   27     -2.13      0.00
    8    6   27     -2.16      0.00
   10    6   27      1.33      0.00
   12    6   27     -3.34      0.00
   14    6   27      1.34      0.00
   16    6   27     -6.08      0.00
   18    6   27      0.99      0.00
   20    6   27     -2.78      0.00
   22    6   27      6.20      0.00
   24    6   27      1.74      0.00
   26    6   27      3.37      0.00
   28    6   27      0.12      0.00
   30    6   27      0.60      0.00
   32    6   27      1.55      0.00
   34    6   27      1.90      0.00
   36    6   27     -1.50      0.00
    1    7   27    -12.40      0.00
    3    7   27     -5.70      0.00
    5    7   27     -8.51      0.00
    7    7   27     -2.37      0.00
    9    7   27    -10.80      0.00
   11    7   27     -8.08      0.00
   13    7   27    -11.06      0.00
   15    7   27     -5.86      0.00
   17    7   27     -3.43      0.00
   19    7   27     -4.70      0.00
   21    7   27     -3.22      0.00
   23    7   27     -8.70      0.00
   25    7   27     -6.02      0.00
   27    7   27     -4.75      0.00
   29    7   27     -2.78      0.00
   31    7   27     -2.36      0.00
   33    7   27     -3.75      0.00
   35    7   27     -3.49      0.00
    0    8   27      5.33      0.00
    2    8   27     -6.63      0.00
    4    8   27      3.11      0.00
    6    8   27     -2.59      0.00
    8    8   27      3.39      0.00
   10    8   27      1.14      0.00
   12    8   27      5.63      0.00
   14    8   27     -1.28      0.00
   16    8   27      3.33      0.00
   18    8   27     -3.45      0.00
   20    8   27      1.77      0.00
   22    8   27      0.30      0.00
   24    8   27      1.97      0.00
   26    8   27     -1.38      0.00
   28    8   27     -3.93      0.00
   30    8   27     -5.74      0.00
   32    8   27     -3.36      0.00
   34    8   27     -1.97      0.00
    1    9   27      2.43      0.00
    3    9   27      5.28      0.00
    5    9   27      9.17      0.00
    7    9   27      6.16      0.00
    9    9   27      5.78      0.00
   11    9   27      3.62      0.00
   13    9   27      6.09      0.00
   15    9   27      7.69      0.00
   17    9   27      3.92      0.00
   19    9   27      4.25      0.00
   21    9   27      1.64      0.00
   23    9   27      4.95      0.00
   25    9   27      6.65      0.00
   27    9   27      6.22      0.00
   29    9   27      4.56      0.00
   31    9   27      0.57      0.00
    0   10   27     -4.21      0.00
    2   10   27     -0.28      0.00
    4   10   27     -4.43      0.00
    6   10   27     -1.98      0.00
    8   10   27     -2.57      0.00
   10   10   27     -3.88      0.00
   12   10   27     -0.81      0.00
   14   10   27     -4.06      0.00
   16   10   27      2.49      0.00
   18   10   27     -2.74      0.00
   20   10   27      0.12      0.00
   22   10   27     -2.76      0.00
   24   10   27     -0.93      0.00
   26   10   27      2.28      0.00
   28   10   27     -0.97      0.00
   30   10   27      2.01      0.00
    1   11   27     -1.75      0.00
    3   11   27     -2.56      0.00
    5   11   27     -0.27      0.00
    7   11   27     -2.86      0.00
    9   11   27     -8.90      0.00
   11   11   27     -3.59      0.00
   13   11   27     -4.79      0.00
   15   11   27     -4.20      0.00
   17   11   27      0.32      0.00
   19   11   27     -7.15      0.00
   21   11   27      0.95      0.00
   23   11   27     -0.23      0.00
   25   11   27      1.62      0.00
   27   11   27      2.66      0.00
    0   12   27     -4.51      0.00
    2   12   27    -13.55      0.00
    4   12   27     -9.58      0.00
    6   12   27    -19.40      0.00
    8   12   27     -8.84      0.00
   10   12   27    -13.89      0.00
   12   12   27     -4.67      0.00
   14   12   27     -6.65      0.00
   16   12   27     -3.49      0.00
   18   12   27     -2.85      0.00
   20   12   27     -8.18      0.00
   22   12   27     -3.60      0.00
   24   12   27     -6.68      0.00
    1   13   27      1.54      0.00
    3   13   27      3.08      0.00
    5   13   27      2.71      0.00
    7   13   27     -0.30      0.00
    9   13   27      2.85      0.00
   11   13   27     -1.26      0.00
   13   13   27      5.50      0.00
   15   13   27      2.06      0.00
   17   13   27      3.97      0.00
   19   13   27      1.88      0.00
    0   14   27     -2.18      0.00
    2   14   27     -7.58      0.00
    4   14   27     -1.83      0.00
    6   14   27     -0.27      0.00
    8   14   27      1.76      0.00
   10   14   27      2.94      0.00
   12   14   27     -0.23      0.00
   14   14   27     -0.42      0.00
    1   15   27      1.15      0.00
    3   15   27      4.29      0.00
    5   15   27      1.21      0.00
    7   15   27      0.18      0.00
    0    0   28    -18.32      0.00
    2    0   28     -6.79      0.00
    4    0   28    -13.37      0.00
    6    0   28     -1.18      0.00
    8    0   28     -3.89      0.00
   10    0   28     -1.24      0.00
   12    0   28     -3.57      0.00
   14    0   28     -4.42      0.00
   16    0   28     -7.30      0.00
   18    0   28     -3.00      0.00
   20    0   28     -4.69      0.00
   22    0   28     -4.60      0.00
   24    0   28     -2.03      0.00
   26    0   28     -3.21      0.00
   28    0   28     -0.23      0.00
   30    0   28      0.89      0.00
   32    0   28     -1.86      0.00
   34    0   28     -2.69      0.00
   36    0   28     -1.98      0.00
   38    0   28     -1.18      0.00
    1    1   28     -8.92      0.00
    3    1   28    -10.24      0.00
    5    1   28     -7.34      0.00
    7    1   28    -10.06      0.00
    9    1   28     -4.48      0.00
   11    1   28     -9.54      0.00
   13    1   28     -1.04      0.00
   15    1   28     -7.46      0.00
   17    1   28      1.63      0.00
   19    1   28     -3.83      0.00
   21    1   28     -0.86      0.00
   23    1   28     -4.09      0.00
   25    1   28     -5.02      0.00
   27    1   28     -5.64      0.00
   29    1   28     -7.68      0.00
   31    1   28     -6.02      0.00
   33    1   28     -7.92      0.00
   35    1   28     -2.27      0.00
   37    1   28     -2.60      0.00
    0    2   28     10.29      0.00
    2    2   28      4.11      0.00
    4    2   28     12.36      0.00
    6    2   28      6.92      0.00
    8    2   28     10.56      0.00
   10    2   28      4.23      0.00
   12    2   28      5.42      0.00
   14    2   28      1.00      0.00
   16    2   28      9.16      0.00
   18    2   28      4.39      0.00
   20    2   28      9.60      0.00
   22    2   28      3.32      0.00
   24    2   28      1.40      0.00
   26    2   28     -0.71      0.00
   28    2   28      1.14      0.00
   30    2   28      0.11      0.00
   32    2   28      0.75      0.00
   34    2   28     -0.31      0.00
   36    2   28     -3.12      0.00
    1    3   28     14.48      0.00
    3    3   28     16.25      0.00
    5    3   28      9.93      0.00
    7    3   28     14.61      0.00
    9    3   28      6.79      0.00
   11    3   28      9.19      0.00
   13    3   28      3.31      0.00
   15    3   28      4.76      0.00
   17    3   28      5.83      0.00
   19    3   28      5.86      0.00
   21    3   28      7.93      0.00
   23    3   28      5.48      0.00
   25    3   28      6.13      0.00
   27    3   28      7.28      0.00
   29    3   28      5.18      0.00
   31    3   28      7.39      0.00
   33    3   28      3.45      0.00
   35    3   28      4.94      0.00
   37    3   28      3.22      0.00
    0    4   28     -3.15      0.00
    2    4   28    -11.32      0.00
    4    4   28     -2.00      0.00
    6    4   28     -7.69      0.00
    8    4   28     -3.30      0.00
   10    4   28     -4.61      0.00
   12    4   28     -6.08      0.00
   14    4   28     -1.07      0.00
   16    4   28     -4.80      0.00
   18    4   28     -1.19      0.00
   20    4   28     -2.50      0.00
   22    4   28     -5.88      0.00
   24    4   28     -4.28      0.00
   26    4   28     -8.26      0.00
   28    4   28     -3.56      0.00
   30    4   28     -3.96      0.00
   32    4   28      1.43      0.00
   34    4   28     -3.98      0.00
   36    4   28     -0.52      0.00
    1    5   28     -9.98      0.00
    3    5   28    -10.83      0.00
    5    5   28     -9.99      0.00
    7    5   28    -10.89      0.00
    9    5   28     -6.92      0.00
   11    5   28     -7.15      0.00
   13    5   28     -5.50      0.00
   15    5   28     -2.88      0.00
   17    5   28     -7.10      0.00
   19    5   28     -1.52      0.00
   21    5   28     -7.45      0.00
   23    5   28     -1.61      0.00
   25    5   28     -2.72      0.00
   27    5   28     -1.13      0.00
   29    5   28     -2.18      0.00
   31    5   28     -5.63      0.00
   33    5   28     -4.81      0.00
   35    5   28     -4.30      0.00
    0    6   28      6.13      0.00
    2    6   28      4.14      0.00
    4    6   28      4.13      0.00
    6    6   28      1.62      0.00
    8    6   28      3.19      0.00
   10    6   28      1.52      0.00
   12    6   28      5.56      0.00
   14    6   28      2.20      0.00
   16    6   28      1.73      0.00
   18    6   28     -0.52      0.00
   20    6   28     -3.04      0.00
   22    6   28      0.63      0.00
   24    6   28     -2.73      0.00
   26    6   28      1.16      0.00
   28    6   28     -2.58      0.00
   30    6   28      1.75      0.00
   32    6   28      1.41      0.00
   34    6   28      1.45      0.00
    1    7   28      7.43      0.00
    3    7   28      4.13      0.00
    5    7   28     10.75      0.00
    7    7   28      5.48      0.00
    9    7   28      8.80      0.00
   11    7   28      5.99      0.00
   13    7   28      5.50      0.00
   15    7   28      5.25      0.00
   17    7   28      6.49      0.00
   19    7   28      7.40      0.00
   21    7   28      5.49      0.00
   23    7   28      9.93      0.00
   25    7   28      5.02      0.00
   27    7   28     12.02      0.00
   29    7   28      4.67      0.00
   31    7   28      4.80      0.00
   33    7   28      0.07      0.00
    0    8   28      4.72      0.00
    2    8   28      6.76      0.00
    4    8   28      0.82      0.00
    6    8   28     -0.29      0.00
    8    8   28     -1.67      0.00
   10    8   28      1.65      0.00
   12    8   28     -3.36      0.00
   14    8   28      1.07      0.00
   16    8   28     -3.77      0.00
   18    8   28      0.66      0.00
   20    8   28      1.75      0.00
   22    8   28      3.48      0.00
   24    8   28      2.52      0.00
   26    8   28      0.56      0.00
   28    8   28     -0.29      0.00
   30    8   28     -2.08      0.00
    1    9   28      3.93      0.00
    3    9   28      1.47      0.00
    5    9   28      1.34      0.00
    7    9   28      0.10      0.00
    9    9   28     -2.21      0.00
   11    9   28      0.67      0.00
   13    9   28     -8.17      0.00
   15    9   28     -6.07      0.00
   17    9   28    -11.17      0.00
   19    9   28     -8.77      0.00
   21    9   28     -4.55      0.00
   23    9   28     -5.19      0.00
   25    9   28      0.54      0.00
   27    9   28      0.35      0.00
   29    9   28      4.91      0.00
    0   10   28      5.16      0.00
    2   10   28     -0.84      0.00
    4   10   28      4.92      0.00
    6   10   28      5.57      0.00
    8   10   28     10.43      0.00
   10   10   28      8.79      0.00
   12   10   28     11.21      0.00
   14   10   28      4.54      0.00
   16   10   28      7.59      0.00
   18   10   28      6.14      0.00
   20   10   28      3.94      0.00
   22   10   28      1.78      0.00
   24   10   28     -2.15      0.00
   26   10   28     -4.18      0.00
    1   11   28      1.45      0.00
    3   11   28      5.09      0.00
    5   11   28      4.06      0.00
    7   11   28      7.58      0.00
    9   11   28      6.24      0.00
   11   11   28      5.34      0.00
   13   11   28      3.83      0.00
   15   11   28     -1.92      0.00
   17   11   28     -4.01      0.00
   19   11   28     -1.74      0.00
   21   11   28     -1.51      0.00
   23   11   28      4.42      0.00
   25   11   28     -3.43      0.00
    0   12   28     -2.71      0.00
    2   12   28     -1.93      0.00
    4   12   28     -4.13      0.00
    6   12   28     -0.72      0.00
    8   12   28     -1.08      0.00
   10   12   28      0.36      0.00
   12   12   28     -0.12      0.00
   14   12   28     -4.08      0.00
   16   12   28     -0.41      0.00
   18   12   28     -3.81      0.00
   20   12   28     -2.83      0.00
   22   12   28     -3.26      0.00
    1   13   28      1.56      0.00
    3   13   28     -3.04      0.00
    5   13   28      2.80      0.00
    7   13   28     -8.56      0.00
    9   13   28     -3.17      0.00
   11   13   28    -10.14      0.00
   13   13   28     -5.71      0.00
   15   13   28    -10.37      0.00
    0   14   28     -4.90      0.00
    2   14   28     -5.21      0.00
    4   14   28     -4.81      0.00
    6   14   28     -8.42      0.00
    1    1   29      6.88      0.00
    3    1   29      5.81      0.00
    5    1   29      0.23      0.00
    7    1   29      1.99      0.00
    9    1   29     -3.32      0.00
   11    1   29      2.04      0.00
   13    1   29     -1.22      0.00
   15    1   29      0.45      0.00
   17    1   29     -2.84      0.00
   19    1   29     -3.41      0.00
   21    1   29     -2.17      0.00
   23    1   29      0.73      0.00
   25    1   29      4.45      0.00
   27    1   29      2.05      0.00
   29    1   29      2.48      0.00
   31    1   29     -1.08      0.00
   33    1   29      1.69      0.00
   35    1   29      0.64      0.00
    0    2   29      5.11      0.00
    2    2   29      0.13      0.00
    4    2   29      4.51      0.00
    6    2   29     -1.55      0.00
    8    2   29      4.17      0.00
   10    2   29     -3.46      0.00
   12    2   29      5.46      0.00
   14    2   29     -2.58      0.00
   16    2   29      1.70      0.00
   18    2   29     -2.75      0.00
   20    2   29     -2.75      0.00
   22    2   29     -1.29      0.00
   24    2   29     -1.27      0.00
   26    2   29      1.76      0.00
   28    2   29      1.42      0.00
   30    2   29      3.09      0.00
   32    2   29      2.52      0.00
   34    2   29     -0.76      0.00
    1    3   29     -3.55      0.00
    3    3   29     -5.60      0.00
    5    3   29     -4.58      0.00
    7    3   29     -5.87      0.00
    9    3   29      0.78      0.00
   11    3   29      0.01      0.00
   13    3   29      2.01      0.00
   15    3   29      1.66      0.00
   17    3   29     -0.52      0.00
   19    3   29     -0.49      0.00
   21    3   29     -0.21      0.00
   23    3   29      0.54      0.00
   25    3   29      2.24      0.00
   27    3   29      0.39      0.00
   29    3   29     -0.93      0.00
   31    3   29     -5.19      0.00
   33    3   29     -2.35      0.00
    0    4   29     -2.95      0.00
    2    4   29      3.02      0.00
    4    4   29      1.84      0.00
    6    4   29      3.05      0.00
    8    4   29      4.86      0.00
   10    4   29      1.51      0.00
   12    4   29      2.80      0.00
   14    4   29     -0.19      0.00
   16    4   29      2.65      0.00
   18    4   29     -2.09      0.00
   20    4   29      1.73      0.00
   22    4   29     -3.47      0.00
   24    4   29     -3.33      0.00
   26    4   29     -4.82      0.00
   28    4   29     -4.31      0.00
   30    4   29     -1.95      0.00
   32    4   29     -1.44      0.00
   34    4   29     -0.40      0.00
    1    5   29     -0.53      0.00
    3    5   29     -1.33      0.00
    5    5   29     -3.45      0.00
    7    5   29     -1.52      0.00
    9    5   29     -3.22      0.00
   11    5   29     -2.93      0.00
   13    5   29     -4.16      0.00
   15    5   29     -2.02      0.00
   17    5   29     -0.35      0.00
   19    5   29      2.46      0.00
   21    5   29     -0.84      0.00
   23    5   29     -3.29      0.00
   25    5   29     -4.67      0.00
   27    5   29     -4.87      0.00
   29    5   29     -5.27      0.00
   31    5   29     -1.15      0.00
   33    5   29     -3.71      0.00
    0    6   29      2.91      0.00
    2    6   29      1.33      0.00
    4    6   29      3.04      0.00
    6    6   29      3.51      0.00
    8    6   29     -0.10      0.00
   10    6   29      0.69      0.00
   12    6   29     -2.40      0.00
   14    6   29      2.05      0.00
   16    6   29     -1.02      0.00
   18    6   29      5.38      0.00
   20    6   29      1.33      0.00
   22    6   29      3.33      0.00
   24    6   29      0.77      0.00
   26    6   29     -0.71      0.00
   28    6   29      0.80      0.00
   30    6   29      3.35      0.00
   32    6   29      3.94      0.00
    1    7   29     -4.54      0.00
    3    7   29     -3.48      0.00
    5    7   29     -6.48      0.00
    7    7   29     -3.61      0.00
    9    7   29     -6.63      0.00
   11    7   29     -3.68      0.00
   13    7   29     -6.24      0.00
   15    7   29     -1.63      0.00
   17    7   29     -1.05      0.00
   19    7   29     -1.72      0.00
   21    7   29     -0.15      0.00
   23    7   29     -4.74      0.00
   25    7   29     -1.73      0.00
   27    7   29     -3.14      0.00
   29    7   29     -3.13      0.00
    0    8   29      0.52      0.00
    2    8   29     -5.74      0.00
    4    8   29     -0.63      0.00
    6    8   29     -3.23      0.00
    8    8   29     -3.00      0.00
   10    8   29     -4.13      0.00
   12    8   29      2.54      0.00
   14    8   29     -3.02      0.00
   16    8   29      8.00      0.00
   18    8   29     -2.28      0.00
   20    8   29      1.75      0.00
   22    8   29     -1.18      0.00
   24    8   29     -5.65      0.00
   26    8   29     -3.65      0.00
   28    8   29     -9.22      0.00
    1    9   29      4.46      0.00
    3    9   29      5.59      0.00
    5    9   29      4.97      0.00
    7    9   29      6.42      0.00
    9    9   29      5.32      0.00
   11    9   29      4.54      0.00
   13    9   29      4.10      0.00
   15    9   29      2.98      0.00
   17    9   29      2.51      0.00
   19    9   29      3.23      0.00
   21    9   29      1.97      0.00
   23    9   29      5.08      0.00
   25    9   29      4.95      0.00
   27    9   29      4.50      0.00
    0   10   29     -2.01      0.00
    2   10   29     -1.02      0.00
    4   10   29      0.90      0.00
    6   10   29     -0.13      0.00
    8   10   29      2.64      0.00
   10   10   29     -2.39      0.00
   12   10   29      3.36      0.00
   14   10   29      1.48      0.00
   16   10   29     10.29      0.00
   18   10   29      5.15      0.00
   20   10   29      7.07      0.00
   22   10   29     -0.02      0.00
   24   10   29      1.04      0.00
    1   11   29      0.61      0.00
    3   11   29     -0.97      0.00
    5   11   29     -3.13      0.00
    7   11   29     -2.30      0.00
    9   11   29     -6.31      0.00
   11   11   29     -0.55      0.00
   13   11   29     -2.44      0.00
   15   11   29     -2.55      0.00
   17   11   29      0.77      0.00
   19   11   29     -3.14      0.00
   21   11   29      3.32      0.00
    0   12   29      2.15      0.00
    2   12   29     -3.39      0.00
    4   12   29      0.00      0.00
    6   12   29     -5.47      0.00
    8   12   29     -0.69      0.00
   10   12   29     -6.10      0.00
   12   12   29      1.00      0.00
   14   12   29     -1.36      0.00
   16   12   29      3.95      0.00
    1   13   29     -6.87      0.00
    3   13   29     -4.80      0.00
    5   13   29     -4.54      0.00
    0    0   30    -14.48      0.00
    2    0   30     -1.11      0.00
    4    0   30     -8.84      0.00
    6    0   30      4.56      0.00
    8    0   30     -0.24      0.00
   10    0   30      3.19      0.00
   12    0   30     -1.13      0.00
   14    0   30     -5.79      0.00
   16    0   30     -4.60      0.00
   18    0   30     -5.41      0.00
   20    0   30     -0.83      0.00
   22    0   30     -1.89      0.00
   24    0   30     -2.66      0.00
   26    0   30     -1.91      0.00
   28    0   30     -2.26      0.00
   30    0   30      1.43      0.00
   32    0   30     -1.98      0.00
    1    1   30     -8.74      0.00
    3    1   30     -9.55      0.00
    5    1   30     -5.63      0.00
    7    1   30     -6.95      0.00
    9    1   30     -4.64      0.00
   11    1   30     -8.19      0.00
   13    1   30     -4.59      0.00
   15    1   30     -9.23      0.00
   17    1   30     -4.89      0.00
   19    1   30     -5.26      0.00
   21    1   30     -5.43      0.00
   23    1   30     -4.05      0.00
   25    1   30     -5.37      0.00
   27    1   30     -5.56      0.00
   29    1   30     -5.69      0.00
   31    1   30     -2.43      0.00
    0    2   30     10.73      0.00
    2    2   30     -0.91      0.00
    4    2   30     13.69      0.00
    6    2   30      3.86      0.00
    8    2   30     12.14      0.00
   10    2   30      1.56      0.00
   12    2   30      7.63      0.00
   14    2   30      0.12      0.00
   16    2   30      8.45      0.00
   18    2   30      3.50      0.00
   20    2   30     10.17      0.00
   22    2   30      1.74      0.00
   24    2   30      3.79      0.00
   26    2   30     -4.46      0.00
   28    2   30      1.49      0.00
   30    2   30     -0.58      0.00
   32    2   30      2.05      0.00
    1    3   30      9.33      0.00
    3    3   30      9.88      0.00
    5    3   30      5.98      0.00
    7    3   30      7.08      0.00
    9    3   30      6.04      0.00
   11    3   30      6.04      0.00
   13    3   30      7.40      0.00
   15    3   30      4.61      0.00
   17    3   30      7.91      0.00
   19    3   30      2.99      0.00
   21    3   30      9.57      0.00
   23    3   30      7.21      0.00
   25    3   30      9.89      0.00
   27    3   30      7.91      0.00
   29    3   30      4.24      0.00
   31    3   30      2.37      0.00
    0    4   30     -5.76      0.00
    2    4   30     -0.35      0.00
    4    4   30     -4.56      0.00
    6    4   30     -2.79      0.00
    8    4   30     -7.16      0.00
   10    4   30     -3.01      0.00
   12    4   30     -4.40      0.00
   14    4   30      2.52      0.00
   16    4   30     -3.83      0.00
   18    4   30     -2.14      0.00
   20    4   30     -5.13      0.00
   22    4   30     -3.01      0.00
   24    4   30     -1.65      0.00
   26    4   30     -0.64      0.00
   28    4   30     -0.85      0.00
   30    4   30      0.16      0.00
    1    5   30     -8.94      0.00
    3    5   30    -10.65      0.00
    5    5   30     -9.92      0.00
    7    5   30    -11.30      0.00
    9    5   30     -3.46      0.00
   11    5   30     -5.22      0.00
   13    5   30     -0.80      0.00
   15    5   30     -1.87      0.00
   17    5   30     -7.47      0.00
   19    5   30     -2.46      0.00
   21    5   30     -9.46      0.00
   23    5   30     -1.00      0.00
   25    5   30     -3.00      0.00
   27    5   30     -1.28      0.00
   29    5   30     -2.46      0.00
    0    6   30      2.40      0.00
    2    6   30     -2.10      0.00
    4    6   30      5.05      0.00
    6    6   30      0.96      0.00
    8    6   30      4.75      0.00
   10    6   30      2.87      0.00
   12    6   30      6.92      0.00
   14    6   30      5.48      0.00
   16    6   30      5.19      0.00
   18    6   30      0.66      0.00
   20    6   30      0.96      0.00
   22    6   30      1.42      0.00
   24    6   30     -1.30      0.00
   26    6   30      1.78      0.00
   28    6   30     -4.81      0.00
    1    7   30      8.85      0.00
    3    7   30      4.36      0.00
    5    7   30      6.84      0.00
    7    7   30      5.14      0.00
    9    7   30      4.55      0.00
   11    7   30      8.42      0.00
   13    7   30      4.17      0.00
   15    7   30      5.87      0.00
   17    7   30      6.82      0.00
   19    7   30      6.21      0.00
   21    7   30      6.70      0.00
   23    7   30      7.86      0.00
   25    7   30      4.00      0.00
   27    7   30      8.02      0.00
    0    8   30     -0.97      0.00
    2    8   30     -0.66      0.00
    4    8   30     -0.09      0.00
    6    8   30     -1.84      0.00
    8    8   30     -3.64      0.00
   10    8   30     -3.70      0.00
   12    8   30     -3.56      0.00
   14    8   30     -0.02      0.00
   16    8   30     -0.85      0.00
   18    8   30      1.01      0.00
   20    8   30      1.04      0.00
   22    8   30      0.86      0.00
   24    8   30      0.59      0.00
    1    9   30      4.89      0.00
    3    9   30      1.81      0.00
    5    9   30      1.56      0.00
    7    9   30     -2.24      0.00
    9    9   30     -2.42      0.00
   11    9   30     -2.00      0.00
   13    9   30     -6.37      0.00
   15    9   30     -4.03      0.00
   17    9   30     -5.70      0.00
   19    9   30     -4.86      0.00
   21    9   30      0.37      0.00
   23    9   30     -0.83      0.00
    0   10   30      7.83      0.00
    2   10   30      1.12      0.00
    4   10   30     10.07      0.00
    6   10   30      4.55      0.00
    8   10   30      9.55      0.00
   10   10   30      2.96      0.00
   12   10   30      8.13      0.00
   14   10   30      3.32      0.00
   16   10   30      4.79      0.00
   18   10   30      2.93      0.00
   20   10   30      0.15      0.00
    1   11   30      5.12      0.00
    3   11   30      6.36      0.00
    5   11   30      6.03      0.00
    7   11   30      9.48      0.00
    9   11   30      9.76      0.00
   11   11   30      8.26      0.00
   13   11   30      5.19      0.00
   15   11   30     -2.43      0.00
   17   11   30     -4.32      0.00
    0   12   30     -2.74      0.00
    2   12   30     -1.64      0.00
    1    1   31      2.91      0.00
    3    1   31      2.37      0.00
    5    1   31      0.44      0.00
    7    1   31      0.75      0.00
    9    1   31     -0.32      0.00
   11    1   31      3.09      0.00
   13    1   31      5.29      0.00
   15    1   31      5.85      0.00
   17    1   31      6.64      0.00
   19    1   31     -0.77      0.00
   21    1   31      1.82      0.00
   23    1   31     -1.83      0.00
   25    1   31      3.66      0.00
   27    1   31      0.45      0.00
   29    1   31      1.35      0.00
    0    2   31      4.42      0.00
    2    2   31      1.35      0.00
    4    2   31      6.15      0.00
    6    2   31      2.71      0.00
    8    2   31      9.21      0.00
   10    2   31     -0.49      0.00
   12    2   31      6.07      0.00
   14    2   31     -6.36      0.00
   16    2   31     -0.13      0.00
   18    2   31     -5.93      0.00
   20    2   31     -0.75      0.00
   22    2   31     -2.55      0.00
   24    2   31      1.23      0.00
   26    2   31      2.12      0.00
   28    2   31      4.19      0.00
    1    3   31     -1.71      0.00
    3    3   31     -2.58      0.00
    5    3   31     -1.23      0.00
    7    3   31      0.11      0.00
    9    3   31      2.07      0.00
   11    3   31      0.83      0.00
   13    3   31      0.19      0.00
   15    3   31     -0.31      0.00
   17    3   31     -0.23      0.00
   19    3   31      3.06      0.00
   21    3   31     -0.10      0.00
   23    3   31      2.43      0.00
   25    3   31      0.14      0.00
   27    3   31     -1.39      0.00
   29    3   31     -1.28      0.00
    0    4   31     -3.47      0.00
    2    4   31     -3.69      0.00
    4    4   31      4.77      0.00
    6    4   31      2.15      0.00
    8    4   31      9.13      0.00
   10    4   31      0.59      0.00
   12    4   31      1.37      0.00
   14    4   31     -2.18      0.00
   16    4   31      1.75      0.00
   18    4   31      2.10      0.00
   20    4   31      5.61      0.00
   22    4   31      1.61      0.00
   24    4   31     -0.01      0.00
   26    4   31     -3.15      0.00
   28    4   31     -1.04      0.00
    1    5   31     -1.56      0.00
    3    5   31      0.59      0.00
    5    5   31     -3.81      0.00
    7    5   31      0.60      0.00
    9    5   31     -3.12      0.00
   11    5   31     -4.33      0.00
   13    5   31     -8.65      0.00
   15    5   31     -5.89      0.00
   17    5   31     -5.20      0.00
   19    5   31     -2.86      0.00
   21    5   31     -3.04      0.00
   23    5   31     -7.23      0.00
   25    5   31     -5.04      0.00
   27    5   31     -4.36      0.00
    0    6   31     -6.44      0.00
    2    6   31      1.52      0.00
    4    6   31     -3.38      0.00
    6    6   31      6.33      0.00
    8    6   31     -0.99      0.00
   10    6   31      5.39      0.00
   12    6   31      1.61      0.00
   14    6   31      5.99      0.00
   16    6   31      1.46      0.00
   18    6   31      3.64      0.00
   20    6   31     -1.65      0.00
   22    6   31     -0.52      0.00
   24    6   31     -1.92      0.00
    1    7   31      3.23      0.00
    3    7   31      0.16      0.00
    5    7   31     -1.14      0.00
    7    7   31     -0.56      0.00
    9    7   31      0.85      0.00
   11    7   31      1.58      0.00
   13    7   31     -1.46      0.00
   15    7   31     -1.22      0.00
   17    7   31     -2.47      0.00
   19    7   31     -1.72      0.00
   21    7   31     -1.58      0.00
   23    7   31     -2.71      0.00
    0    8   31      3.92      0.00
    2    8   31      5.36      0.00
    4    8   31      4.26      0.00
    6    8   31      9.16      0.00
    8    8   31      4.81      0.00
   10    8   31      8.36      0.00
   12    8   31      9.18      0.00
   14    8   31      5.19      0.00
   16    8   31     11.36      0.00
   18    8   31      4.37      0.00
   20    8   31      4.95      0.00
    1    9   31      4.58      0.00
    3    9   31      3.91      0.00
    5    9   31     -0.07      0.00
    7    9   31      2.60      0.00
    9    9   31     -0.02      0.00
   11    9   31      0.44      0.00
   13    9   31     -2.15      0.00
   15    9   31     -2.32      0.00
   17    9   31     -0.31      0.00
   19    9   31      0.89      0.00
    0   10   31      4.50      0.00
    2   10   31      1.23      0.00
    4   10   31      4.39      0.00
    6   10   31     -1.39      0.00
    8   10   31      2.27      0.00
   10   10   31     -3.60      0.00
   12   10   31      4.57      0.00
   14   10   31      1.41      0.00
    9   11   31     -4.95      0.00
    0    0   32     -8.63      0.00
    2    0   32     -3.13      0.00
    4    0   32     -9.98      0.00
    6    0   32     -6.52      0.00
    8    0   32     -5.95      0.00
   10    0   32     -4.03      0.00
   12    0   32     -1.27      0.00
   14    0   32     -6.19      0.00
   16    0   32      1.52      0.00
   18    0   32     -0.68      0.00
   20    0   32      5.26      0.00
   22    0   32      5.20      0.00
   24    0   32     -2.61      0.00
   26    0   32     -0.85      0.00
    1    1   32     -3.26      0.00
    3    1   32     -1.58      0.00
    5    1   32     -3.41      0.00
    7    1   32     -1.22      0.00
    9    1   32     -4.94      0.00
   11    1   32     -3.40      0.00
   13    1   32     -3.60      0.00
   15    1   32     -2.80      0.00
   17    1   32     -2.47      0.00
   19    1   32     -2.87      0.00
   21    1   32     -3.53      0.00
   23    1   32     -4.49      0.00
   25    1   32     -3.72      0.00
    0    2   32     16.76      0.00
    2    2   32      2.72      0.00
    4    2   32     11.57      0.00
    6    2   32     -0.78      0.00
    8    2   32      5.37      0.00
   10    2   32     -2.91      0.00
   12    2   32      4.50      0.00
   14    2   32     -2.53      0.00
   16    2   32      2.92      0.00
   18    2   32     -2.31      0.00
   20    2   32      2.41      0.00
   22    2   32     -4.67      0.00
   24    2   32      1.48      0.00
   26    2   32     -4.99      0.00
    1    3   32      8.08      0.00
    3    3   32      4.78      0.00
    5    3   32      3.04      0.00
    7    3   32     -1.75      0.00
    9    3   32      4.88      0.00
   11    3   32      1.81      0.00
   13    3   32     12.51      0.00
   15    3   32      4.12      0.00
   17    3   32      9.81      0.00
   19    3   32     -0.78      0.00
   21    3   32      5.78      0.00
   23    3   32      2.36      0.00
   25    3   32      7.38      0.00
    0    4   32     -9.84      0.00
    2    4   32      2.44      0.00
    4    4   32     -9.20      0.00
    6    4   32     -2.26      0.00
    8    4   32     -8.59      0.00
   10    4   32     -2.85      0.00
   12    4   32     -4.90      0.00
   14    4   32     -1.08      0.00
   16    4   32     -5.14      0.00
   18    4   32     -4.99      0.00
   20    4   32     -4.91      0.00
   22    4   32     -2.28      0.00
   24    4   32      0.29      0.00
    1    5   32      0.65      0.00
    3    5   32     -2.15      0.00
    5    5   32     -3.89      0.00
    7    5   32     -5.82      0.00
    9    5   32     -1.66      0.00
   11    5   32     -2.78      0.00
   13    5   32     -1.35      0.00
   15    5   32     -1.44      0.00
   17    5   32     -5.89      0.00
   19    5   32     -0.33      0.00
   21    5   32     -6.15      0.00
   23    5   32      1.13      0.00
    0    6   32     -2.47      0.00
    2    6   32    -11.14      0.00
    4    6   32      3.67      0.00
    6    6   32     -4.60      0.00
    8    6   32      5.64      0.00
   10    6   32     -2.21      0.00
   12    6   32      2.68      0.00
   14    6   32     -1.62      0.00
   16    6   32     -0.43      0.00
   18    6   32     -5.72      0.00
   20    6   32     -1.32      0.00
    1    7   32      7.82      0.00
    3    7   32      5.09      0.00
    5    7   32      4.63      0.00
    7    7   32      5.34      0.00
    9    7   32      2.11      0.00
   11    7   32      8.75      0.00
   13    7   32      4.38      0.00
   15    7   32      9.19      0.00
   17    7   32      9.51      0.00
   19    7   32      7.57      0.00
    0    8   32      0.80      0.00
    2    8   32      2.00      0.00
    4    8   32      4.35      0.00
    6    8   32      5.51      0.00
    8    8   32      2.64      0.00
   10    8   32      1.38      0.00
   12    8   32      2.56      0.00
   14    8   32      2.84      0.00
   16    8   32      2.88      0.00
    1    9   32      0.20      0.00
    3    9   32     -2.59      0.00
    5    9   32     -1.91      0.00
    7    9   32     -4.12      0.00
    9    9   32     -2.92      0.00
   11    9   32     -0.98      0.00
   13    9   32     -2.27      0.00
    6   10   32      3.55      0.00
    1    1   33     -4.06      0.00
    3    1   33     -0.85      0.00
    5    1   33      2.35      0.00
    7    1   33      2.97      0.00
    9    1   33      2.00      0.00
   11    1   33      1.63      0.00
   13    1   33      4.07      0.00
   15    1   33      2.51      0.00
   17    1   33      5.85      0.00
   19    1   33     -2.02      0.00
   21    1   33      2.49      0.00
    0    2   33      1.13      0.00
    2    2   33     -1.78      0.00
    4    2   33      3.76      0.00
    6    2   33     -1.34      0.00
    8    2   33      8.75      0.00
   10    2   33     -1.66      0.00
   12    2   33      7.21      0.00
   14    2   33     -5.20      0.00
   16    2   33      3.55      0.00
   18    2   33     -3.59      0.00
   20    2   33      4.15      0.00
   22    2   33     -0.78      0.00
    1    3   33     -0.50      0.00
    3    3   33      2.65      0.00
    5    3   33      5.08      0.00
    7    3   33      8.75      0.00
    9    3   33      3.94      0.00
   11    3   33      4.57      0.00
   13    3   33     -0.76      0.00
   15    3   33      0.79      0.00
   17    3   33     -1.45      0.00
   19    3   33      3.40      0.00
   21    3   33      0.16      0.00
    0    4   33      1.56      0.00
    2    4   33     -1.44      0.00
    4    4   33      6.43      0.00
    6    4   33      3.54      0.00
    8    4   33      6.62      0.00
   10    4   33      0.88      0.00
   12    4   33      2.16      0.00
   14    4   33      3.05      0.00
   16    4   33      5.29      0.00
   18    4   33      8.41      0.00
   20    4   33      6.53      0.00
    1    5   33      0.67      0.00
    3    5   33      3.14      0.00
    5    5   33     -2.57      0.00
    7    5   33     -0.90      0.00
    9    5   33     -3.30      0.00
   11    5   33     -5.47      0.00
   13    5   33     -5.71      0.00
   15    5   33     -5.04      0.00
   17    5   33     -4.99      0.00
    0    6   33    -13.83      0.00
    2    6   33      1.01      0.00
    4    6   33    -10.43      0.00
    6    6   33      3.60      0.00
    8    6   33     -7.15      0.00
   10    6   33      2.41      0.00
   12    6   33     -4.14      0.00
   14    6   33      0.09      0.00
   16    6   33     -4.32      0.00
    1    7   33      2.31      0.00
    3    7   33     -0.06      0.00
    5    7   33     -0.94      0.00
    7    7   33      0.06      0.00
    9    7   33      1.64      0.00
   11    7   33      2.20      0.00
   13    7   33     -0.58      0.00
    0    8   33     -2.11      0.00
    2    8   33      2.72      0.00
    4    8   33      2.92      0.00
    6    8   33     12.30      0.00
    8    8   33      7.20      0.00
    0    0   34     -4.43      0.00
    2    0   34     -7.31      0.00
    4    0   34     -9.73      0.00
    6    0   34    -12.58      0.00
    8    0   34     -7.59      0.00
   10    0   34     -7.94      0.00
   12    0   34     -2.52      0.00
   14    0   34     -7.01      0.00
   16    0   34      0.21      0.00
    1    1   34     -5.55      0.00
    3    1   34     -1.88      0.00
    5    1   34     -6.26      0.00
    7    1   34     -1.70      0.00
    9    1   34     -5.14      0.00
   11    1   34     -1.40      0.00
   13    1   34     -0.13      0.00
   15    1   34      3.65      0.00
   17    1   34      4.50      0.00
    0    2   34     14.89      0.00
    2    2   34      6.55      0.00
    4    2   34      5.59      0.00
    6    2   34     -1.22      0.00
    8    2   34      1.80      0.00
   10    2   34      0.74      0.00
   12    2   34      5.04      0.00
   14    2   34      0.83      0.00
   16    2   34      3.57      0.00
    1    3   34      5.28      0.00
    3    3   34      1.46      0.00
    5    3   34      2.05      0.00
    7    3   34     -3.10      0.00
    9    3   34      4.19      0.00
   11    3   34     -0.68      0.00
   13    3   34      9.80      0.00
   15    3   34      1.18      0.00
    0    4   34    -10.24      0.00
    2    4   34     -5.03      0.00
    4    4   34    -11.03      0.00
    6    4   34     -7.76      0.00
    8    4   34     -6.50      0.00
   10    4   34     -3.85      0.00
   12    4   34     -2.11      0.00
   14    4   34     -1.85      0.00
    1    5   34      3.64      0.00
    3    5   34      2.30      0.00
    5    5   34     -0.70      0.00
    7    5   34      0.65      0.00
    9    5   34     -1.49      0.00
   11    5   34      1.11      0.00
    0    6   34      1.99      0.00
    2    6   34     -6.28      0.00
    4    6   34      4.26      0.00
    6    6   34     -5.87      0.00
    8    6   34      3.65      0.00
    1    1   35    -11.56      0.00
    3    1   35     -6.35      0.00
    5    1   35     -2.47      0.00
    7    1   35      0.86      0.00
    9    1   35     -2.16      0.00
    0    2   35      3.12      0.00
    2    2   35      0.32      0.00
    4    2   35      4.44      0.00
    6    2   35     -2.41      0.00
    8    2   35      5.68      0.00
    1    3   35     -6.49      0.00
    3    3   35     -1.37      0.00
    5    3   35      1.09      0.00
    2    0    0    561.79      0.00
    6    0    0    -98.73      0.00
   12    0    0    516.56      0.00
   18    0    0    -48.45      0.00
   20    0    0     43.38      0.00
   22    0    0     57.39      0.00
   24    0    0    107.04      0.00
   26    0    0     55.37      0.00
   62    0    0      5.33      0.00
    0    2    0    307.72      0.00
    8    2    0    113.04      0.00
   62    2    0      1.77      0.00
    0    4    0    -48.17      0.00
    8    4    0    219.79      0.00
    0    6    0     63.76      0.00
   54   12    0     -2.86      0.00
   26   22    0      0.89      0.00
    0   24    0     -9.79      0.00
    2   24    0     -4.60      0.00
    4   24    0     -4.17      0.00
    6   24    0     -0.39      0.00
    8   24    0     -0.94      0.00
    4    2    1    102.54      0.00
    6    2    1    -26.59      0.00
   10    2    1     48.64      0.00
   16    2    1     71.77      0.00
   62    2    1      1.31      0.00
   10    4    1     23.60      0.00
   61    5    1     -0.79      0.00
   54   12    1     -3.80      0.00
   49   15    1      0.95      0.00
   31   21    1      2.46      0.00
   26   22    1     -0.68      0.00
   19   23    1      2.90      0.00
    0   24    1      2.67      0.00
    2   24    1      4.67      0.00
    4   24    1      1.89      0.00
    6   24    1      3.73      0.00
    8   24    1      0.58      0.00
    0    0    2   1189.59      0.00
    6    0    2   -310.76      0.00
   14    0    2    132.59      0.00
   18    0    2    -50.37      0.00
   32    0    2     90.91      0.00
   62    0    2     -1.51      0.00
    3    1    2    190.90      0.00
    0    2    2    106.89      0.00
    8    2    2      4.67      0.00
   14    2    2    -15.38      0.00
   62    2    2      0.05      0.00
    7    3    2    212.02      0.00
   61    5    2     -0.25      0.00
   60    6    2      4.57      0.00
   54   12    2     -0.85      0.00
   49   15    2     -3.14      0.00
   31   21    2     -4.65      0.00
   26   22    2      0.96      0.00
   19   23    2     -3.34      0.00
    0   24    2      1.00      0.00
    2   24    2      6.29      0.00
    4   24    2      2.01      0.00
    6   24    2      4.46      0.00
    8   24    2      1.39      0.00
    8    2    3   -126.64      0.00
   10    2    3    -29.12      0.00
   62    2    3      0.51      0.00
   10    4    3    -27.63      0.00
   60    6    3     -2.95      0.00
   55   11    3      3.34      0.00
   54   12    3     -2.20      0.00
   19   23    3      3.55      0.00
    0   24    3     -3.91      0.00
    2   24    3      0.45      0.00
    4   24    3     -3.85      0.00
    6   24    3      0.63      0.00
   62    0    4     -2.40      0.00
   60    6    4     -3.45      0.00
   59    7    4      4.33      0.00
   55   11    4      2.33      0.00
   46   16    4      2.75      0.00
   34   20    4     -0.70      0.00
    0   24    4      6.20      0.00
    2   24    4     12.08      0.00
    4   24    4      2.49      0.00
    6   24    4      5.17      0.00
    3    3    5    109.56      0.00
   61    3    5      3.60      0.00
   59    7    5      4.48      0.00
   58    8    5     -4.75      0.00
   57    9    5     -1.67      0.00
   56   10    5      0.26      0.00
   55   11    5      3.05      0.00
   50   14    5      2.87      0.00
   46   16    5     -1.99      0.00
   34   20    5      0.54      0.00
   24   22    5      7.18      0.00
   17   23    5     -1.78      0.00
    0   24    5     -5.04      0.00
    2   24    5     -1.36      0.00
    2    0    6    -81.28      0.00
   61    1    6     -5.18      0.00
    0    2    6   -198.87      0.00
   61    3    6      2.65      0.00
   58    8    6     -3.01      0.00
   57    9    6      0.04      0.00
   43   17    6     -3.65      0.00
   40   18    6     -0.72      0.00
   37   19    6      5.45      0.00
   29   21    6      4.56      0.00
   24   22    6     -3.73      0.00
   17   23    6      2.32      0.00
   61    1    7      2.07      0.00
   60    4    7      1.59      0.00
   51   13    7     -0.79      0.00
   47   15    7     -1.63      0.00
   40   18    7     -3.28      0.00
   15   23    7     -0.96      0.00
    0    0    8      7.23      0.00
    2    0    8     20.71      0.00
   60    4    8     -2.20      0.00
   52   12    8      1.54      0.00
   47   15    8     -1.61      0.00
   32   20    8      4.14      0.00
   27   21    8     -2.26      0.00
   22   22    8     -5.92      0.00
   13   23    8      3.53      0.00
   60    2    9      3.65      0.00
   59    5    9      4.21      0.00
   58    6    9     -2.46      0.00
   53   11    9     -5.21      0.00
   52   12    9      2.18      0.00
   48   14    9     -1.46      0.00
   44   16    9      2.79      0.00
   35   19    9     -0.06      0.00
   27   21    9     -0.67      0.00
   20   22    9      0.66      0.00
   11   23    9     -2.96      0.00
    0    0   10      3.78      0.00
   60    0   10     -4.66      0.00
   58    6   10     -6.26      0.00
   57    7   10     -3.61      0.00
   56    8   10     -2.17      0.00
   55    9   10     -0.70      0.00
   54   10   10     -3.09      0.00
   41   17   10      0.79      0.00
   38   18   10     -3.58      0.00
   30   20   10      3.77      0.00
   25   21   10     -2.49      0.00
    7   23   10     12.58      0.00
    9   23   10      4.62      0.00
   59    1   11      2.20      0.00
   49   13   11     -3.31      0.00
   45   15   11      0.48      0.00
   33   19   11     -1.91      0.00
   18   22   11      0.68      0.00
    1   23   11     -4.39      0.00
    3   23   11     -2.52      0.00
    5   23   11      0.97      0.00
   57    5   12     -0.91      0.00
   50   12   12      1.09      0.00
   46   14   12     -4.74      0.00
   42   16   12     -2.93      0.00
   39   17   12      5.40      0.00
   36   18   12      6.66      0.00
   28   20   12      1.49      0.00
   23   21   12     -0.61      0.00
   16   22   12     -2.09      0.00
   58    2   13     -7.68      0.00
   56    6   13     -0.48      0.00
   55    7   13      2.87      0.00
   54    8   13     -0.06      0.00
   53    9   13     -2.57      0.00
   52   10   13     -3.33      0.00
   43   15   13     -0.61      0.00
   31   19   13      0.17      0.00
   21   21   13     -2.01      0.00
   12   22   13      1.06      0.00
   57    1   14      0.06      0.00
   57    3   14      0.72      0.00
   48   12   14      0.81      0.00
   40   16   14      2.54      0.00
   37   17   14     -2.24      0.00
   34   18   14      1.04      0.00
   19   21   14     -4.58      0.00
    8   22   14     -2.81      0.00
   56    2   15      5.29      0.00
   55    5   15     -3.66      0.00
    2   10   15      9.19      0.00
   50   10   15      0.99      0.00
   49   11   15     -1.38      0.00
   41   15   15      1.20      0.00
   32   18   15      1.43      0.00
   17   21   15      2.23      0.00
    0   22   15     -6.22      0.00
    2   22   15      6.77      0.00
   55    3   16      3.29      0.00
   46   12   16     -1.09      0.00
   27   19   16      1.06      0.00
   13   21   16      9.53      0.00
   54    4   17      1.77      0.00
   53    5   17      2.17      0.00
   48   10   17     -4.23      0.00
   47   11   17      0.00      0.00
   43   13   17      1.52      0.00
   39   15   17      0.26      0.00
   36   16   17     -1.73      0.00
   33   17   17      0.17      0.00
   25   19   17      0.99      0.00
   18   20   17      6.00      0.00
    7   21   17      2.52      0.00
    9   21   17     -2.82      0.00
   54    0   18      0.75      0.00
   53    3   18     -1.99      0.00
   44   12   18     -2.76      0.00
   40   14   18      0.87      0.00
   37   15   18     -1.03      0.00
   31   17   18     -1.16      0.00
   16   20   18     -1.09      0.00
   51    5   19      4.55      0.00
   47    9   19      0.58      0.00
   46   10   19     -4.66      0.00
   41   13   19     -2.13      0.00
   38   14   19      3.25      0.00
   29   17   19      2.10      0.00
   19   19   19     -6.59      0.00
   10   20   19      0.05      0.00
   12   20   19     -3.82      0.00
   51    3   20     -0.70      0.00
   43   11   20      1.57      0.00
   39   13   20     -5.40      0.00
   27   17   20     -7.14      0.00
   22   18   20     -0.83      0.00
   17   19   20     -3.37      0.00
    0   20   20     -4.17      0.00
    2   20   20      2.23      0.00
    4   20   20     -2.08      0.00
   50    2   21      2.91      0.00
   48    6   21     -3.85      0.00
   47    7   21     -3.81      0.00
   46    8   21      3.19      0.00
   40   12   21     -3.51      0.00
   25   17   21     -3.46      0.00
   20   18   21     -0.98      0.00
   11   19   21      3.17      0.00
   49    1   22     -1.63      0.00
   48    4   22      1.59      0.00
   47    5   22      0.01      0.00
   43    9   22     -4.56      0.00
   38   12   22      1.91      0.00
   26   16   22      4.37      0.00
   16   18   22      2.67      0.00
    1   19   22      9.46      0.00
    3   19   22      7.56      0.00
    5   19   22      7.65      0.00
   47    3   23     -5.24      0.00
   40   10   23     -2.25      0.00
   36   12   23     -2.92      0.00
   24   16   23      0.05      0.00
   19   17   23      1.41      0.00
   10   18   23      0.73      0.00
   46    0   24      3.10      0.00
   46    2   24      7.48      0.00
   45    3   24     -0.30      0.00
   38   10   24     -2.39      0.00
   34   12   24     -4.26      0.00
   25   15   24     -2.80      0.00
   20   16   24     -1.02      0.00
   13   17   24     -1.19      0.00
   15   17   24     -1.10      0.00
   44    2   25     -1.57      0.00
   36   10   25      1.00      0.00
   32   12   25     -4.78      0.00
   29   13   25      3.13      0.00
   26   14   25      1.19      0.00
   21   15   25     -8.46      0.00
   16   16   25     -4.64      0.00
    5   17   25      3.43      0.00
    7   17   25      1.19      0.00
   42    2   26     -0.08      0.00
   34   10   26      1.36      0.00
   25   13   26     -1.51      0.00
   22   14   26      0.45      0.00
   17   15   26      2.89      0.00
   10   16   26      2.88      0.00
   40    2   27     -0.61      0.00
   33    9   27      0.00      0.00
   29   11   27     -0.52      0.00
   26   12   27      2.36      0.00
   21   13   27      5.31      0.00
   23   13   27      2.25      0.00
   16   14   27      2.51      0.00
   18   14   27      3.33      0.00
    9   15   27     -0.30      0.00
   11   15   27     -4.94      0.00
   13   15   27      1.47      0.00
   38    2   28      0.29      0.00
   32    8   28      0.60      0.00
   31    9   28      3.19      0.00
   28   10   28     -0.68      0.00
   17   13   28     -6.55      0.00
   19   13   28     -6.94      0.00
    8   14   28     -1.55      0.00
   10   14   28     -5.09      0.00
   12   14   28     -3.13      0.00
   14   14   28     -1.75      0.00
    1   15   28      5.43      0.00
    3   15   28      3.53      0.00
   36    2   29      0.92      0.00
   35    3   29     -3.61      0.00
   31    7   29     -3.76      0.00
   30    8   29     -5.73      0.00
   23   11   29      1.98      0.00
   18   12   29      2.47      0.00
    7   13   29     -4.66      0.00
    9   13   29     -4.13      0.00
   11   13   29     -5.27      0.00
   13   13   29     -3.09      0.00
    0   14   29     -2.85      0.00
    2   14   29     -8.58      0.00
    4   14   29     -1.86      0.00
   33    1   30     -3.04      0.00
   33    3   30      2.08      0.00
   32    4   30      0.30      0.00
   31    5   30     -5.12      0.00
   30    6   30      0.51      0.00
   26    8   30     -2.96      0.00
   22   10   30      0.99      0.00
    4   12   30      0.02      0.00
    6   12   30      3.15      0.00
    8   12   30      2.85      0.00
   10   12   30      3.64      0.00
   12   12   30      2.17      0.00
    1   13   30      5.88      0.00
    3   13   30      1.98      0.00
    5   13   30      6.40      0.00
   30    2   31      4.04      0.00
   26    6   31     -0.62      0.00
   25    7   31      0.17      0.00
   22    8   31      4.35      0.00
   16   10   31      9.69      0.00
    1   11   31     -2.74      0.00
    3   11   31     -4.53      0.00
    5   11   31     -6.45      0.00
    7   11   31     -5.35      0.00
   11   11   31     -2.76      0.00
    0   12   31      3.17      0.00
    2   12   31      1.27      0.00
   27    1   32     -4.92      0.00
   22    6   32     -3.20      0.00
   21    7   32      7.56      0.00
   18    8   32      1.01      0.00
   15    9   32      0.40      0.00
    0   10   32     10.91      0.00
    2   10   32      4.23      0.00
    4   10   32     11.08      0.00
    8   10   32      7.42      0.00
   10   10   32      2.46      0.00
   23    1   33     -1.96      0.00
   19    5   33     -3.24      0.00
   18    6   33     -3.34      0.00
   15    7   33     -2.66      0.00
   10    8   33     11.07      0.00
   12    8   33      5.97      0.00
    1    9   33      9.43      0.00
    3    9   33      8.45      0.00
    5    9   33      5.12      0.00
   18    0   34      0.07      0.00
   18    2   34     -0.80      0.00
   17    3   34      8.12      0.00
   16    4   34     -0.90      0.00
   13    5   34     -3.55      0.00
   10    6   34     -5.73      0.00
    1    7   34      2.76      0.00
    3    7   34      0.77      0.00
    5    7   34     -0.92      0.00
   11    1   35     -0.14      0.00
   10    2   35     -3.20      0.00
    7    3   35      4.45      0.00
    9    3   35     -0.81      0.00
    0    4   35      4.28      0.00
    2    4   35      5.37      0.00
    4    4   35      4.77      0.00
    6    4   35      6.42      0.00
    0    0    0      0.00      0.00
# SQUEEZE RESULTS (Version = 270519)
# Note: Data are Listed for all Voids in the P1 Unit Cell
# i.e. Centre of Gravity, Solvent Accessible Volume,
# Recovered number of Electrons in the Void and
# Details about the Squeezed Material
loop_
  _platon_squeeze_void_nr
  _platon_squeeze_void_average_x
  _platon_squeeze_void_average_y
  _platon_squeeze_void_average_z
  _platon_squeeze_void_volume
  _platon_squeeze_void_count_electrons
  _platon_squeeze_void_content
   1  0.000  0.022  0.000      1081       353 ' '
   2  0.250  0.049  0.000       591       159 ' '
   3  0.500 -0.003  0.000      1081       353 ' '
   4  0.750  0.449  0.000       591       159 ' '
   5  0.000  0.241  0.500      1081       353 ' '
   6  0.500  0.741  0.500      1081       353 ' '
   7  0.250  0.900  0.500       591       159 ' '
   8  0.750  0.400  0.500       591       159 ' '
# Missing Reflections Below sin(th)/lambda = 0.25
loop_
  _platon_missing_refln_index_h
  _platon_missing_refln_index_k
  _platon_missing_refln_index_l
  _platon_missing_refln_theta
    2    0    0     0.929
    6    0    0     2.789
   12    0    0     5.585
   18    0    0     8.394
   20    0    0     9.334
   22    0    0    10.277
    0    2    0     2.394
    8    2    0     4.425
    0    4    0     4.792
    8    4    0     6.072
    0    6    0     7.198
    4    2    1     3.139
    6    2    1     3.766
   10    2    1     5.297
   16    2    1     7.877
   10    4    1     6.736
    0    0    2     1.627
    6    0    2     3.230
   14    0    2     6.721
   18    0    2     8.552
    3    1    2     2.455
    0    2    2     2.895
    8    2    2     4.716
   14    2    2     7.138
    7    3    2     5.117
    8    2    3     5.056
   10    2    3     5.778
   10    4    3     7.121
    3    3    5     5.610
    2    0    6     4.975
    0    2    6     5.444
    0    0    8     6.522
    2    0    8     6.588
    0    0   10     8.162
_platon_squeeze_void_probe_radius                  1.20
_platon_squeeze_details
)
TITL hq_br1_0ma       C m c e      R = 0.11
CELL   47.7736   18.5513   27.2877     90.00     90.00     90.00
SPGR Cmca
# Solvent Accessible Volume =      6695
# Electrons Found in S.A.V. =      2047
# Note: Atoms in Void are Labelled as Cxxx and Qxxx for all Others
Q101 1.000 0.256 0.011 !      10.14 eA-3
Q102 1.000 0.450 0.131 !       4.27 eA-3
C103 1.000 0.436 0.309 !       4.27 eA-3
Q104 0.660 0.302 0.176 !       3.98 eA-3
C105 1.000 0.053 0.418 !       3.50 eA-3
C106 1.000 0.011 0.021 !       3.13 eA-3
Q107 1.000 0.291 0.130 !       3.06 eA-3
Q108 0.840 0.203 0.788 !       3.01 eA-3
C109 0.421 0.094 0.928 !       2.99 eA-3
C110 0.500 0.461 0.047 !       2.80 eA-3
Q111 0.500 0.230 0.336 !       2.77 eA-3
Q112 1.000 0.129 0.250 !       2.70 eA-3
C113 0.419 0.024 0.914 !       2.37 eA-3
Q114 1.000 0.317 0.094 !       2.32 eA-3
C115 0.211 0.360 0.472 !       2.31 eA-3
C116 0.500 0.089 0.543 !       2.23 eA-3
C117 0.525 0.105 0.083 !       2.22 eA-3
C118 0.754 0.103 0.025 !       2.20 eA-3
C119 0.500 0.410 0.170 !       2.11 eA-3
Q120 1.000 0.247 0.218 !       2.11 eA-3
C121 0.968 0.286 0.009 !       2.08 eA-3
C122 0.500 0.092 0.464 !       2.07 eA-3
C123 1.000 0.358 0.362 !       2.06 eA-3
C124 0.500 0.338 0.162 !       2.05 eA-3
C125 1.000 0.492 0.100 !       2.04 eA-3
C126 0.094 0.500 0.000 !       1.97 eA-3
C127 0.585 0.502 0.422 !       1.96 eA-3
Q128 0.770 0.485 0.058 !       1.95 eA-3
C129 0.933 0.373 0.041 !       1.81 eA-3
C130 0.742 0.500 0.500 !       1.73 eA-3
C131 0.192 0.392 0.509 !       1.67 eA-3
C132 0.474 0.300 0.135 !       1.62 eA-3
C133 0.242 0.448 0.081 !       1.54 eA-3
Q134 0.500 0.201 0.282 !       1.54 eA-3
C135 0.695 0.143 0.464 !       1.46 eA-3
C136 0.751 0.300 0.539 !       1.40 eA-3
C137 0.765 0.391 0.465 !       1.36 eA-3
Q138 1.000 0.312 0.766 !       1.34 eA-3
C139 0.226 0.335 0.525 !       1.33 eA-3
C140 0.726 0.321 0.979 !       1.33 eA-3
C141 0.731 0.367 0.015 !       1.33 eA-3
C142 0.222 0.362 0.513 !       1.33 eA-3
C143 0.419 0.341 0.391 !       1.30 eA-3
C144 0.207 0.360 0.450 !       1.24 eA-3
C145 0.307 0.312 0.051 !       1.24 eA-3
Q146 0.500 0.340 0.688 !       1.11 eA-3
C147 0.731 0.285 0.045 !       1.09 eA-3
C148 0.743 0.181 0.557 !       1.08 eA-3
C149 0.243 0.194 0.948 !       1.08 eA-3
C150 0.500 0.014 0.607 !       1.03 eA-3
Q151 0.500 0.383 0.705 !       1.03 eA-3
C152 0.500 0.330 0.547 !       1.01 eA-3
Q153 0.071 0.096 0.263 !       0.96 eA-3
C154 0.249 0.240 0.007 !       0.95 eA-3
C155 1.000 0.341 0.423 !       0.92 eA-3
C156 0.492 0.502 0.463 !       0.87 eA-3
C157 0.992 0.502 0.959 !       0.87 eA-3
Q158 0.819 0.419 0.193 !       0.86 eA-3
Q159 0.309 0.358 0.404 !       0.85 eA-3
C160 0.500 0.291 0.520 !       0.84 eA-3
C161 0.500 0.257 0.030 !       0.83 eA-3
Q162 0.344 0.469 0.887 !       0.83 eA-3
C163 0.262 0.261 0.024 !       0.77 eA-3
Q164 0.343 0.389 0.144 !       0.77 eA-3
Q165 0.820 0.481 0.290 !       0.77 eA-3
C166 1.000 0.477 0.973 !       0.76 eA-3
Q167 0.375 0.263 0.840 !       0.76 eA-3
Q168 0.659 0.106 0.906 !       0.75 eA-3
Q169 0.444 0.091 0.624 !       0.75 eA-3
Q170 0.805 0.081 0.668 !       0.75 eA-3
Q171 0.968 0.076 0.157 !       0.75 eA-3
Q172 0.863 0.437 0.410 !       0.74 eA-3
C173 0.279 0.500 0.000 !       0.73 eA-3
C174 0.250 0.482 0.030 !       0.72 eA-3
Q175 0.333 0.294 0.418 !       0.72 eA-3
Q176 0.173 0.399 0.221 !       0.72 eA-3
Q177 0.172 0.176 0.462 !       0.71 eA-3
Q178 0.373 0.324 0.783 !       0.70 eA-3
Q179 0.887 0.141 0.938 !       0.70 eA-3
Q180 0.668 0.185 0.978 !       0.69 eA-3
Q181 0.117 0.282 0.356 !       0.68 eA-3
Q182 0.661 0.358 0.409 !       0.68 eA-3
Q183 0.063 0.039 0.294 !       0.68 eA-3
Q184 0.746 0.187 0.659 !       0.68 eA-3
C185 0.500 0.201 0.093 !       0.67 eA-3
Q186 0.500 0.316 0.622 !       0.66 eA-3
Q187 0.912 0.191 0.357 !       0.66 eA-3
Q188 0.875 0.314 0.769 !       0.66 eA-3
Q189 0.251 0.262 0.175 !       0.66 eA-3
Q190 0.308 0.356 0.464 !       0.66 eA-3
C191 0.469 0.026 0.084 !       0.65 eA-3
Q192 0.090 0.287 0.881 !       0.65 eA-3
Q193 0.883 0.157 0.990 !       0.65 eA-3
Q194 0.383 0.657 0.990 !       0.65 eA-3
C195 0.730 0.009 0.505 !       0.65 eA-3
Q196 0.328 0.357 0.313 !       0.64 eA-3
Q197 0.825 0.060 0.758 !       0.63 eA-3
Q198 0.895 0.325 0.885 !       0.62 eA-3
Q199 0.500 0.159 0.148 !       0.62 eA-3
)
;
_shelx_fab_checksum              80165
_platon_squeeze_void_probe_radius 1.20
_olex2_submission_special_instructions 'No special instructions were received'
loop_
_space_group_symop_operation_xyz
'x, y, z'
'-x, -y+1/2, z+1/2'
'-x, y+1/2, -z+1/2'
'x, -y, -z'
'x+1/2, y+1/2, z'
'-x+1/2, -y+1, z+1/2'
'-x+1/2, y+1, -z+1/2'
'x+1/2, -y+1/2, -z'
'-x, -y, -z'
'x, y-1/2, -z-1/2'
'x, -y-1/2, z-1/2'
'-x, y, z'
'-x+1/2, -y+1/2, -z'
'x+1/2, y, -z-1/2'
'x+1/2, -y, z-1/2'
'-x+1/2, y+1/2, z'
loop_
_atom_site_label
_atom_site_type_symbol
_atom_site_fract_x
_atom_site_fract_y
_atom_site_fract_z
_atom_site_U_iso_or_equiv
_atom_site_adp_type
_atom_site_occupancy
_atom_site_site_symmetry_order
_atom_site_calc_flag
_atom_site_refinement_flags_posn
_atom_site_refinement_flags_adp
_atom_site_refinement_flags_occupancy
_atom_site_disorder_assembly
_atom_site_disorder_group
Cd1 Cd 0.65853(2) 0.82127(2) 0.30442(2) 0.02764(12) Uani 1 1 d . . . . .
Cd2 Cd 0.500000 0.22565(2) 0.30606(2) 0.03448(14) Uani 1 2 d S T P A .
Br1 Br 0.500000 0.14569(4) 0.22395(2) 0.04484(19) Uani 1 2 d S T P A .
Br2 Br 0.500000 0.3222(4) 0.3906(3) 0.046(2) Uani 0.201(7) 2 d S T P A 1
N6 N 0.65049(7) 0.91527(17) 0.35228(12) 0.0302(7) Uani 1 1 d . U . . .
N3 N 0.62249(7) 0.77294(17) 0.34334(13) 0.0319(7) Uani 1 1 d . U . . .
N9 N 0.66857(6) 0.90600(17) 0.24905(12) 0.0278(6) Uani 1 1 d . U . . .
N12 N 0.64181(7) 0.76180(18) 0.24051(13) 0.0336(7) Uani 1 1 d . U . . .
N8 N 0.75520(7) 1.24058(18) 0.32329(14) 0.0351(7) Uani 1 1 d . U . . .
N1 N 0.53527(8) 0.3021(2) 0.27893(15) 0.0409(8) Uani 1 1 d . U . . .
N2 N 0.56384(7) 0.39368(18) 0.26660(15) 0.0386(8) Uani 1 1 d . U . . .
C29 C 0.68096(8) 1.0017(2) 0.30808(14) 0.0281(8) Uani 1 1 d . U . . .
N4 N 0.53386(9) 0.8456(2) 0.65408(14) 0.0443(9) Uani 1 1 d . U . . .
C39 C 0.68211(7) 0.9687(2) 0.26161(15) 0.0286(8) Uani 1 1 d . U . . .
N7 N 0.79567(7) 1.2959(2) 0.32030(15) 0.0402(8) Uani 1 1 d . U . . .
C28 C 0.66525(8) 0.9789(2) 0.34919(15) 0.0303(8) Uani 1 1 d . U . . .
C25 C 0.63700(8) 0.9145(2) 0.39632(15) 0.0335(8) Uani 1 1 d . U . . .
C30 C 0.69906(8) 1.0669(2) 0.31470(15) 0.0300(8) Uani 1 1 d . U . . .
C56 C 0.62561(8) 0.7010(2) 0.24328(17) 0.0356(9) Uani 1 1 d . U . . .
C11 C 0.61122(9) 0.7076(2) 0.33207(17) 0.0377(9) Uani 1 1 d . U . . .
C33 C 0.73547(8) 1.1826(2) 0.32243(16) 0.0319(8) Uani 1 1 d . U . . .
N5 N 0.56346(8) 0.8794(2) 0.59694(14) 0.0421(8) Uani 1 1 d . U . . .
C32 C 0.71173(9) 1.1894(2) 0.29492(18) 0.0363(9) Uani 1 1 d . U . . .
H32 H 0.707733 1.233415 0.278584 0.044 Uiso 1 1 calc R U . . .
C40 C 0.69678(9) 0.9962(2) 0.21905(15) 0.0349(9) Uani 1 1 d . U . . .
H40 H 0.708377 1.037766 0.217729 0.042 Uiso 1 1 calc R U . . .
C15 C 0.62015(8) 0.8575(2) 0.41364(15) 0.0337(8) Uani 1 1 d . U . . .
C42 C 0.67287(8) 0.8940(2) 0.20041(15) 0.0311(8) Uani 1 1 d . U . . .
C53 C 0.64651(9) 0.7763(3) 0.19209(15) 0.0379(9) Uani 1 1 d . U . . .
C31 C 0.69336(9) 1.1309(2) 0.29101(18) 0.0375(9) Uani 1 1 d . U . . .
H31 H 0.676825 1.135390 0.271903 0.045 Uiso 1 1 calc R U . . .
C10 C 0.61352(9) 0.6724(2) 0.28652(19) 0.0371(9) Uani 1 1 d . U . . .
C8 C 0.61611(8) 0.5402(2) 0.26922(17) 0.0384(9) Uani 1 1 d . U . . .
H8 H 0.635632 0.546184 0.264022 0.046 Uiso 1 1 calc R U . . .
C14 C 0.61363(9) 0.7920(2) 0.38865(16) 0.0370(9) Uani 1 1 d . U . . .
C41 C 0.69066(9) 0.9508(2) 0.18133(16) 0.0376(9) Uani 1 1 d . U . . .
H41 H 0.696911 0.955543 0.148439 0.045 Uiso 1 1 calc R U . . .
C43 C 0.66153(9) 0.8357(3) 0.17327(16) 0.0371(9) Uani 1 1 d . U . . .
C38 C 0.78340(8) 1.2338(2) 0.32544(15) 0.0329(8) Uani 1 1 d . U . . .
H38 H 0.792968 1.189461 0.330095 0.039 Uiso 1 1 calc R U . . .
C9 C 0.60459(8) 0.4726(2) 0.26426(18) 0.0400(10) Uani 1 1 d . U . . .
H9 H 0.616051 0.432620 0.255965 0.048 Uiso 1 1 calc R U . . .
C4 C 0.57605(8) 0.4635(2) 0.27147(18) 0.0376(9) Uani 1 1 d . U . . .
C16 C 0.60641(9) 0.8664(2) 0.46245(16) 0.0369(9) Uani 1 1 d . U . . .
C55 C 0.62065(12) 0.6741(3) 0.19485(19) 0.0502(12) Uani 1 1 d . U . . .
H55 H 0.610403 0.632022 0.186302 0.060 Uiso 1 1 calc R U . . .
C35 C 0.72265(9) 1.0630(3) 0.34435(17) 0.0437(10) Uani 1 1 d . U . . .
H35 H 0.726071 1.020211 0.362518 0.052 Uiso 1 1 calc R U . . .
C7 C 0.60013(8) 0.5997(2) 0.28155(18) 0.0382(9) Uani 1 1 d . U . . .
C34 C 0.74133(10) 1.1199(3) 0.34813(18) 0.0447(10) Uani 1 1 d . U . . .
H34 H 0.757681 1.116123 0.367783 0.054 Uiso 1 1 calc R U . . .
C1 C 0.54101(10) 0.3683(2) 0.2907(2) 0.0442(10) Uani 1 1 d . U . . .
H1 H 0.530443 0.395867 0.313452 0.053 Uiso 1 1 calc R U . . .
C27 C 0.66064(11) 1.0196(3) 0.39281(18) 0.0508(12) Uani 1 1 d . U . . .
H27 H 0.668296 1.065630 0.400222 0.061 Uiso 1 1 calc R U . . .
C54 C 0.63358(11) 0.7208(3) 0.16329(19) 0.0516(12) Uani 1 1 d . U . . .
H54 H 0.633924 0.717194 0.128572 0.062 Uiso 1 1 calc R U . . .
N11 N 0.66823(11) 0.8760(3) -0.03462(17) 0.0642(11) Uani 1 1 d . U . . .
C13 C 0.59598(13) 0.7355(2) 0.4077(2) 0.0592(14) Uani 1 1 d . U . . .
H13 H 0.586674 0.735549 0.438456 0.071 Uiso 1 1 calc R U . . .
C36 C 0.74963(11) 1.3124(3) 0.3151(3) 0.0593(14) Uani 1 1 d . U . . .
H36 H 0.731775 1.334226 0.311149 0.071 Uiso 1 1 calc R U . . .
C19 C 0.57900(10) 0.8776(2) 0.55178(16) 0.0412(9) Uani 1 1 d . U . . .
C44 C 0.66374(10) 0.8427(3) 0.11879(18) 0.0458(10) Uani 1 1 d . U . . .
C26 C 0.64327(12) 0.9804(3) 0.42170(17) 0.0545(13) Uani 1 1 d . U . . .
H26 H 0.636470 0.994034 0.453079 0.065 Uiso 1 1 calc R U . . .
C6 C 0.57177(11) 0.5881(3) 0.2903(3) 0.0622(14) Uani 1 1 d . U . . .
H6 H 0.560449 0.627562 0.300407 0.075 Uiso 1 1 calc R U . . .
C47 C 0.66623(12) 0.8638(3) 0.01723(19) 0.0548(11) Uani 1 1 d . U . . .
C12 C 0.59513(14) 0.6834(3) 0.3743(2) 0.0651(16) Uani 1 1 d . U . . .
H12 H 0.585747 0.638471 0.377459 0.078 Uiso 1 1 calc R U . . .
C5 C 0.55963(9) 0.5213(2) 0.2849(3) 0.0583(14) Uani 1 1 d . U . . .
H5 H 0.540137 0.515033 0.290347 0.070 Uiso 1 1 calc R U . . .
C37 C 0.77485(11) 1.3455(3) 0.3138(3) 0.0630(14) Uani 1 1 d . U . . .
H37 H 0.777669 1.395760 0.309098 0.076 Uiso 1 1 calc R U . . .
C22 C 0.54636(14) 0.8282(3) 0.6134(2) 0.0635(15) Uani 1 1 d . U . . .
H22 H 0.543577 0.783517 0.597188 0.076 Uiso 1 1 calc R U . . .
C24 C 0.56313(16) 0.9306(3) 0.6308(2) 0.0756(17) Uani 1 1 d . U . . .
H24 H 0.573806 0.973830 0.630726 0.091 Uiso 1 1 calc R U . . .
C23 C 0.54450(16) 0.9094(3) 0.6659(2) 0.0751(17) Uani 1 1 d . U . . .
H23 H 0.539845 0.936186 0.694375 0.090 Uiso 1 1 calc R U . . .
C4A C 0.5523(3) 0.2929(6) 0.2363(5) 0.049(2) Uani 0.5 1 d . U P B 1
H4A H 0.550973 0.253200 0.214430 0.058 Uiso 0.5 1 calc R U P B 1
C3A C 0.5703(3) 0.3474(7) 0.2311(5) 0.047(2) Uani 0.5 1 d . U P B 1
H3A H 0.584674 0.352158 0.207241 0.056 Uiso 0.5 1 calc R U P B 1
N10A N 0.6817(4) 0.8762(9) -0.1099(5) 0.078(2) Uani 0.5 1 d . U P C 2
H10A H 0.691520 0.866859 -0.136412 0.094 Uiso 0.5 1 calc R U P C 2
C51 C 0.6618(5) 0.8936(10) -0.1126(7) 0.070(2) Uani 0.5 1 d . U P C 1
H51 H 0.652126 0.898566 -0.142791 0.084 Uiso 0.5 1 calc R U P C 1
C49 C 0.6528(2) 0.9065(6) 0.0973(3) 0.0413(17) Uani 0.5 1 d . U P D 2
H49 H 0.644556 0.942352 0.117457 0.050 Uiso 0.5 1 calc R U P D 2
C17A C 0.62016(19) 0.8763(5) 0.5071(3) 0.0396(16) Uani 0.5 1 d . U P E 2
H17A H 0.640007 0.879348 0.507209 0.048 Uiso 0.5 1 calc R U P E 2
C21 C 0.58999(18) 0.9205(5) 0.4715(3) 0.0376(15) Uani 0.5 1 d . U P E 1
H21 H 0.587200 0.956301 0.447153 0.045 Uiso 0.5 1 calc R U P E 1
C20 C 0.57633(19) 0.9269(5) 0.5167(3) 0.0402(16) Uani 0.5 1 d . U P E 1
H20 H 0.564778 0.967713 0.522431 0.048 Uiso 0.5 1 calc R U P E 1
C48 C 0.6542(2) 0.9167(6) 0.0472(4) 0.0463(18) Uani 0.5 1 d . U P D 2
H48 H 0.647012 0.959617 0.033125 0.056 Uiso 0.5 1 calc R U P D 2
C45 C 0.6751(2) 0.7895(7) 0.0918(4) 0.051(2) Uani 0.5 1 d . U P D 2
H45 H 0.682367 0.747547 0.107068 0.061 Uiso 0.5 1 calc R U P D 2
C52A C 0.6869(3) 0.8519(10) -0.0647(5) 0.077(2) Uani 0.5 1 d . U P C 2
H52A H 0.702105 0.821460 -0.055924 0.092 Uiso 0.5 1 calc R U P C 2
C18 C 0.5974(2) 0.8172(5) 0.5430(3) 0.0446(18) Uani 0.5 1 d . U P E 1
H18 H 0.600261 0.781901 0.567698 0.054 Uiso 0.5 1 calc R U P E 1
C20A C 0.56210(19) 0.8762(5) 0.5092(3) 0.0444(17) Uani 0.5 1 d . U P E 2
H20A H 0.542255 0.878725 0.510849 0.053 Uiso 0.5 1 calc R U P E 2
C21A C 0.57638(19) 0.8710(5) 0.4646(3) 0.0414(17) Uani 0.5 1 d . U P E 2
H21A H 0.565967 0.870387 0.434949 0.050 Uiso 0.5 1 calc R U P E 2
C18A C 0.60605(19) 0.8818(5) 0.5512(3) 0.0401(16) Uani 0.5 1 d . U P E 2
H18A H 0.616122 0.888650 0.580890 0.048 Uiso 0.5 1 calc R U P E 2
C17 C 0.6108(2) 0.8112(5) 0.4983(4) 0.0454(17) Uani 0.5 1 d . U P E 1
H17 H 0.622634 0.771256 0.491455 0.054 Uiso 0.5 1 calc R U P E 1
C50 C 0.6501(3) 0.8792(9) -0.0693(5) 0.067(2) Uani 0.5 1 d . U P C 1
H50 H 0.630546 0.872150 -0.064655 0.080 Uiso 0.5 1 calc R U P C 1
C46 C 0.6759(3) 0.7972(7) 0.0401(4) 0.056(2) Uani 0.5 1 d . U P D 2
H46 H 0.682695 0.758913 0.020289 0.068 Uiso 0.5 1 calc R U P D 2
C48A C 0.6434(3) 0.8803(7) 0.0400(4) 0.057(2) Uani 0.5 1 d . U P D 1
H48A H 0.628141 0.901155 0.022807 0.068 Uiso 0.5 1 calc R U P D 1
C49A C 0.6415(3) 0.8673(7) 0.0894(4) 0.058(2) Uani 0.5 1 d . U P D 1
H49A H 0.623937 0.875431 0.104870 0.070 Uiso 0.5 1 calc R U P D 1
C2 C 0.5577(2) 0.2755(6) 0.2548(5) 0.044(2) Uani 0.5 1 d . U P B 2
H2 H 0.560129 0.226605 0.245398 0.053 Uiso 0.5 1 calc R U P B 2
C3 C 0.5759(3) 0.3290(6) 0.2463(5) 0.044(2) Uani 0.5 1 d . U P B 2
H3 H 0.593408 0.324986 0.230027 0.053 Uiso 0.5 1 calc R U P B 2
C45A C 0.6863(3) 0.8203(8) 0.0907(5) 0.065(2) Uani 0.5 1 d . U P D 1
H45A H 0.701209 0.796573 0.107047 0.078 Uiso 0.5 1 calc R U P D 1
C46A C 0.6887(3) 0.8299(8) 0.0407(5) 0.067(2) Uani 0.5 1 d . U P D 1
H46A H 0.704779 0.814257 0.023214 0.080 Uiso 0.5 1 calc R U P D 1
C52 C 0.6948(3) 0.8913(9) -0.0599(5) 0.075(3) Uani 0.5 1 d . U P C 1
H52 H 0.712487 0.894202 -0.044185 0.089 Uiso 0.5 1 calc R U P C 1
C50A C 0.6507(3) 0.9188(9) -0.0618(5) 0.070(2) Uani 0.5 1 d . U P C 2
H50A H 0.635191 0.945204 -0.049430 0.084 Uiso 0.5 1 calc R U P C 2
C51A C 0.6588(4) 0.9171(11) -0.1071(7) 0.073(3) Uani 0.5 1 d . U P C 2
H51A H 0.650000 0.940961 -0.133714 0.088 Uiso 0.5 1 calc R U P C 2
N10 N 0.6908(3) 0.9002(8) -0.1063(5) 0.071(2) Uani 0.5 1 d . U P C 1
H10 H 0.703500 0.908526 -0.129009 0.086 Uiso 0.5 1 calc R U P C 1
O1 O 0.500000 0.2981(7) 0.3827(7) 0.071(5) Uani 0.799(7) 2 d S T P A 2
H1A H 0.500000 0.342179 0.375582 0.106 Uiso 0.799(7) 2 calc R U P A 2
loop_
_atom_site_aniso_label
_atom_site_aniso_U_11
_atom_site_aniso_U_22
_atom_site_aniso_U_33
_atom_site_aniso_U_23
_atom_site_aniso_U_13
_atom_site_aniso_U_12
Cd1 0.01222(18) 0.02955(19) 0.0411(2) 0.00538(10) 0.00777(10) 0.00267(9)
Cd2 0.0258(2) 0.0364(3) 0.0412(3) 0.00682(17) 0.000 0.000
Br1 0.0177(3) 0.0652(4) 0.0516(4) -0.0094(3) 0.000 0.000
Br2 0.038(2) 0.041(4) 0.060(3) -0.008(3) 0.000 0.000
N6 0.0183(15) 0.0298(16) 0.0427(17) 0.0066(14) 0.0094(13) 0.0005(12)
N3 0.0223(16) 0.0316(16) 0.0419(17) 0.0082(14) 0.0076(13) -0.0007(13)
N9 0.0116(14) 0.0334(16) 0.0383(16) 0.0056(13) 0.0054(12) -0.0006(12)
N12 0.0192(15) 0.0355(17) 0.0459(19) -0.0002(14) 0.0097(14) -0.0011(13)
N8 0.0184(16) 0.0325(17) 0.054(2) 0.0017(15) 0.0051(14) -0.0055(13)
N1 0.0238(17) 0.0318(17) 0.067(2) -0.0055(17) 0.0056(16) 0.0013(14)
N2 0.0144(14) 0.0310(16) 0.070(2) -0.0070(16) 0.0115(15) 0.0002(13)
C29 0.0139(16) 0.0284(18) 0.042(2) 0.0102(15) 0.0003(14) 0.0000(14)
N4 0.049(2) 0.044(2) 0.0400(19) 0.0033(16) 0.0108(17) -0.0030(17)
C39 0.0113(15) 0.0314(18) 0.043(2) 0.0092(15) 0.0039(14) 0.0023(13)
N7 0.0198(16) 0.0382(19) 0.063(2) 0.0013(17) 0.0021(16) -0.0078(14)
C28 0.0196(16) 0.0314(18) 0.040(2) 0.0066(16) -0.0005(15) -0.0024(14)
C25 0.0235(18) 0.040(2) 0.0366(19) 0.0065(16) 0.0056(15) -0.0041(16)
C30 0.0187(17) 0.0327(19) 0.0385(18) 0.0082(16) 0.0009(14) -0.0057(15)
C56 0.0202(17) 0.0340(19) 0.053(2) 0.0000(18) 0.0097(16) -0.0021(15)
C11 0.0264(19) 0.0268(18) 0.060(2) 0.0079(18) 0.0172(18) -0.0001(15)
C33 0.0174(18) 0.0314(19) 0.047(2) 0.0052(16) 0.0045(16) -0.0069(14)
N5 0.043(2) 0.0430(19) 0.0406(18) 0.0047(15) 0.0118(16) -0.0054(16)
C32 0.021(2) 0.032(2) 0.056(2) 0.0095(18) -0.0039(17) -0.0003(15)
C40 0.0255(19) 0.037(2) 0.043(2) 0.0091(17) 0.0096(16) -0.0026(16)
C15 0.0258(19) 0.036(2) 0.039(2) 0.0074(16) 0.0080(16) -0.0013(15)
C42 0.0160(17) 0.0346(19) 0.043(2) 0.0044(16) 0.0044(14) 0.0008(15)
C53 0.024(2) 0.047(2) 0.043(2) -0.0012(17) 0.0053(16) -0.0033(17)
C31 0.0199(19) 0.036(2) 0.057(2) 0.0060(19) -0.0096(17) -0.0022(16)
C10 0.0179(18) 0.0304(19) 0.063(3) 0.0028(18) 0.0111(18) 0.0021(15)
C8 0.0132(17) 0.040(2) 0.062(2) -0.0108(19) 0.0080(16) -0.0022(15)
C14 0.031(2) 0.0329(19) 0.047(2) 0.0096(17) 0.0154(17) 0.0017(16)
C41 0.028(2) 0.045(2) 0.040(2) 0.0077(18) 0.0136(17) 0.0003(17)
C43 0.0223(19) 0.049(2) 0.040(2) 0.0022(18) 0.0083(16) -0.0012(17)
C38 0.0208(18) 0.033(2) 0.045(2) 0.0046(17) 0.0023(16) -0.0051(15)
C9 0.0171(18) 0.034(2) 0.069(3) -0.0139(19) 0.0061(18) 0.0008(15)
C4 0.0176(18) 0.0287(19) 0.067(3) 0.0013(18) 0.0105(17) 0.0019(15)
C16 0.0305(19) 0.0382(19) 0.042(2) 0.0060(16) 0.0097(16) -0.0078(16)
C55 0.037(3) 0.052(3) 0.062(3) -0.001(2) -0.001(2) -0.015(2)
C35 0.033(2) 0.042(2) 0.056(2) 0.020(2) -0.0126(19) -0.0114(18)
C7 0.0204(18) 0.0279(19) 0.066(3) 0.0024(18) 0.0117(17) 0.0000(15)
C34 0.031(2) 0.048(2) 0.056(2) 0.017(2) -0.0160(19) -0.0115(18)
C1 0.029(2) 0.034(2) 0.069(3) 0.000(2) 0.016(2) -0.0016(17)
C27 0.058(3) 0.052(3) 0.043(2) -0.006(2) 0.011(2) -0.031(2)
C54 0.044(3) 0.061(3) 0.050(2) -0.004(2) -0.002(2) -0.018(2)
N11 0.064(3) 0.085(3) 0.044(2) -0.008(2) 0.010(2) 0.003(2)
C13 0.073(3) 0.033(2) 0.072(3) 0.002(2) 0.046(3) -0.010(2)
C36 0.025(2) 0.035(2) 0.119(4) 0.002(2) 0.011(3) -0.0012(18)
C19 0.043(2) 0.043(2) 0.037(2) 0.0052(17) 0.0067(17) -0.0074(18)
C44 0.035(2) 0.059(2) 0.043(2) -0.001(2) 0.0073(18) -0.012(2)
C26 0.063(3) 0.063(3) 0.037(2) -0.008(2) 0.016(2) -0.029(2)
C6 0.027(2) 0.031(2) 0.128(4) 0.003(3) 0.029(3) 0.0027(18)
C47 0.044(2) 0.074(3) 0.046(2) -0.001(2) 0.007(2) -0.003(2)
C12 0.077(4) 0.031(2) 0.087(4) 0.003(2) 0.049(3) -0.013(2)
C5 0.020(2) 0.029(2) 0.126(4) 0.011(2) 0.026(2) 0.0020(17)
C37 0.032(3) 0.035(2) 0.122(4) 0.001(3) 0.014(3) -0.009(2)
C22 0.081(4) 0.055(3) 0.054(3) -0.010(2) 0.025(3) -0.030(3)
C24 0.094(4) 0.054(3) 0.079(3) -0.015(3) 0.047(3) -0.026(3)
C23 0.094(4) 0.058(3) 0.073(3) -0.018(3) 0.045(3) -0.023(3)
C4A 0.031(4) 0.033(4) 0.082(5) -0.009(4) 0.010(4) -0.001(4)
C3A 0.028(4) 0.034(5) 0.078(5) -0.010(4) 0.015(4) -0.005(4)
N10A 0.076(5) 0.107(6) 0.051(4) -0.004(4) 0.014(4) 0.007(4)
C51 0.063(4) 0.100(6) 0.047(4) -0.007(5) 0.006(4) 0.004(5)
C49 0.033(4) 0.054(4) 0.036(3) -0.002(3) 0.000(3) -0.006(3)
C17A 0.039(3) 0.041(3) 0.038(3) 0.012(3) 0.008(3) -0.004(3)
C21 0.031(3) 0.040(3) 0.042(3) 0.009(3) 0.010(3) -0.003(3)
C20 0.039(3) 0.039(3) 0.043(3) 0.000(3) 0.009(3) 0.000(3)
C48 0.037(4) 0.060(4) 0.041(4) -0.001(4) 0.002(3) -0.004(4)
C45 0.044(4) 0.064(5) 0.045(4) -0.008(4) 0.015(4) -0.016(4)
C52A 0.074(5) 0.103(5) 0.054(4) -0.008(4) 0.016(4) 0.010(4)
C18 0.040(4) 0.052(4) 0.042(4) 0.012(3) 0.002(3) 0.005(3)
C20A 0.032(3) 0.052(4) 0.048(4) 0.004(3) 0.016(3) -0.006(3)
C21A 0.036(4) 0.047(4) 0.042(3) -0.001(3) 0.011(3) -0.005(3)
C18A 0.040(3) 0.042(3) 0.038(3) 0.011(3) 0.006(3) -0.004(3)
C17 0.042(4) 0.048(4) 0.046(4) 0.005(3) 0.007(3) 0.007(3)
C50 0.063(4) 0.092(5) 0.046(4) -0.003(4) 0.002(4) 0.001(5)
C46 0.050(4) 0.070(5) 0.049(4) -0.015(4) 0.016(4) -0.013(4)
C48A 0.048(4) 0.073(5) 0.050(4) 0.007(4) 0.003(4) 0.004(4)
C49A 0.046(4) 0.076(5) 0.052(4) 0.003(4) 0.006(4) 0.004(4)
C2 0.022(4) 0.031(4) 0.080(5) -0.002(4) 0.007(4) -0.002(3)
C3 0.022(4) 0.029(4) 0.081(5) -0.007(4) 0.011(4) 0.005(3)
C45A 0.052(5) 0.090(5) 0.052(4) -0.002(4) 0.010(4) 0.013(4)
C46A 0.051(5) 0.094(5) 0.055(4) -0.003(4) 0.013(4) 0.010(4)
C52 0.064(5) 0.109(6) 0.052(4) -0.004(5) 0.013(4) 0.005(5)
C50A 0.063(4) 0.102(6) 0.044(4) -0.003(5) 0.004(4) 0.006(5)
C51A 0.065(5) 0.104(6) 0.049(4) -0.002(5) 0.004(4) 0.001(5)
N10 0.059(5) 0.107(6) 0.048(4) -0.005(4) 0.012(4) 0.004(4)
O1 0.068(7) 0.031(6) 0.113(11) 0.009(6) 0.000 0.000
loop_
_atom_type_symbol
_atom_type_description
_atom_type_scat_dispersion_real
_atom_type_scat_dispersion_imag
_atom_type_scat_source
C C 0.0044 0.0020 'International Tables Vol C Tables 4.2.6.8 and 6.1.1.4'
H H 0.0000 0.0000 'International Tables Vol C Tables 4.2.6.8 and 6.1.1.4'
Br Br -0.7169 2.9488 'International Tables Vol C Tables 4.2.6.8 and 6.1.1.4'
Cd Cd -0.6417 1.4308 'International Tables Vol C Tables 4.2.6.8 and 6.1.1.4'
N N 0.0081 0.0039 'International Tables Vol C Tables 4.2.6.8 and 6.1.1.4'
O O 0.0141 0.0074 'International Tables Vol C Tables 4.2.6.8 and 6.1.1.4'
loop_
_geom_angle_atom_site_label_1
_geom_angle_atom_site_label_2
_geom_angle_atom_site_label_3
_geom_angle
_geom_angle_site_symmetry_1
_geom_angle_site_symmetry_3
_geom_angle_publ_flag
N6 Cd1 N3 84.32(12) . . ?
N6 Cd1 N9 83.21(12) . . ?
N6 Cd1 N12 142.70(12) . . ?
N6 Cd1 N7 102.57(13) . 16_645 ?
N3 Cd1 N9 141.01(11) . . ?
N3 Cd1 N12 83.99(12) . . ?
N3 Cd1 N7 124.88(13) . 16_645 ?
N9 Cd1 N7 93.90(13) . 16_645 ?
N12 Cd1 N9 83.98(12) . . ?
N12 Cd1 N7 113.16(13) . 16_645 ?
Br1 Cd2 Br2 175.69(16) . . ?
N1 Cd2 Br1 94.10(10) 12_655 . ?
N1 Cd2 Br1 94.10(10) . . ?
N1 Cd2 Br2 82.95(15) 12_655 . ?
N1 Cd2 Br2 82.95(15) . . ?
N1 Cd2 N1 92.95(19) . 12_655 ?
N1 Cd2 N4 89.54(14) 12_655 9_666 ?
N1 Cd2 N4 171.04(14) . 9_666 ?
N1 Cd2 N4 171.04(14) 12_655 4_566 ?
N1 Cd2 N4 89.54(14) . 4_566 ?
N1 Cd2 O1 86.4(2) . . ?
N1 Cd2 O1 86.4(2) 12_655 . ?
N4 Cd2 Br1 94.31(10) 4_566 . ?
N4 Cd2 Br1 94.31(10) 9_666 . ?
N4 Cd2 Br2 88.82(15) 9_666 . ?
N4 Cd2 Br2 88.82(15) 4_566 . ?
N4 Cd2 N4 86.7(2) 9_666 4_566 ?
N4 Cd2 O1 85.1(2) 4_566 . ?
N4 Cd2 O1 85.1(2) 9_666 . ?
O1 Cd2 Br1 179.2(3) . . ?
C28 N6 Cd1 123.4(2) . . ?
C25 N6 Cd1 126.5(3) . . ?
C25 N6 C28 107.7(3) . . ?
C11 N3 Cd1 124.1(3) . . ?
C14 N3 Cd1 125.2(3) . . ?
C14 N3 C11 108.4(3) . . ?
C39 N9 Cd1 121.9(3) . . ?
C42 N9 Cd1 125.2(3) . . ?
C42 N9 C39 108.1(3) . . ?
C56 N12 Cd1 124.8(3) . . ?
C53 N12 Cd1 127.2(3) . . ?
C53 N12 C56 108.0(4) . . ?
C38 N8 C33 125.9(3) . . ?
C38 N8 C36 106.8(3) . . ?
C36 N8 C33 126.7(4) . . ?
C1 N1 Cd2 130.7(3) . . ?
C1 N1 C4A 101.1(6) . . ?
C1 N1 C2 107.4(6) . . ?
C4A N1 Cd2 126.8(5) . . ?
C2 N1 Cd2 120.4(5) . . ?
C4 N2 C3 128.9(6) . . ?
C1 N2 C4 126.7(4) . . ?
C1 N2 C3 102.6(6) . . ?
C3A N2 C4 123.9(6) . . ?
C3A N2 C1 108.4(6) . . ?
C39 C29 C28 127.2(4) . . ?
C39 C29 C30 115.9(3) . . ?
C28 C29 C30 116.9(3) . . ?
C22 N4 Cd2 124.8(3) . 9_666 ?
C22 N4 C23 104.6(4) . . ?
C23 N4 Cd2 130.7(3) . 9_666 ?
N9 C39 C29 125.0(3) . . ?
N9 C39 C40 109.0(3) . . ?
C29 C39 C40 125.9(4) . . ?
C38 N7 Cd1 129.5(3) . 16_655 ?
C38 N7 C37 106.4(4) . . ?
C37 N7 Cd1 122.3(3) . 16_655 ?
N6 C28 C29 125.2(4) . . ?
N6 C28 C27 108.9(3) . . ?
C29 C28 C27 125.8(4) . . ?
N6 C25 C15 124.9(4) . . ?
N6 C25 C26 108.5(3) . . ?
C15 C25 C26 126.5(4) . . ?
C31 C30 C29 121.6(3) . . ?
C31 C30 C35 118.6(4) . . ?
C35 C30 C29 119.8(4) . . ?
N12 C56 C10 125.8(4) . . ?
N12 C56 C55 109.3(4) . . ?
C10 C56 C55 124.7(4) . . ?
N3 C11 C10 125.6(4) . . ?
N3 C11 C12 107.7(4) . . ?
C10 C11 C12 126.6(4) . . ?
C32 C33 N8 119.1(4) . . ?
C32 C33 C34 121.6(4) . . ?
C34 C33 N8 119.3(4) . . ?
C22 N5 C19 126.2(4) . . ?
C24 N5 C19 128.3(4) . . ?
C24 N5 C22 105.5(4) . . ?
C33 C32 H32 120.3 . . ?
C33 C32 C31 119.4(4) . . ?
C31 C32 H32 120.3 . . ?
C39 C40 H40 126.7 . . ?
C41 C40 C39 106.5(4) . . ?
C41 C40 H40 126.7 . . ?
C25 C15 C14 127.1(4) . . ?
C25 C15 C16 117.8(4) . . ?
C14 C15 C16 115.1(3) . . ?
N9 C42 C41 108.6(4) . . ?
N9 C42 C43 125.2(4) . . ?
C43 C42 C41 126.2(4) . . ?
N12 C53 C43 126.1(4) . . ?
N12 C53 C54 108.5(4) . . ?
C43 C53 C54 125.4(4) . . ?
C30 C31 C32 120.5(4) . . ?
C30 C31 H31 119.7 . . ?
C32 C31 H31 119.7 . . ?
C56 C10 C7 115.9(4) . . ?
C11 C10 C56 126.3(4) . . ?
C11 C10 C7 117.7(4) . . ?
C9 C8 H8 119.0 . . ?
C9 C8 C7 122.0(4) . . ?
C7 C8 H8 119.0 . . ?
N3 C14 C15 126.2(4) . . ?
N3 C14 C13 108.8(4) . . ?
C15 C14 C13 125.0(4) . . ?
C40 C41 C42 107.7(4) . . ?
C40 C41 H41 126.2 . . ?
C42 C41 H41 126.2 . . ?
C42 C43 C44 115.2(4) . . ?
C53 C43 C42 126.8(4) . . ?
C53 C43 C44 117.8(4) . . ?
N8 C38 H38 124.4 . . ?
N7 C38 N8 111.2(4) . . ?
N7 C38 H38 124.4 . . ?
C8 C9 H9 120.3 . . ?
C8 C9 C4 119.4(4) . . ?
C4 C9 H9 120.3 . . ?
C9 C4 N2 119.9(3) . . ?
C5 C4 N2 119.9(4) . . ?
C5 C4 C9 120.1(4) . . ?
C17A C16 C15 125.9(5) . . ?
C17A C16 C21A 115.2(6) . . ?
C21 C16 C15 121.5(5) . . ?
C21 C16 C17 120.8(6) . . ?
C21A C16 C15 118.8(5) . . ?
C17 C16 C15 117.7(5) . . ?
C56 C55 H55 126.7 . . ?
C54 C55 C56 106.5(4) . . ?
C54 C55 H55 126.7 . . ?
C30 C35 H35 119.1 . . ?
C34 C35 C30 121.7(4) . . ?
C34 C35 H35 119.1 . . ?
C8 C7 C10 120.3(4) . . ?
C8 C7 C6 117.1(4) . . ?
C6 C7 C10 122.5(4) . . ?
C33 C34 C35 118.1(4) . . ?
C33 C34 H34 121.0 . . ?
C35 C34 H34 121.0 . . ?
N1 C1 N2 112.2(4) . . ?
N1 C1 H1 123.9 . . ?
N2 C1 H1 123.9 . . ?
C28 C27 H27 126.4 . . ?
C26 C27 C28 107.1(4) . . ?
C26 C27 H27 126.4 . . ?
C53 C54 H54 126.1 . . ?
C55 C54 C53 107.7(4) . . ?
C55 C54 H54 126.1 . . ?
C47 N11 C52 123.3(7) . . ?
C52A N11 C47 128.0(9) . . ?
C52A N11 C50A 106.2(10) . . ?
C50 N11 C47 133.4(8) . . ?
C50 N11 C52 103.2(9) . . ?
C50A N11 C47 125.7(7) . . ?
C14 C13 H13 126.3 . . ?
C12 C13 C14 107.5(4) . . ?
C12 C13 H13 126.3 . . ?
N8 C36 H36 127.1 . . ?
C37 C36 N8 105.8(5) . . ?
C37 C36 H36 127.1 . . ?
N5 C19 C18 118.3(5) . . ?
C20 C19 N5 123.5(5) . . ?
C20 C19 C18 118.2(6) . . ?
C20A C19 N5 114.1(5) . . ?
C18A C19 N5 121.6(5) . . ?
C18A C19 C20A 124.2(6) . . ?
C49 C44 C43 117.3(6) . . ?
C45 C44 C43 120.5(7) . . ?
C45 C44 C49 122.2(7) . . ?
C49A C44 C43 122.7(6) . . ?
C45A C44 C43 125.3(7) . . ?
C45A C44 C49A 111.7(8) . . ?
C25 C26 H26 126.2 . . ?
C27 C26 C25 107.7(4) . . ?
C27 C26 H26 126.2 . . ?
C7 C6 H6 119.0 . . ?
C5 C6 C7 122.0(4) . . ?
C5 C6 H6 119.0 . . ?
N11 C47 C46 122.3(6) . . ?
C48 C47 N11 119.5(7) . . ?
C48 C47 C46 118.2(7) . . ?
C48A C47 N11 119.5(7) . . ?
C48A C47 C46A 122.2(8) . . ?
C46A C47 N11 118.2(7) . . ?
C11 C12 H12 126.2 . . ?
C13 C12 C11 107.5(4) . . ?
C13 C12 H12 126.2 . . ?
C4 C5 C6 119.3(4) . . ?
C4 C5 H5 120.3 . . ?
C6 C5 H5 120.3 . . ?
N7 C37 H37 125.1 . . ?
C36 C37 N7 109.8(5) . . ?
C36 C37 H37 125.1 . . ?
N4 C22 N5 113.2(5) . . ?
N4 C22 H22 123.4 . . ?
N5 C22 H22 123.4 . . ?
N5 C24 H24 126.6 . . ?
N5 C24 C23 106.8(5) . . ?
C23 C24 H24 126.6 . . ?
N4 C23 C24 109.8(5) . . ?
N4 C23 H23 125.1 . . ?
C24 C23 H23 125.1 . . ?
N1 C4A H4A 124.4 . . ?
C3A C4A N1 111.2(10) . . ?
C3A C4A H4A 124.4 . . ?
N2 C3A C4A 105.2(10) . . ?
N2 C3A H3A 127.4 . . ?
C4A C3A H3A 127.4 . . ?
C52A N10A H10A 126.5 . . ?
C51A N10A H10A 126.5 . . ?
C51A N10A C52A 107.0(15) . . ?
C50 C51 H51 125.5 . . ?
C50 C51 N10 109.0(18) . . ?
N10 C51 H51 125.5 . . ?
C44 C49 H49 119.8 . . ?
C48 C49 C44 120.4(9) . . ?
C48 C49 H49 119.8 . . ?
C16 C17A H17A 118.7 . . ?
C18A C17A C16 122.7(8) . . ?
C18A C17A H17A 118.7 . . ?
C16 C21 H21 119.5 . . ?
C16 C21 C20 121.1(8) . . ?
C20 C21 H21 119.5 . . ?
C19 C20 C21 122.1(8) . . ?
C19 C20 H20 119.0 . . ?
C21 C20 H20 119.0 . . ?
C47 C48 H48 119.9 . . ?
C49 C48 C47 120.2(10) . . ?
C49 C48 H48 119.9 . . ?
C44 C45 H45 120.6 . . ?
C44 C45 C46 118.8(11) . . ?
C46 C45 H45 120.6 . . ?
N11 C52A N10A 109.9(14) . . ?
N11 C52A H52A 125.0 . . ?
N10A C52A H52A 125.0 . . ?
C19 C18 H18 120.3 . . ?
C17 C18 C19 119.4(8) . . ?
C17 C18 H18 120.3 . . ?
C19 C20A H20A 122.0 . . ?
C21A C20A C19 115.9(8) . . ?
C21A C20A H20A 122.0 . . ?
C16 C21A H21A 119.1 . . ?
C20A C21A C16 121.7(8) . . ?
C20A C21A H21A 119.1 . . ?
C19 C18A C17A 119.5(8) . . ?
C19 C18A H18A 120.3 . . ?
C17A C18A H18A 120.3 . . ?
C16 C17 H17 120.8 . . ?
C18 C17 C16 118.5(8) . . ?
C18 C17 H17 120.8 . . ?
N11 C50 C51 112.1(15) . . ?
N11 C50 H50 124.0 . . ?
C51 C50 H50 124.0 . . ?
C47 C46 H46 119.9 . . ?
C45 C46 C47 120.1(10) . . ?
C45 C46 H46 119.9 . . ?
C47 C48A H48A 120.4 . . ?
C47 C48A C49A 119.2(11) . . ?
C49A C48A H48A 120.4 . . ?
C44 C49A H49A 117.8 . . ?
C48A C49A C44 124.4(10) . . ?
C48A C49A H49A 117.8 . . ?
N1 C2 H2 125.4 . . ?
C3 C2 N1 109.2(9) . . ?
C3 C2 H2 125.4 . . ?
N2 C3 H3 126.6 . . ?
C2 C3 N2 106.9(9) . . ?
C2 C3 H3 126.6 . . ?
C44 C45A H45A 117.5 . . ?
C46A C45A C44 125.0(12) . . ?
C46A C45A H45A 117.5 . . ?
C47 C46A H46A 121.7 . . ?
C45A C46A C47 116.5(11) . . ?
C45A C46A H46A 121.7 . . ?
N11 C52 H52 124.5 . . ?
N10 C52 N11 111.0(13) . . ?
N10 C52 H52 124.5 . . ?
N11 C50A H50A 125.7 . . ?
C51A C50A N11 108.6(14) . . ?
C51A C50A H50A 125.7 . . ?
N10A C51A H51A 125.9 . . ?
C50A C51A N10A 108.3(18) . . ?
C50A C51A H51A 125.9 . . ?
C51 N10 H10 127.6 . . ?
C52 N10 C51 104.7(14) . . ?
C52 N10 H10 127.6 . . ?
Cd2 O1 H1A 109.5 . . ?
loop_
_geom_bond_atom_site_label_1
_geom_bond_atom_site_label_2
_geom_bond_distance
_geom_bond_site_symmetry_2
_geom_bond_publ_flag
Cd1 N6 2.212(3) . ?
Cd1 N3 2.213(3) . ?
Cd1 N9 2.232(3) . ?
Cd1 N12 2.213(4) . ?
Cd1 N7 2.280(3) 16_645 ?
Cd2 Br1 2.6871(8) . ?
Cd2 Br2 2.920(7) . ?
Cd2 N1 2.324(4) . ?
Cd2 N1 2.324(4) 12_655 ?
Cd2 N4 2.355(4) 9_666 ?
Cd2 N4 2.355(4) 4_566 ?
Cd2 O1 2.485(17) . ?
N6 C28 1.377(5) . ?
N6 C25 1.364(5) . ?
N3 C11 1.361(5) . ?
N3 C14 1.354(5) . ?
N9 C39 1.374(5) . ?
N9 C42 1.361(5) . ?
N12 C56 1.369(5) . ?
N12 C53 1.367(5) . ?
N8 C33 1.431(5) . ?
N8 C38 1.354(5) . ?
N8 C36 1.378(6) . ?
N1 C1 1.299(6) . ?
N1 C4A 1.431(14) . ?
N1 C2 1.350(12) . ?
N2 C4 1.427(5) . ?
N2 C1 1.357(6) . ?
N2 C3A 1.330(14) . ?
N2 C3 1.442(12) . ?
C29 C39 1.409(6) . ?
C29 C28 1.415(5) . ?
C29 C30 1.498(5) . ?
N4 C22 1.300(7) . ?
N4 C23 1.327(7) . ?
C39 C40 1.449(5) . ?
N7 C38 1.299(5) . ?
N7 C37 1.368(7) . ?
C28 C27 1.427(6) . ?
C25 C15 1.411(5) . ?
C25 C26 1.436(7) . ?
C30 C31 1.380(6) . ?
C30 C35 1.389(6) . ?
C56 C10 1.417(6) . ?
C56 C55 1.433(7) . ?
C11 C10 1.409(7) . ?
C11 C12 1.457(6) . ?
C33 C32 1.366(6) . ?
C33 C34 1.386(6) . ?
N5 C19 1.439(6) . ?
N5 C22 1.331(6) . ?
N5 C24 1.326(7) . ?
C32 H32 0.9500 . ?
C32 C31 1.399(6) . ?
C40 H40 0.9500 . ?
C40 C41 1.361(6) . ?
C15 C14 1.428(6) . ?
C15 C16 1.494(6) . ?
C42 C41 1.451(6) . ?
C42 C43 1.418(6) . ?
C53 C43 1.411(6) . ?
C53 C54 1.435(7) . ?
C31 H31 0.9500 . ?
C10 C7 1.498(6) . ?
C8 H8 0.9500 . ?
C8 C9 1.376(6) . ?
C8 C7 1.383(6) . ?
C14 C13 1.442(6) . ?
C41 H41 0.9500 . ?
C43 C44 1.496(6) . ?
C38 H38 0.9500 . ?
C9 H9 0.9500 . ?
C9 C4 1.388(5) . ?
C4 C5 1.377(6) . ?
C16 C17A 1.397(10) . ?
C16 C21 1.297(10) . ?
C16 C21A 1.438(10) . ?
C16 C17 1.432(10) . ?
C55 H55 0.9500 . ?
C55 C54 1.370(7) . ?
C35 H35 0.9500 . ?
C35 C34 1.387(6) . ?
C7 C6 1.393(6) . ?
C34 H34 0.9500 . ?
C1 H1 0.9500 . ?
C27 H27 0.9500 . ?
C27 C26 1.357(7) . ?
C54 H54 0.9500 . ?
N11 C47 1.436(7) . ?
N11 C52A 1.292(15) . ?
N11 C50 1.285(15) . ?
N11 C52 1.472(15) . ?
N11 C50A 1.370(16) . ?
C13 H13 0.9500 . ?
C13 C12 1.329(8) . ?
C36 H36 0.9500 . ?
C36 C37 1.353(7) . ?
C19 C20 1.330(10) . ?
C19 C18 1.445(11) . ?
C19 C20A 1.415(11) . ?
C19 C18A 1.295(10) . ?
C44 C49 1.419(12) . ?
C44 C45 1.345(13) . ?
C44 C49A 1.407(13) . ?
C44 C45A 1.386(13) . ?
C26 H26 0.9500 . ?
C6 H6 0.9500 . ?
C6 C5 1.378(7) . ?
C47 C48 1.401(12) . ?
C47 C46 1.458(14) . ?
C47 C48A 1.292(13) . ?
C47 C46A 1.400(14) . ?
C12 H12 0.9500 . ?
C5 H5 0.9500 . ?
C37 H37 0.9500 . ?
C22 H22 0.9500 . ?
C24 H24 0.9500 . ?
C24 C23 1.364(8) . ?
C23 H23 0.9500 . ?
C4A H4A 0.9500 . ?
C4A C3A 1.335(16) . ?
C3A H3A 0.9500 . ?
N10A H10A 0.8800 . ?
N10A C52A 1.34(2) . ?
N10A C51A 1.33(3) . ?
C51 H51 0.9500 . ?
C51 C50 1.34(2) . ?
C51 N10 1.40(3) . ?
C49 H49 0.9500 . ?
C49 C48 1.380(13) . ?
C17A H17A 0.9500 . ?
C17A C18A 1.384(12) . ?
C21 H21 0.9500 . ?
C21 C20 1.399(12) . ?
C20 H20 0.9500 . ?
C48 H48 0.9500 . ?
C45 H45 0.9500 . ?
C45 C46 1.419(15) . ?
C52A H52A 0.9500 . ?
C18 H18 0.9500 . ?
C18 C17 1.382(14) . ?
C20A H20A 0.9500 . ?
C20A C21A 1.399(12) . ?
C21A H21A 0.9500 . ?
C18A H18A 0.9500 . ?
C17 H17 0.9500 . ?
C50 H50 0.9500 . ?
C46 H46 0.9500 . ?
C48A H48A 0.9500 . ?
C48A C49A 1.373(15) . ?
C49A H49A 0.9500 . ?
C2 H2 0.9500 . ?
C2 C3 1.340(15) . ?
C3 H3 0.9500 . ?
C45A H45A 0.9500 . ?
C45A C46A 1.379(18) . ?
C46A H46A 0.9500 . ?
C52 H52 0.9500 . ?
C52 N10 1.292(19) . ?
C50A H50A 0.9500 . ?
C50A C51A 1.30(2) . ?
C51A H51A 0.9500 . ?
N10 H10 0.8800 . ?
O1 H1A 0.8400 . ?
loop_
_geom_torsion_atom_site_label_1
_geom_torsion_atom_site_label_2
_geom_torsion_atom_site_label_3
_geom_torsion_atom_site_label_4
_geom_torsion
_geom_torsion_site_symmetry_1
_geom_torsion_site_symmetry_2
_geom_torsion_site_symmetry_3
_geom_torsion_site_symmetry_4
_geom_torsion_publ_flag
Cd1 N6 C28 C29 19.8(5) . . . . ?
Cd1 N6 C28 C27 -163.8(3) . . . . ?
Cd1 N6 C25 C15 -15.8(6) . . . . ?
Cd1 N6 C25 C26 163.3(3) . . . . ?
Cd1 N3 C11 C10 -22.6(6) . . . . ?
Cd1 N3 C11 C12 160.7(4) . . . . ?
Cd1 N3 C14 C15 18.7(6) . . . . ?
Cd1 N3 C14 C13 -162.2(4) . . . . ?
Cd1 N9 C39 C29 -27.9(5) . . . . ?
Cd1 N9 C39 C40 154.1(3) . . . . ?
Cd1 N9 C42 C41 -154.1(3) . . . . ?
Cd1 N9 C42 C43 26.4(5) . . . . ?
Cd1 N12 C56 C10 9.9(6) . . . . ?
Cd1 N12 C56 C55 -175.2(3) . . . . ?
Cd1 N12 C53 C43 -4.7(6) . . . . ?
Cd1 N12 C53 C54 175.2(3) . . . . ?
Cd1 N7 C38 N8 -165.8(3) 16_655 . . . ?
Cd1 N7 C37 C36 166.3(4) 16_655 . . . ?
Cd2 N1 C1 N2 179.3(3) . . . . ?
Cd2 N1 C4A C3A 179.2(8) . . . . ?
Cd2 N1 C2 C3 -175.5(8) . . . . ?
Cd2 N4 C22 N5 176.4(4) 9_666 . . . ?
Cd2 N4 C23 C24 -178.4(5) 9_666 . . . ?
N6 C28 C27 C26 0.1(6) . . . . ?
N6 C25 C15 C14 -1.5(7) . . . . ?
N6 C25 C15 C16 -178.7(4) . . . . ?
N6 C25 C26 C27 -0.5(6) . . . . ?
N3 C11 C10 C56 -6.2(7) . . . . ?
N3 C11 C10 C7 178.7(4) . . . . ?
N3 C11 C12 C13 3.4(7) . . . . ?
N3 C14 C13 C12 1.5(7) . . . . ?
N9 C39 C40 C41 2.6(4) . . . . ?
N9 C42 C41 C40 0.0(5) . . . . ?
N9 C42 C43 C53 -7.2(7) . . . . ?
N9 C42 C43 C44 166.7(4) . . . . ?
N12 C56 C10 C11 13.3(7) . . . . ?
N12 C56 C10 C7 -171.5(4) . . . . ?
N12 C56 C55 C54 -1.5(6) . . . . ?
N12 C53 C43 C42 -4.8(7) . . . . ?
N12 C53 C43 C44 -178.6(4) . . . . ?
N12 C53 C54 C55 1.3(6) . . . . ?
N8 C33 C32 C31 175.3(4) . . . . ?
N8 C33 C34 C35 -176.3(4) . . . . ?
N8 C36 C37 N7 0.8(8) . . . . ?
N1 C4A C3A N2 -4.9(14) . . . . ?
N1 C2 C3 N2 -0.1(14) . . . . ?
N2 C4 C5 C6 178.8(6) . . . . ?
C29 C39 C40 C41 -175.4(4) . . . . ?
C29 C28 C27 C26 176.5(5) . . . . ?
C29 C30 C31 C32 -175.2(4) . . . . ?
C29 C30 C35 C34 174.2(4) . . . . ?
C39 N9 C42 C41 1.6(4) . . . . ?
C39 N9 C42 C43 -178.0(4) . . . . ?
C39 C29 C28 N6 7.3(6) . . . . ?
C39 C29 C28 C27 -168.5(4) . . . . ?
C39 C29 C30 C31 69.4(5) . . . . ?
C39 C29 C30 C35 -108.9(5) . . . . ?
C39 C40 C41 C42 -1.5(5) . . . . ?
C28 N6 C25 C15 -178.5(4) . . . . ?
C28 N6 C25 C26 0.6(5) . . . . ?
C28 C29 C39 N9 -2.5(6) . . . . ?
C28 C29 C39 C40 175.1(4) . . . . ?
C28 C29 C30 C31 -112.2(5) . . . . ?
C28 C29 C30 C35 69.4(5) . . . . ?
C28 C27 C26 C25 0.2(6) . . . . ?
C25 N6 C28 C29 -176.8(4) . . . . ?
C25 N6 C28 C27 -0.4(5) . . . . ?
C25 C15 C14 N3 -0.3(7) . . . . ?
C25 C15 C14 C13 -179.2(5) . . . . ?
C25 C15 C16 C17A -61.0(7) . . . . ?
C25 C15 C16 C21 56.7(7) . . . . ?
C25 C15 C16 C21A 113.9(6) . . . . ?
C25 C15 C16 C17 -126.4(6) . . . . ?
C30 C29 C39 N9 175.7(3) . . . . ?
C30 C29 C39 C40 -6.7(5) . . . . ?
C30 C29 C28 N6 -170.8(4) . . . . ?
C30 C29 C28 C27 13.4(6) . . . . ?
C30 C35 C34 C33 1.9(8) . . . . ?
C56 N12 C53 C43 177.9(4) . . . . ?
C56 N12 C53 C54 -2.2(5) . . . . ?
C56 C10 C7 C8 63.4(6) . . . . ?
C56 C10 C7 C6 -118.6(6) . . . . ?
C56 C55 C54 C53 0.1(6) . . . . ?
C11 N3 C14 C15 -178.4(4) . . . . ?
C11 N3 C14 C13 0.7(5) . . . . ?
C11 C10 C7 C8 -121.0(5) . . . . ?
C11 C10 C7 C6 57.0(7) . . . . ?
C33 N8 C38 N7 173.0(4) . . . . ?
C33 N8 C36 C37 -172.8(5) . . . . ?
C33 C32 C31 C30 0.1(7) . . . . ?
N5 C19 C20 C21 -174.6(7) . . . . ?
N5 C19 C18 C17 174.7(8) . . . . ?
N5 C19 C20A C21A -177.0(7) . . . . ?
N5 C19 C18A C17A 176.8(6) . . . . ?
N5 C24 C23 N4 0.9(9) . . . . ?
C32 C33 C34 C35 1.5(7) . . . . ?
C15 C25 C26 C27 178.6(5) . . . . ?
C15 C14 C13 C12 -179.4(5) . . . . ?
C15 C16 C17A C18A -177.8(7) . . . . ?
C15 C16 C21 C20 177.4(7) . . . . ?
C15 C16 C21A C20A 177.2(7) . . . . ?
C15 C16 C17 C18 -177.6(7) . . . . ?
C42 N9 C39 C29 175.4(3) . . . . ?
C42 N9 C39 C40 -2.5(4) . . . . ?
C42 C43 C44 C49 -53.9(7) . . . . ?
C42 C43 C44 C45 127.7(7) . . . . ?
C42 C43 C44 C49A -98.2(8) . . . . ?
C42 C43 C44 C45A 88.1(10) . . . . ?
C53 N12 C56 C10 -172.7(4) . . . . ?
C53 N12 C56 C55 2.3(5) . . . . ?
C53 C43 C44 C49 120.6(6) . . . . ?
C53 C43 C44 C45 -57.9(8) . . . . ?
C53 C43 C44 C49A 76.3(9) . . . . ?
C53 C43 C44 C45A -97.4(10) . . . . ?
C31 C30 C35 C34 -4.2(7) . . . . ?
C10 C56 C55 C54 173.5(5) . . . . ?
C10 C11 C12 C13 -173.3(5) . . . . ?
C10 C7 C6 C5 179.0(6) . . . . ?
C8 C9 C4 N2 -179.8(4) . . . . ?
C8 C9 C4 C5 -1.9(8) . . . . ?
C8 C7 C6 C5 -3.0(10) . . . . ?
C14 N3 C11 C10 174.3(4) . . . . ?
C14 N3 C11 C12 -2.4(5) . . . . ?
C14 C15 C16 C17A 121.4(6) . . . . ?
C14 C15 C16 C21 -120.9(6) . . . . ?
C14 C15 C16 C21A -63.7(7) . . . . ?
C14 C15 C16 C17 56.0(7) . . . . ?
C14 C13 C12 C11 -2.9(7) . . . . ?
C41 C42 C43 C53 173.4(4) . . . . ?
C41 C42 C43 C44 -12.7(6) . . . . ?
C43 C42 C41 C40 179.6(4) . . . . ?
C43 C53 C54 C55 -178.8(5) . . . . ?
C43 C44 C49 C48 179.9(8) . . . . ?
C43 C44 C45 C46 177.8(8) . . . . ?
C43 C44 C49A C48A 174.2(11) . . . . ?
C43 C44 C45A C46A -177.0(12) . . . . ?
C38 N8 C33 C32 -144.1(5) . . . . ?
C38 N8 C33 C34 33.8(7) . . . . ?
C38 N8 C36 C37 -1.3(7) . . . . ?
C38 N7 C37 C36 0.0(7) . . . . ?
C9 C8 C7 C10 -179.9(5) . . . . ?
C9 C8 C7 C6 2.0(8) . . . . ?
C9 C4 C5 C6 0.9(9) . . . . ?
C4 N2 C1 N1 -179.0(4) . . . . ?
C4 N2 C3A C4A -173.1(8) . . . . ?
C4 N2 C3 C2 173.1(8) . . . . ?
C16 C15 C14 N3 177.1(4) . . . . ?
C16 C15 C14 C13 -1.9(7) . . . . ?
C16 C17A C18A C19 0.2(13) . . . . ?
C16 C21 C20 C19 -1.4(13) . . . . ?
C55 C56 C10 C11 -160.8(5) . . . . ?
C55 C56 C10 C7 14.3(6) . . . . ?
C35 C30 C31 C32 3.2(7) . . . . ?
C7 C8 C9 C4 0.4(8) . . . . ?
C7 C6 C5 C4 1.6(11) . . . . ?
C34 C33 C32 C31 -2.4(7) . . . . ?
C1 N1 C4A C3A 11.5(12) . . . . ?
C1 N1 C2 C3 -7.9(12) . . . . ?
C1 N2 C4 C9 150.1(5) . . . . ?
C1 N2 C4 C5 -27.8(8) . . . . ?
C1 N2 C3A C4A -3.6(12) . . . . ?
C1 N2 C3 C2 7.5(11) . . . . ?
C54 C53 C43 C42 175.3(5) . . . . ?
C54 C53 C43 C44 1.5(7) . . . . ?
N11 C47 C48 C49 -178.3(8) . . . . ?
N11 C47 C46 C45 176.0(9) . . . . ?
N11 C47 C48A C49A 178.9(10) . . . . ?
N11 C47 C46A C45A 178.7(11) . . . . ?
N11 C52 N10 C51 1.9(19) . . . . ?
N11 C50A C51A N10A -2(2) . . . . ?
C36 N8 C33 C32 25.9(7) . . . . ?
C36 N8 C33 C34 -156.3(5) . . . . ?
C36 N8 C38 N7 1.4(6) . . . . ?
C19 N5 C22 N4 -176.5(5) . . . . ?
C19 N5 C24 C23 177.7(6) . . . . ?
C19 C18 C17 C16 1.5(14) . . . . ?
C19 C20A C21A C16 0.7(13) . . . . ?
C44 C49 C48 C47 0.5(15) . . . . ?
C44 C45 C46 C47 4.0(16) . . . . ?
C44 C45A C46A C47 -1(2) . . . . ?
C26 C25 C15 C14 179.6(5) . . . . ?
C26 C25 C15 C16 2.3(7) . . . . ?
C47 N11 C52A N10A -179.2(10) . . . . ?
C47 N11 C50 C51 178.7(11) . . . . ?
C47 N11 C52 N10 -180.0(10) . . . . ?
C47 N11 C50A C51A 179.9(12) . . . . ?
C47 C48A C49A C44 6(2) . . . . ?
C12 C11 C10 C56 169.8(5) . . . . ?
C12 C11 C10 C7 -5.3(7) . . . . ?
C37 N7 C38 N8 -0.9(6) . . . . ?
C22 N4 C23 C24 1.5(9) . . . . ?
C22 N5 C19 C20 121.3(8) . . . . ?
C22 N5 C19 C18 -55.4(8) . . . . ?
C22 N5 C19 C20A 63.7(8) . . . . ?
C22 N5 C19 C18A -120.6(7) . . . . ?
C22 N5 C24 C23 -2.9(8) . . . . ?
C24 N5 C19 C20 -59.4(9) . . . . ?
C24 N5 C19 C18 123.9(8) . . . . ?
C24 N5 C19 C20A -117.0(8) . . . . ?
C24 N5 C19 C18A 58.7(9) . . . . ?
C24 N5 C22 N4 4.1(8) . . . . ?
C23 N4 C22 N5 -3.4(8) . . . . ?
C4A N1 C1 N2 -13.7(7) . . . . ?
C3A N2 C4 C9 -42.3(10) . . . . ?
C3A N2 C4 C5 139.8(8) . . . . ?
C3A N2 C1 N1 11.8(8) . . . . ?
C49 C44 C45 C46 -0.6(14) . . . . ?
C17A C16 C21A C20A -7.3(11) . . . . ?
C21 C16 C17 C18 -0.8(13) . . . . ?
C20 C19 C18 C17 -2.1(12) . . . . ?
C48 C47 C46 C45 -5.1(15) . . . . ?
C45 C44 C49 C48 -1.7(13) . . . . ?
C52A N11 C47 C48 149.9(13) . . . . ?
C52A N11 C47 C46 -31.2(15) . . . . ?
C52A N11 C50A C51A 2.0(18) . . . . ?
C52A N10A C51A C50A 1(2) . . . . ?
C18 C19 C20 C21 2.1(12) . . . . ?
C20A C19 C18A C17A -7.9(12) . . . . ?
C21A C16 C17A C18A 7.1(11) . . . . ?
C18A C19 C20A C21A 7.4(12) . . . . ?
C17 C16 C21 C20 0.7(12) . . . . ?
C50 N11 C47 C48A -26.5(16) . . . . ?
C50 N11 C47 C46A 149.5(13) . . . . ?
C50 N11 C52 N10 -1.7(17) . . . . ?
C50 C51 N10 C52 -2(2) . . . . ?
C46 C47 C48 C49 2.8(14) . . . . ?
C48A C47 C46A C45A -5.4(19) . . . . ?
C49A C44 C45A C46A 8.7(19) . . . . ?
C2 N1 C1 N2 13.5(8) . . . . ?
C3 N2 C4 C9 -12.2(10) . . . . ?
C3 N2 C4 C5 169.9(9) . . . . ?
C3 N2 C1 N1 -13.0(8) . . . . ?
C45A C44 C49A C48A -11.3(17) . . . . ?
C46A C47 C48A C49A 3.1(18) . . . . ?
C52 N11 C47 C48A 151.2(12) . . . . ?
C52 N11 C47 C46A -32.8(13) . . . . ?
C52 N11 C50 C51 0.7(17) . . . . ?
C50A N11 C47 C48 -27.6(13) . . . . ?
C50A N11 C47 C46 151.3(11) . . . . ?
C50A N11 C52A N10A -1.3(18) . . . . ?
C51A N10A C52A N11 0(2) . . . . ?
N10 C51 C50 N11 0(2) . . . . ?
loop_
_platon_squeeze_void_nr
_platon_squeeze_void_average_x
_platon_squeeze_void_average_y
_platon_squeeze_void_average_z
_platon_squeeze_void_volume
_platon_squeeze_void_count_electrons
_platon_squeeze_void_content
1 0.000 0.022 0.000 1081 353 ' '
2 0.250 0.049 0.000 591 159 ' '
3 0.500 -0.003 0.000 1081 353 ' '
4 0.750 0.449 0.000 591 159 ' '
5 0.000 0.241 0.500 1081 353 ' '
6 0.500 0.741 0.500 1081 353 ' '
7 0.250 0.900 0.500 591 159 ' '
8 0.750 0.400 0.500 591 159 ' '
