#------------------------------------------------------------------------------
#$Date: 2021-11-17 01:02:15 +0200 (Wed, 17 Nov 2021) $
#$Revision: 270698 $
#$URL: file:///home/coder/svn-repositories/cod/cif/7/12/92/7129262.cif $
#------------------------------------------------------------------------------
#
# This file is available in the Crystallography Open Database (COD),
# http://www.crystallography.net/
#
# All data on this site have been placed in the public domain by the
# contributors.
#
data_7129262
loop_
_publ_author_name
'Xue, Songlin'
'Liu, Ningchao'
'Mei, Peifeng'
'Kuzuhara, Daiki'
'Zhou, Mingbo'
'Pan, Jianming'
'Yamada, Hiroko'
'Qiu, Fengxian'
_publ_section_title
;
 Porphyrin(2.1.2.1) as a novel binucleating ligand: synthesis and
 molecular structures of mono- and di-rhodium(i) complexes
;
_journal_name_full               'Chemical Communications'
_journal_paper_doi               10.1039/D1CC05641G
_journal_year                    2021
_chemical_formula_moiety         'C46 H26 N4 O4 Rh2'
_chemical_formula_sum            'C46 H26 N4 O4 Rh2'
_chemical_formula_weight         904.53
_space_group_crystal_system      triclinic
_space_group_IT_number           2
_space_group_name_Hall           '-P 1'
_space_group_name_H-M_alt        'P -1'
_atom_sites_solution_hydrogens   geom
_atom_sites_solution_primary     dual
_audit_creation_date             2021-06-09
_audit_creation_method
;
Olex2 1.2
(compiled 2018.05.29 svn.r3508 for OlexSys, GUI svn.r5506)
;
_audit_update_record
;
2021-07-19 deposited with the CCDC.	2021-11-03 downloaded from the CCDC.
;
_cell_angle_alpha                90.341(2)
_cell_angle_beta                 104.620(2)
_cell_angle_gamma                98.347(2)
_cell_formula_units_Z            6
_cell_length_a                   13.6924(12)
_cell_length_b                   18.0240(17)
_cell_length_c                   26.204(2)
_cell_measurement_reflns_used    8874
_cell_measurement_temperature    296(2)
_cell_measurement_theta_max      24.716
_cell_measurement_theta_min      2.325
_cell_volume                     6185.1(9)
_computing_cell_refinement       'SAINT v7.68A (Bruker, 2009)'
_computing_data_reduction        'SAINT v7.68A (Bruker, 2009)'
_computing_molecular_graphics    'Olex2 (Dolomanov et al., 2009)'
_computing_publication_material  'Olex2 (Dolomanov et al., 2009)'
_computing_structure_refinement  'ShelXL (Sheldrick, 2015)'
_computing_structure_solution    'ShelXT (Sheldrick, 2015)'
_diffrn_ambient_temperature      296.15
_diffrn_measured_fraction_theta_full 0.999
_diffrn_measured_fraction_theta_max 0.993
_diffrn_measurement_device_type  'Bruker D8 Venture'
_diffrn_measurement_method       '\f and \w scans'
_diffrn_radiation_monochromator  graphite
_diffrn_radiation_type           MoK\a
_diffrn_radiation_wavelength     0.71073
_diffrn_reflns_av_R_equivalents  0.0415
_diffrn_reflns_av_unetI/netI     0.0873
_diffrn_reflns_Laue_measured_fraction_full 0.999
_diffrn_reflns_Laue_measured_fraction_max 0.993
_diffrn_reflns_limit_h_max       18
_diffrn_reflns_limit_h_min       -18
_diffrn_reflns_limit_k_max       23
_diffrn_reflns_limit_k_min       -22
_diffrn_reflns_limit_l_max       31
_diffrn_reflns_limit_l_min       -34
_diffrn_reflns_number            53450
_diffrn_reflns_point_group_measured_fraction_full 0.999
_diffrn_reflns_point_group_measured_fraction_max 0.993
_diffrn_reflns_theta_full        25.242
_diffrn_reflns_theta_max         28.130
_diffrn_reflns_theta_min         1.555
_diffrn_standards_number         0
_exptl_absorpt_coefficient_mu    0.847
_exptl_absorpt_correction_T_max  0.7457
_exptl_absorpt_correction_T_min  0.6354
_exptl_absorpt_correction_type   multi-scan
_exptl_absorpt_process_details
'SADABS-2008/1 (Bruker,2008) was used for absorption correction. wR2(int) was 0.0963 before and 0.0394 after correction. The Ratio of minimum to maximum transmission is 0.8521. The \l/2 correction factor is 0.0015.'
_exptl_crystal_colour            red
_exptl_crystal_density_diffrn    1.457
_exptl_crystal_description       plate
_exptl_crystal_F_000             2712
_exptl_crystal_size_max          0.09
_exptl_crystal_size_mid          0.08
_exptl_crystal_size_min          0.01
_refine_diff_density_max         0.846
_refine_diff_density_min         -0.787
_refine_diff_density_rms         0.083
_refine_ls_extinction_method     none
_refine_ls_goodness_of_fit_ref   0.917
_refine_ls_hydrogen_treatment    constr
_refine_ls_matrix_type           full
_refine_ls_number_parameters     1513
_refine_ls_number_reflns         30021
_refine_ls_number_restraints     0
_refine_ls_restrained_S_all      0.917
_refine_ls_R_factor_all          0.1087
_refine_ls_R_factor_gt           0.0495
_refine_ls_shift/su_max          0.002
_refine_ls_shift/su_mean         0.000
_refine_ls_structure_factor_coef Fsqd
_refine_ls_weighting_details
'w=1/[\s^2^(Fo^2^)+(0.0568P)^2^] where P=(Fo^2^+2Fc^2^)/3'
_refine_ls_weighting_scheme      calc
_refine_ls_wR_factor_gt          0.1034
_refine_ls_wR_factor_ref         0.1266
_reflns_Friedel_coverage         0.000
_reflns_number_gt                16332
_reflns_number_total             30021
_reflns_threshold_expression     'I > 2\s(I)'
_cod_data_source_file            d1cc05641g2.cif
_cod_data_source_block           mo_2106021996_0m
_cod_original_cell_volume        6185.2(10)
_cod_database_code               7129262
_shelx_shelxl_version_number     2016/6
_shelx_space_group_comment
;
The symmetry employed for this shelxl refinement is uniquely defined
by the following loop, which should always be used as a source of
symmetry information in preference to the above space-group names.
They are only intended as comments.
;
_shelx_estimated_absorpt_t_max   0.992
_shelx_estimated_absorpt_t_min   0.928
_olex2_refinement_description
;
1. Fixed Uiso
 At 1.2 times of:
  All C(H) groups
2.a Aromatic/amide H refined with riding coordinates:
 C5(H5), C6(H6), C13(H13), C14(H14), C16(H16), C17(H17), C18(H18), C19(H19),
 C20(H20), C21(H21), C22(H22), C27(H27), C28(H28), C29(H29), C30(H30), C31(H31),
  C32(H32), C35(H35), C36(H36), C37(H37), C38(H38), C40(H40), C41(H41),
 C42(H42), C43(H43), C44(H44), C51(H51), C52(H52), C59(H59), C60(H60), C62(H62),
  C63(H63), C64(H64), C65(H65), C66(H66), C67(H67), C68(H68), C73(H73),
 C74(H74), C75(H75), C76(H76), C77(H77), C78(H78), C81(H81), C82(H82), C83(H83),
  C84(H84), C86(H86), C87(H87), C88(H88), C89(H89), C90(H90), C97(H97),
 C98(H98), C105(H105), C106(H106), C108(H108), C109(H109), C110(H110),
 C111(H111), C112(H112), C113(H113), C114(H114), C119(H119), C120(H120),
 C121(H121), C122(H122), C123(H123), C124(H124), C127(H127), C128(H128),
 C129(H129), C130(H130), C132(H132), C133(H133), C134(H134), C135(H135),
 C136(H136)
;
_shelx_res_file
;
TITL mo_2106021996_0m_a.res in P-1
    mo_2106021996_0m.res
    created by SHELXL-2016/6 at 14:05:46 on 09-Jun-2021
REM Old TITL mo_2106021996_0m in P-1 #2
REM SHELXT solution in P-1
REM R1 0.164, Rweak 0.009, Alpha 0.094, Orientation as input
REM Formula found by SHELXT: C135 N12 O17 Rh6
CELL 0.71073 13.6924 18.024 26.2044 90.341 104.62 98.347
ZERR 6 0.0012 0.0017 0.0023 0.002 0.002 0.002
LATT 1
SFAC C H N O Rh
UNIT 276 156 24 24 12

L.S. 8
PLAN  20
SIZE 0.01 0.08 0.09
TEMP 23
BOND $H
list 4
ABIN
fmap 2
acta
OMIT 0 1 0
OMIT -1 1 1
OMIT -1 -1 1
REM <olex2.extras>
REM <HklSrc "%.\\mo_2106021996_0m.hkl">
REM </olex2.extras>

WGHT    0.056800
FVAR       0.18083
RH1   5    0.893687    0.189184    0.564958    11.00000    0.03914    0.04003 =
         0.04157    0.00626    0.01318    0.00393
RH2   5    0.647539    0.170495    0.544306    11.00000    0.03629    0.05160 =
         0.04592    0.00414    0.01081    0.00312
O1    4    0.690702    0.205392    0.660266    11.00000    0.11860    0.10016 =
         0.04808    0.00381    0.02764    0.01573
O2    4    0.674876    0.021183    0.590230    11.00000    0.15223    0.07227 =
         0.08355    0.03204    0.03526    0.02818
O3    4    0.941282    0.222420    0.680910    11.00000    0.10615    0.10166 =
         0.04316    0.00867    0.01093    0.02468
O4    4    0.941910    0.040736    0.604736    11.00000    0.21553    0.07315 =
         0.08862    0.02577    0.01994    0.06980
N1    3    0.888577    0.298775    0.540890    11.00000    0.03568    0.03447 =
         0.02979   -0.00163    0.01426   -0.00147
N2    3    0.885603    0.159319    0.487145    11.00000    0.03348    0.03311 =
         0.04723    0.00397    0.01219    0.00155
N3    3    0.607878    0.134589    0.465698    11.00000    0.03745    0.03745 =
         0.04805    0.00163    0.00852   -0.00088
N4    3    0.615576    0.276235    0.519396    11.00000    0.03048    0.04662 =
         0.04362   -0.00194    0.00985    0.00260
C1    1    0.939409    0.326487    0.503096    11.00000    0.03153    0.03150 =
         0.03237   -0.00434    0.00838   -0.00163
C2    1    0.971225    0.283061    0.467741    11.00000    0.02664    0.03689 =
         0.03366   -0.00052    0.00903   -0.00073
C3    1    0.944198    0.205190    0.459156    11.00000    0.03184    0.03497 =
         0.04200   -0.00105    0.01125    0.00288
C4    1    0.859843    0.092162    0.460726    11.00000    0.04089    0.02950 =
         0.05472    0.00005    0.00929    0.00542
C5    1    0.900228    0.093037    0.416883    11.00000    0.06762    0.03427 =
         0.06316   -0.01025    0.02695    0.00304
AFIX  43
H5    2    0.892417    0.053090    0.392843    11.00000   -1.20000
AFIX   0
C6    1    0.953422    0.163131    0.415499    11.00000    0.05390    0.03953 =
         0.04989   -0.00033    0.02314    0.00554
AFIX  43
H6    2    0.988683    0.179738    0.390671    11.00000   -1.20000
AFIX   0
C7    1    0.797918    0.025155    0.475755    11.00000    0.04951    0.02975 =
         0.05315    0.00264    0.01018    0.00447
C8    1    0.692211    0.017533    0.467710    11.00000    0.05192    0.03556 =
         0.05518    0.00244    0.01794    0.00393
C9    1    0.629291    0.073870    0.442477    11.00000    0.04120    0.03679 =
         0.05505    0.00002    0.01392   -0.00195
C10   1    0.537097    0.285743    0.474276    11.00000    0.03341    0.05215 =
         0.04755   -0.00212    0.01164    0.00695
C11   1    0.501204    0.233245    0.431919    11.00000    0.02691    0.05735 =
         0.04439    0.00032    0.00501    0.00424
C12   1    0.536222    0.165401    0.426670    11.00000    0.03512    0.04255 =
         0.04737   -0.00164    0.00618   -0.00287
C13   1    0.516360    0.121685    0.378759    11.00000    0.05616    0.05666 =
         0.05087   -0.00420    0.00205    0.00317
AFIX  43
H13   2    0.472226    0.129931    0.346683    11.00000   -1.20000
AFIX   0
C14   1    0.574434    0.065290    0.388821    11.00000    0.07350    0.04664 =
         0.05544   -0.00619    0.00799    0.00619
AFIX  43
H14   2    0.577319    0.028066    0.364747    11.00000   -1.20000
AFIX   0
C15   1    0.418745    0.251593    0.386021    11.00000    0.04118    0.05787 =
         0.05302   -0.00386    0.00670    0.01521
C16   1    0.434003    0.312067    0.355865    11.00000    0.04522    0.08079 =
         0.06542    0.01306    0.00851    0.02101
AFIX  43
H16   2    0.496153    0.343945    0.364701    11.00000   -1.20000
AFIX   0
C17   1    0.358670    0.326339    0.312667    11.00000    0.07260    0.10806 =
         0.06830    0.01743    0.00677    0.03892
AFIX  43
H17   2    0.370698    0.367069    0.292297    11.00000   -1.20000
AFIX   0
C18   1    0.266928    0.280957    0.299852    11.00000    0.06924    0.14679 =
         0.07333   -0.00324   -0.01789    0.04600
AFIX  43
H18   2    0.216516    0.290559    0.270544    11.00000   -1.20000
AFIX   0
C19   1    0.248342    0.221611    0.329587    11.00000    0.05154    0.10987 =
         0.11612   -0.03184   -0.01279    0.00574
AFIX  43
H19   2    0.184559    0.191820    0.321244    11.00000   -1.20000
AFIX   0
C20   1    0.324942    0.205140    0.372776    11.00000    0.04656    0.08119 =
         0.07728   -0.00934   -0.00633    0.00010
AFIX  43
H20   2    0.313094    0.163504    0.392387    11.00000   -1.20000
AFIX   0
C21   1    0.510342    0.357428    0.477730    11.00000    0.04033    0.05974 =
         0.05517   -0.00405    0.00814    0.01440
AFIX  43
H21   2    0.460226    0.377495    0.453287    11.00000   -1.20000
AFIX   0
C22   1    0.571084    0.392399    0.523406    11.00000    0.05130    0.04993 =
         0.06123   -0.00610    0.01778    0.01306
AFIX  43
H22   2    0.570069    0.440717    0.535703    11.00000   -1.20000
AFIX   0
C23   1    0.635082    0.342593    0.548387    11.00000    0.03432    0.04668 =
         0.04286   -0.00455    0.01571   -0.00376
C24   1    0.711006    0.358352    0.600391    11.00000    0.03957    0.05014 =
         0.04327   -0.00655    0.01337   -0.00129
C25   1    0.815634    0.360978    0.607747    11.00000    0.03465    0.03858 =
         0.03670   -0.00412    0.01315   -0.00257
C26   1    0.863145    0.358699    0.562683    11.00000    0.02871    0.03989 =
         0.03099   -0.00414    0.00869   -0.00228
C27   1    0.894299    0.424661    0.539671    11.00000    0.05084    0.03403 =
         0.04640   -0.00036    0.01918    0.00605
AFIX  43
H27   2    0.883506    0.472723    0.547515    11.00000   -1.20000
AFIX   0
C28   1    0.944026    0.405116    0.503162    11.00000    0.04115    0.03957 =
         0.03661   -0.00304    0.01585   -0.00436
AFIX  43
H28   2    0.974855    0.437685    0.482449    11.00000   -1.20000
AFIX   0
C29   1    0.880048    0.380950    0.657511    11.00000    0.04363    0.07007 =
         0.04191   -0.00630    0.00969    0.00311
AFIX  43
H29   2    0.950215    0.383621    0.662612    11.00000   -1.20000
AFIX   0
C30   1    0.841649    0.396840    0.699363    11.00000    0.07043    0.08366 =
         0.03648   -0.01182    0.01255    0.00687
AFIX  43
H30   2    0.885546    0.408367    0.732721    11.00000   -1.20000
AFIX   0
C31   1    0.738499    0.395678    0.691876    11.00000    0.07649    0.09714 =
         0.04144   -0.00905    0.03263    0.01067
AFIX  43
H31   2    0.712399    0.407194    0.719960    11.00000   -1.20000
AFIX   0
C32   1    0.673851    0.377329    0.642453    11.00000    0.05195    0.08386 =
         0.05227   -0.00937    0.02468    0.00647
AFIX  43
H32   2    0.604183    0.377698    0.637268    11.00000   -1.20000
AFIX   0
C33   1    0.672956    0.197524    0.615678    11.00000    0.05687    0.06120 =
         0.05378    0.01209    0.02246    0.00846
C34   1    0.664984    0.075720    0.569819    11.00000    0.05345    0.06688 =
         0.06008    0.00523    0.00964    0.00523
C35   1    0.639083   -0.051984    0.476455    11.00000    0.05474    0.04612 =
         0.08763    0.00849    0.02363   -0.00392
AFIX  43
H35   2    0.568376   -0.058077    0.470168    11.00000   -1.20000
AFIX   0
C36   1    0.689442   -0.110912    0.494056    11.00000    0.07454    0.03975 =
         0.08625    0.01537    0.02175   -0.00913
AFIX  43
H36   2    0.652798   -0.155993    0.500396    11.00000   -1.20000
AFIX   0
C37   1    0.791837   -0.104212    0.502302    11.00000    0.07528    0.03302 =
         0.10068    0.01351    0.01597    0.01063
AFIX  43
H37   2    0.825807   -0.144296    0.514423    11.00000   -1.20000
AFIX   0
C38   1    0.845739   -0.036856    0.492485    11.00000    0.04399    0.04350 =
         0.09158    0.00396    0.00938    0.00632
AFIX  43
H38   2    0.915961   -0.032943    0.497209    11.00000   -1.20000
AFIX   0
C39   1    1.035595    0.323541    0.434747    11.00000    0.03645    0.03510 =
         0.03557   -0.00887    0.01576   -0.00386
C40   1    0.995153    0.369289    0.395387    11.00000    0.04149    0.06141 =
         0.04396    0.00096    0.01717   -0.00575
AFIX  43
H40   2    0.926181    0.373638    0.388012    11.00000   -1.20000
AFIX   0
C41   1    1.056411    0.408944    0.366640    11.00000    0.07443    0.05107 =
         0.05616    0.00742    0.02684   -0.00397
AFIX  43
H41   2    1.028325    0.439538    0.340159    11.00000   -1.20000
AFIX   0
C42   1    1.156844    0.403045    0.377175    11.00000    0.08365    0.06058 =
         0.06979   -0.00377    0.04834   -0.01048
AFIX  43
H42   2    1.197714    0.429948    0.358057    11.00000   -1.20000
AFIX   0
C43   1    1.198645    0.357743    0.415782    11.00000    0.04474    0.08363 =
         0.09565   -0.00734    0.03803   -0.00203
AFIX  43
H43   2    1.267725    0.353851    0.422839    11.00000   -1.20000
AFIX   0
C44   1    1.136923    0.316977    0.444849    11.00000    0.04561    0.05724 =
         0.06838   -0.00314    0.01987    0.00821
AFIX  43
H44   2    1.164998    0.285688    0.470836    11.00000   -1.20000
AFIX   0
C45   1    0.920601    0.214601    0.636512    11.00000    0.05323    0.05364 =
         0.04876    0.01415    0.01254    0.01011
C46   1    0.919948    0.094973    0.587365    11.00000    0.09696    0.06043 =
         0.05552    0.00790    0.02069    0.02424

RH3   5    0.774886    0.780475    0.303913    11.00000    0.04820    0.03945 =
         0.03679   -0.00144    0.00921   -0.00374
RH4   5    0.532958    0.735526    0.289781    11.00000    0.04474    0.04338 =
         0.04178    0.00029    0.01040    0.00777
O5    4    0.589438    0.720879    0.406402    11.00000    0.10728    0.06696 =
         0.04559    0.00072    0.01089    0.00726
O6    4    0.522804    0.885908    0.333695    11.00000    0.18617    0.04832 =
         0.08031   -0.01236    0.04908    0.01043
O7    4    0.838488    0.759677    0.419759    11.00000    0.09355    0.07729 =
         0.04105   -0.00463    0.00658    0.01160
O8    4    0.774357    0.932591    0.347978    11.00000    0.18933    0.05812 =
         0.07264   -0.01733    0.00664    0.01400
N5    3    0.794740    0.675059    0.280113    11.00000    0.04164    0.04096 =
         0.03144    0.00291    0.00778    0.00074
N6    3    0.750879    0.806768    0.224603    11.00000    0.06340    0.03303 =
         0.03888   -0.00009    0.00836   -0.00092
N7    3    0.479443    0.756669    0.210148    11.00000    0.05558    0.04597 =
         0.04484    0.00280    0.01271    0.01781
N8    3    0.519780    0.623213    0.266233    11.00000    0.04145    0.04311 =
         0.03705    0.00237    0.01190    0.01085
C47   1    0.847704    0.665517    0.241380    11.00000    0.03902    0.05101 =
         0.03225    0.00178    0.00678   -0.00204
C48   1    0.858018    0.718057    0.202912    11.00000    0.04179    0.05080 =
         0.03575   -0.00043    0.00870   -0.00815
C49   1    0.810065    0.781092    0.193651    11.00000    0.06340    0.04251 =
         0.03751    0.00174    0.01250   -0.00530
C50   1    0.707509    0.862383    0.198464    11.00000    0.07385    0.04093 =
         0.05407    0.00437    0.01244    0.00277
C51   1    0.736472    0.873352    0.150701    11.00000    0.11266    0.05168 =
         0.04328    0.01375    0.01692    0.00775
AFIX  43
H51   2    0.714940    0.907854    0.125652    11.00000   -1.20000
AFIX   0
C52   1    0.801084    0.824570    0.148140    11.00000    0.09020    0.05178 =
         0.04347    0.00911    0.02441    0.00614
AFIX  43
H52   2    0.833828    0.820175    0.121438    11.00000   -1.20000
AFIX   0
C53   1    0.645600    0.912360    0.217785    11.00000    0.10163    0.03374 =
         0.04837    0.00888    0.01088    0.01709
C54   1    0.540966    0.896229    0.211725    11.00000    0.11499    0.04052 =
         0.04484    0.01007    0.02104    0.02580
C55   1    0.477418    0.825430    0.188732    11.00000    0.07373    0.06033 =
         0.05263    0.01387    0.01745    0.03151
C56   1    0.447488    0.588926    0.221310    11.00000    0.03416    0.05681 =
         0.04185   -0.00017    0.01206    0.00576
C57   1    0.392179    0.627986    0.180299    11.00000    0.03307    0.06248 =
         0.04499   -0.00440    0.01311    0.00988
C58   1    0.406167    0.705300    0.175167    11.00000    0.04148    0.06159 =
         0.04719   -0.00049    0.00805    0.01980
C59   1    0.356590    0.745511    0.132146    11.00000    0.06877    0.08497 =
         0.05850    0.00142   -0.00460    0.03419
AFIX  43
H59   2    0.302926    0.725418    0.103866    11.00000   -1.20000
AFIX   0
C60   1    0.401542    0.818581    0.139669    11.00000    0.10443    0.06468 =
         0.06046    0.00700    0.00136    0.03954
AFIX  43
H60   2    0.385676    0.857029    0.116959    11.00000   -1.20000
AFIX   0
C61   1    0.315128    0.580990    0.136898    11.00000    0.04334    0.07079 =
         0.05263   -0.00947    0.00658    0.01515
C62   1    0.321624    0.584235    0.085035    11.00000    0.05681    0.08490 =
         0.05518   -0.00193    0.00441    0.01885
AFIX  43
H62   2    0.374289    0.616541    0.076746    11.00000   -1.20000
AFIX   0
C63   1    0.250551    0.539898    0.045367    11.00000    0.08253    0.10499 =
         0.04969   -0.02093   -0.00914    0.02742
AFIX  43
H63   2    0.254812    0.543831    0.010599    11.00000   -1.20000
AFIX   0
C64   1    0.175130    0.491016    0.056703    11.00000    0.06888    0.15005 =
         0.10880   -0.06249    0.00177   -0.01185
AFIX  43
H64   2    0.126019    0.463349    0.029519    11.00000   -1.20000
AFIX   0
C65   1    0.170372    0.481779    0.108525    11.00000    0.06276    0.15813 =
         0.11567   -0.05377    0.02275   -0.02354
AFIX  43
H65   2    0.121938    0.445189    0.116594    11.00000   -1.20000
AFIX   0
C66   1    0.239069    0.528019    0.148248    11.00000    0.04968    0.11821 =
         0.08556   -0.02539    0.02121   -0.01097
AFIX  43
H66   2    0.234394    0.523673    0.182929    11.00000   -1.20000
AFIX   0
C67   1    0.449306    0.511138    0.222118    11.00000    0.05577    0.04688 =
         0.05824   -0.00399    0.01413    0.00014
AFIX  43
H67   2    0.408898    0.475367    0.196914    11.00000   -1.20000
AFIX   0
C68   1    0.520494    0.497300    0.266205    11.00000    0.06507    0.03816 =
         0.05813    0.00661    0.01202    0.01150
AFIX  43
H68   2    0.538095    0.450740    0.276609    11.00000   -1.20000
AFIX   0
C69   1    0.562279    0.567040    0.292980    11.00000    0.03731    0.04381 =
         0.04478    0.00278    0.01711    0.00447
C70   1    0.639198    0.574349    0.344582    11.00000    0.05328    0.03725 =
         0.03699    0.00553    0.01500    0.01432
C71   1    0.744209    0.593299    0.349636    11.00000    0.04831    0.03450 =
         0.04060    0.00687    0.01359    0.00575
C72   1    0.788615    0.608934    0.304065    11.00000    0.03724    0.04473 =
         0.03187    0.00236    0.00367   -0.00027
C73   1    0.834936    0.556829    0.281277    11.00000    0.05523    0.04372 =
         0.04654    0.00815    0.01493    0.01022
AFIX  43
H73   2    0.839207    0.507508    0.290688    11.00000   -1.20000
AFIX   0
C74   1    0.872264    0.592697    0.242782    11.00000    0.04308    0.05583 =
         0.04302   -0.00363    0.00876    0.00776
AFIX  43
H74   2    0.907528    0.572426    0.221429    11.00000   -1.20000
AFIX   0
C75   1    0.811989    0.587875    0.398912    11.00000    0.05003    0.05739 =
         0.04083    0.00841    0.00125    0.00739
AFIX  43
H75   2    0.881934    0.599081    0.402516    11.00000   -1.20000
AFIX   0
C76   1    0.776562    0.566177    0.442139    11.00000    0.08391    0.05328 =
         0.03553    0.00918    0.01085    0.01844
AFIX  43
H76   2    0.822582    0.563980    0.474756    11.00000   -1.20000
AFIX   0
C77   1    0.674847    0.548000    0.437343    11.00000    0.08866    0.05685 =
         0.04316    0.01583    0.03143    0.02177
AFIX  43
H77   2    0.651170    0.533561    0.466621    11.00000   -1.20000
AFIX   0
C78   1    0.606169    0.551031    0.388536    11.00000    0.05882    0.06342 =
         0.05031    0.00857    0.02624    0.01598
AFIX  43
H78   2    0.536686    0.537140    0.385304    11.00000   -1.20000
AFIX   0
C79   1    0.569985    0.720963    0.362150    11.00000    0.05341    0.04135 =
         0.05229   -0.00012    0.01471   -0.00001
C80   1    0.527930    0.831602    0.313451    11.00000    0.08906    0.05374 =
         0.04504    0.00109    0.01651    0.01066
C81   1    0.487771    0.952355    0.223262    11.00000    0.14814    0.06258 =
         0.08091    0.01141    0.03590    0.05691
AFIX  43
H81   2    0.417280    0.941964    0.217850    11.00000   -1.20000
AFIX   0
C82   1    0.538336    1.022790    0.242525    11.00000    0.21635    0.06164 =
         0.07243    0.01453    0.05073    0.08155
AFIX  43
H82   2    0.502888    1.059524    0.250755    11.00000   -1.20000
AFIX   0
C83   1    0.641295    1.037232    0.249194    11.00000    0.21679    0.04015 =
         0.06425    0.00461    0.02543    0.03658
AFIX  43
H83   2    0.675967    1.084267    0.262767    11.00000   -1.20000
AFIX   0
C84   1    0.696254    0.984129    0.236420    11.00000    0.15700    0.03719 =
         0.06498   -0.00152    0.01681    0.00908
AFIX  43
H84   2    0.766174    0.996197    0.240227    11.00000   -1.20000
AFIX   0
C85   1    0.923563    0.700673    0.167136    11.00000    0.06053    0.05883 =
         0.04454    0.00714    0.01901   -0.00125
C86   1    0.879996    0.674699    0.115164    11.00000    0.07672    0.06802 =
         0.04672   -0.00532    0.01999   -0.00723
AFIX  43
H86   2    0.809558    0.668878    0.101562    11.00000   -1.20000
AFIX   0
C87   1    0.942137    0.657416    0.083515    11.00000    0.11774    0.08953 =
         0.05936   -0.00752    0.04132    0.00307
AFIX  43
H87   2    0.913199    0.641550    0.048412    11.00000   -1.20000
AFIX   0
C88   1    1.044731    0.663590    0.103605    11.00000    0.12612    0.13646 =
         0.07886    0.00743    0.06126    0.02952
AFIX  43
H88   2    1.085045    0.650021    0.082422    11.00000   -1.20000
AFIX   0
C89   1    1.090174    0.689723    0.155035    11.00000    0.08419    0.19865 =
         0.09116    0.00671    0.04596    0.02955
AFIX  43
H89   2    1.160639    0.695327    0.168478    11.00000   -1.20000
AFIX   0
C90   1    1.026982    0.707481    0.186242    11.00000    0.06644    0.14054 =
         0.06325    0.00041    0.02501    0.00354
AFIX  43
H90   2    1.056331    0.724456    0.221094    11.00000   -1.20000
AFIX   0
C91   1    0.813363    0.762963    0.375243    11.00000    0.04989    0.05383 =
         0.04273   -0.00774    0.00996    0.00291
C92   1    0.772033    0.875738    0.327813    11.00000    0.09416    0.05259 =
         0.04861   -0.00072    0.00861   -0.00983

RH5   5    0.632655    0.259987    0.042389    11.00000    0.07203    0.04411 =
         0.04510    0.00120    0.00455    0.00986
RH6   5    0.684042    0.146790    0.134533    11.00000    0.09375    0.04669 =
         0.04085   -0.00233    0.01329    0.02247
O9    4    0.549704    0.009314    0.081768    11.00000    0.17164    0.09681 =
         0.22989   -0.09882   -0.00158    0.01124
O10   4    0.826099    0.065180    0.095795    11.00000    0.17065    0.11456 =
         0.18865   -0.04640    0.07901    0.05066
O11   4    0.765207    0.186862   -0.010138    11.00000    0.13062    0.14382 =
         0.09755   -0.04278    0.01207    0.06315
O12   4    0.488351    0.143684   -0.030501    11.00000    0.13669    0.13299 =
         0.15307   -0.09728    0.03017   -0.02921
N9    3    0.523714    0.306856    0.069572    11.00000    0.05405    0.04416 =
         0.03876    0.00351   -0.00071   -0.00237
N10   3    0.741565    0.348155    0.082363    11.00000    0.05380    0.04849 =
         0.04527    0.00216    0.00791    0.01003
N11   3    0.794381    0.229170    0.180061    11.00000    0.06723    0.05536 =
         0.04388    0.00145    0.01234    0.02162
N12   3    0.576757    0.188080    0.166825    11.00000    0.06739    0.03511 =
         0.03992   -0.00064    0.00820    0.00269
C93   1    0.531008    0.383656    0.080381    11.00000    0.05407    0.04650 =
         0.04067    0.00137    0.00299    0.00374
C94   1    0.619806    0.435049    0.088931    11.00000    0.04896    0.05223 =
         0.03195    0.00403    0.00648    0.00736
C95   1    0.716408    0.418344    0.092205    11.00000    0.05834    0.04314 =
         0.05106   -0.00110    0.00906    0.00102
C96   1    0.844835    0.356217    0.092460    11.00000    0.05882    0.07298 =
         0.05690   -0.00081    0.01153    0.01729
C97   1    0.886738    0.431119    0.108239    11.00000    0.04824    0.07792 =
         0.13045   -0.02625    0.01462    0.00193
AFIX  43
H97   2    0.955791    0.450857    0.117324    11.00000   -1.20000
AFIX   0
C98   1    0.808299    0.469560    0.107850    11.00000    0.05415    0.05550 =
         0.09043   -0.00767    0.00887    0.00602
AFIX  43
H98   2    0.813977    0.520444    0.116347    11.00000   -1.20000
AFIX   0
C99   1    0.907321    0.298307    0.088885    11.00000    0.05690    0.08636 =
         0.07147   -0.00732    0.02309    0.01574
C100  1    0.931288    0.248059    0.129561    11.00000    0.07079    0.08771 =
         0.07657   -0.00779    0.03158    0.02412
C101  1    0.891522    0.252859    0.177300    11.00000    0.07145    0.07032 =
         0.06510   -0.00583    0.02802    0.01543
C102  1    0.602740    0.220754    0.217835    11.00000    0.06805    0.03261 =
         0.03943    0.00094    0.00762    0.01296
C103  1    0.700845    0.246954    0.247578    11.00000    0.06597    0.03292 =
         0.03533    0.00264    0.01075    0.01417
C104  1    0.789867    0.251474    0.230460    11.00000    0.07235    0.05549 =
         0.04147   -0.00333    0.01508    0.01276
C105  1    0.886511    0.286384    0.258303    11.00000    0.06494    0.11556 =
         0.06304   -0.02266    0.01592    0.00363
AFIX  43
H105  2    0.904779    0.304959    0.293143    11.00000   -1.20000
AFIX   0
C106  1    0.949616    0.288407    0.225186    11.00000    0.07706    0.13603 =
         0.08692   -0.01866    0.02733    0.00289
AFIX  43
H106  2    1.018150    0.309430    0.233022    11.00000   -1.20000
AFIX   0
C107  1    0.710467    0.279839    0.301459    11.00000    0.04569    0.03764 =
         0.03638    0.00106    0.00937    0.00538
C108  1    0.721329    0.234900    0.344858    11.00000    0.05669    0.03550 =
         0.04300    0.00329    0.00768    0.00633
AFIX  43
H108  2    0.724411    0.184076    0.340744    11.00000   -1.20000
AFIX   0
C109  1    0.727557    0.266036    0.394288    11.00000    0.04207    0.05722 =
         0.03876    0.01242    0.00505    0.00214
AFIX  43
H109  2    0.735414    0.236027    0.423360    11.00000   -1.20000
AFIX   0
C110  1    0.722243    0.340292    0.400556    11.00000    0.04010    0.06501 =
         0.04250   -0.00674    0.00929    0.00427
AFIX  43
H110  2    0.724714    0.360475    0.433683    11.00000   -1.20000
AFIX   0
C111  1    0.713288    0.385232    0.358296    11.00000    0.06233    0.04452 =
         0.05549   -0.00819    0.01493    0.01700
AFIX  43
H111  2    0.711518    0.436174    0.362910    11.00000   -1.20000
AFIX   0
C112  1    0.706858    0.355089    0.308697    11.00000    0.07135    0.03859 =
         0.04242    0.00897    0.01470    0.01726
AFIX  43
H112  2    0.700047    0.385821    0.280017    11.00000   -1.20000
AFIX   0
C113  1    0.511734    0.226840    0.232400    11.00000    0.06834    0.05872 =
         0.04937   -0.00498    0.01072    0.01237
AFIX  43
H113  2    0.507290    0.246229    0.264567    11.00000   -1.20000
AFIX   0
C114  1    0.431481    0.199389    0.191175    11.00000    0.05537    0.07174 =
         0.06069   -0.00557    0.00743    0.00748
AFIX  43
H114  2    0.362409    0.196591    0.189576    11.00000   -1.20000
AFIX   0
C115  1    0.474887    0.175958    0.151204    11.00000    0.07837    0.03793 =
         0.04868    0.00400    0.00862   -0.00154
C116  1    0.409385    0.146414    0.098522    11.00000    0.07241    0.04960 =
         0.05330   -0.00562    0.00060   -0.00871
C117  1    0.383768    0.196819    0.058745    11.00000    0.06518    0.06119 =
         0.04977   -0.00331   -0.00127   -0.01296
C118  1    0.424749    0.278050    0.066873    11.00000    0.06090    0.04916 =
         0.04675    0.00541   -0.00272   -0.00939
C119  1    0.368950    0.333338    0.075924    11.00000    0.04806    0.07467 =
         0.07657    0.00300    0.01209   -0.00300
AFIX  43
H119  2    0.300557    0.326412    0.076416    11.00000   -1.20000
AFIX   0
C120  1    0.434375    0.399756    0.083940    11.00000    0.05530    0.05736 =
         0.06004    0.00645    0.00501    0.01113
AFIX  43
H120  2    0.418524    0.446758    0.090506    11.00000   -1.20000
AFIX   0
C121  1    0.310499    0.170701    0.012308    11.00000    0.09547    0.09207 =
         0.06240   -0.00215   -0.00894   -0.02742
AFIX  43
H121  2    0.290892    0.204133   -0.013878    11.00000   -1.20000
AFIX   0
C122  1    0.266946    0.096866    0.004554    11.00000    0.12642    0.11042 =
         0.07738   -0.02341   -0.00332   -0.04805
AFIX  43
H122  2    0.219760    0.080130   -0.027058    11.00000   -1.20000
AFIX   0
C123  1    0.293329    0.047447    0.043799    11.00000    0.13884    0.07966 =
         0.10594   -0.02639    0.00795   -0.05126
AFIX  43
H123  2    0.264547   -0.002890    0.038442    11.00000   -1.20000
AFIX   0
C124  1    0.362513    0.072404    0.091181    11.00000    0.12828    0.06463 =
         0.07802   -0.00110    0.00628   -0.02350
AFIX  43
H124  2    0.377524    0.039316    0.118158    11.00000   -1.20000
AFIX   0
C125  1    0.594133    0.064447    0.101357    11.00000    0.12017    0.06380 =
         0.09609   -0.03198    0.01208    0.02116
C126  1    0.777150    0.101552    0.110826    11.00000    0.12752    0.06855 =
         0.08401   -0.01694    0.03056    0.03278
C127  1    1.004926    0.201404    0.129219    11.00000    0.13216    0.10977 =
         0.10775    0.01679    0.06291    0.06482
AFIX  43
H127  2    1.021976    0.169045    0.156469    11.00000   -1.20000
AFIX   0
C128  1    1.051845    0.203766    0.088320    11.00000    0.12413    0.11706 =
         0.14001    0.00421    0.07541    0.05932
AFIX  43
H128  2    1.099476    0.172049    0.087808    11.00000   -1.20000
AFIX   0
C129  1    1.029259    0.252050    0.048600    11.00000    0.12405    0.12380 =
         0.11755    0.00372    0.07585    0.04462
AFIX  43
H129  2    1.061487    0.253244    0.021274    11.00000   -1.20000
AFIX   0
C130  1    0.958968    0.298747    0.049114    11.00000    0.08759    0.10419 =
         0.07805    0.01155    0.03889    0.02603
AFIX  43
H130  2    0.945101    0.331896    0.022082    11.00000   -1.20000
AFIX   0
C131  1    0.613141    0.515881    0.097894    11.00000    0.04394    0.04699 =
         0.03984   -0.00390    0.00321    0.00190
C132  1    0.626336    0.547101    0.148270    11.00000    0.04740    0.06681 =
         0.03917    0.00675    0.00888    0.00432
AFIX  43
H132  2    0.639769    0.517466    0.177415    11.00000   -1.20000
AFIX   0
C133  1    0.619506    0.622289    0.155126    11.00000    0.04935    0.06322 =
         0.05432   -0.01468    0.01441    0.00006
AFIX  43
H133  2    0.629553    0.642862    0.189021    11.00000   -1.20000
AFIX   0
C134  1    0.598132    0.666891    0.112646    11.00000    0.05372    0.05033 =
         0.06712   -0.00917    0.00722    0.00422
AFIX  43
H134  2    0.592199    0.717077    0.117329    11.00000   -1.20000
AFIX   0
C135  1    0.585700    0.635536    0.062972    11.00000    0.07831    0.05271 =
         0.05454    0.00691    0.00129    0.01067
AFIX  43
H135  2    0.571746    0.665248    0.033896    11.00000   -1.20000
AFIX   0
C136  1    0.593470    0.560955    0.055311    11.00000    0.07273    0.04802 =
         0.03866   -0.00006   -0.00194    0.00240
AFIX  43
H136  2    0.585425    0.541131    0.021398    11.00000   -1.20000
AFIX   0
C137  1    0.721712    0.218609    0.012173    11.00000    0.09494    0.07318 =
         0.06138   -0.01041    0.00211    0.02345
C138  1    0.537955    0.187928   -0.000929    11.00000    0.09773    0.06064 =
         0.09145   -0.02431    0.01468    0.00893
HKLF 4




REM  mo_2106021996_0m_a.res in P-1
REM R1 =  0.0495 for   16332 Fo > 4sig(Fo)  and  0.1087 for all   30021 data
REM   1513 parameters refined using      0 restraints

END

WGHT      0.0496      0.0000

REM Highest difference peak  0.846,  deepest hole -0.787,  1-sigma level  0.083
Q1    1   0.6147  0.1273  0.1243  11.00000  0.05    0.85
Q2    1   0.8361  0.6668  0.3972  11.00000  0.05    0.55
Q3    1   0.1416  0.5538  0.0950  11.00000  0.05    0.45
Q4    1   0.7286  0.7989  0.3055  11.00000  0.05    0.45
Q5    1   0.7621  0.7893  0.2688  11.00000  0.05    0.45
Q6    1   0.7201  0.8968  0.2110  11.00000  0.05    0.44
Q7    1   0.9825  0.1878  0.6776  11.00000  0.05    0.44
Q8    1   0.6436  0.2604  0.0806  11.00000  0.05    0.43
Q9    1   0.5839  0.6209  0.3830  11.00000  0.05    0.43
Q10   1   0.9221  0.1900  0.5982  11.00000  0.05    0.43
Q11   1   0.8761  0.1949  0.5298  11.00000  0.05    0.43
Q12   1   1.0060  0.7574  0.1763  11.00000  0.05    0.42
Q13   1   0.8380  0.2980  0.4709  11.00000  0.05    0.41
Q14   1   0.7966  0.7778  0.3398  11.00000  0.05    0.41
Q15   1   0.5830  0.2357  0.0366  11.00000  0.05    0.40
Q16   1   0.6467  0.1301  0.5486  11.00000  0.05    0.39
Q17   1   0.3180  0.1350  0.4158  11.00000  0.05    0.39
Q18   1   0.5981 -0.1325  0.4744  11.00000  0.05    0.38
Q19   1   0.5623  0.2179  0.5323  11.00000  0.05    0.38
Q20   1   0.4249  0.6282  0.0475  11.00000  0.05    0.37
;
_shelx_res_checksum              30756
_shelx_fab_file
;
-18 1 8 -1.8124 -0.0429
-18 1 9 4.0757 0.1075
-18 1 10 -1.1780 0.0231
-18 2 6 1.2003 0.0449
-18 2 7 -6.7636 -0.0449
-18 2 8 1.7647 -0.0791
-18 2 9 3.5879 0.0410
-18 2 10 -3.1535 0.1456
-18 2 11 -4.0382 0.0641
-18 3 5 6.3833 -0.0290
-18 3 6 0.3113 -0.0299
-18 3 7 -4.1985 0.0358
-18 3 8 1.1799 0.0076
-18 3 9 1.9782 -0.0711
-18 3 10 -0.5730 0.0331
-18 3 11 -4.3559 0.1467
-18 3 12 -2.2621 -0.0650
-18 4 5 3.6466 0.0930
-18 4 6 -1.8526 -0.0516
-18 4 7 -0.1799 -0.0639
-18 4 8 2.3649 0.0078
-18 4 9 -0.8272 -0.0205
-18 4 10 -2.6228 0.0085
-18 4 11 -4.6788 0.1261
-18 4 12 -0.1090 -0.0336
-18 5 5 -1.3605 0.0954
-18 5 6 -3.0208 -0.1123
-18 5 7 3.0128 -0.0962
-18 5 8 1.4487 0.1578
-18 5 9 -1.2974 0.0996
-18 5 10 0.4147 -0.1499
-18 5 11 -2.7124 -0.0274
-18 6 7 0.9044 -0.1203
-18 6 8 1.1382 0.0761
-18 6 9 1.8771 0.1746
-17 -4 4 -1.2247 -0.0708
-17 -4 5 -0.7639 0.0928
-17 -4 6 0.6911 0.1195
-17 -4 7 -3.4562 -0.0654
-17 -4 8 -6.7624 -0.1289
-17 -4 9 1.0862 0.0289
-17 -4 10 3.7049 0.0338
-17 -4 11 -0.0312 -0.1146
-17 -4 12 -0.6172 0.0408
-17 -4 13 -2.1289 0.1641
-17 -3 2 -1.4550 0.0660
-17 -3 3 -3.7045 0.2138
-17 -3 4 -0.3480 0.0893
-17 -3 5 1.4050 -0.0615
-17 -3 6 -1.0087 0.0179
-17 -3 7 -4.7283 0.0291
-17 -3 8 -3.2353 -0.1096
-17 -3 9 0.6056 -0.0091
-17 -3 10 -1.6680 0.1398
-17 -3 11 -1.0325 -0.0130
-17 -3 12 0.0052 -0.0560
-17 -3 13 -1.6543 0.0856
-17 -3 14 -0.9868 -0.0660
-17 -3 15 -2.9292 -0.2107
-17 -3 16 -0.6963 0.0032
-17 -2 1 -1.1222 -0.1411
-17 -2 2 -2.4107 0.0556
-17 -2 3 -1.5635 0.1785
-17 -2 4 2.2917 0.0264
-17 -2 5 -0.3886 -0.1510
-17 -2 6 -2.4590 -0.0074
-17 -2 7 -1.1102 0.1120
-17 -2 8 -1.1728 -0.0352
-17 -2 9 -4.5056 -0.0524
-17 -2 10 -2.0699 0.1080
-17 -2 11 4.4338 0.0697
-17 -2 12 -2.1845 -0.0382
-17 -2 13 -5.4880 0.0040
-17 -2 14 0.2818 0.0036
-17 -2 15 -1.4563 -0.0286
-17 -2 16 -0.4715 0.0096
-17 -2 17 0.8178 0.0177
-17 -1 1 2.9039 -0.0726
-17 -1 2 0.8871 -0.2643
-17 -1 3 -1.9818 -0.0749
-17 -1 4 -0.2176 0.1318
-17 -1 5 -0.1059 -0.0159
-17 -1 6 -1.4377 -0.1202
-17 -1 7 -1.5881 0.0309
-17 -1 8 0.5390 0.0609
-17 -1 9 -2.4285 -0.0701
-17 -1 10 -1.5393 -0.0114
-17 -1 11 1.9687 0.1062
-17 -1 12 -4.2837 0.0288
-17 -1 13 -2.2685 -0.0652
-17 -1 14 1.6402 -0.0089
-17 -1 15 -3.0461 0.0771
-17 -1 16 0.0767 0.0293
-17 -1 17 1.3524 -0.0578
-17 -1 18 -3.1865 0.0168
-17 0 1 1.6209 0.0994
-17 0 2 -0.7199 -0.1387
-17 0 3 -0.3610 -0.1991
-17 0 4 0.7528 0.0697
-17 0 5 0.9885 0.1210
-17 0 6 -1.1343 -0.1225
-17 0 7 -0.9134 -0.1218
-17 0 8 2.0615 0.0765
-17 0 9 -3.9529 0.0345
-17 0 10 -3.1738 -0.0808
-17 0 11 2.0034 -0.0031
-17 0 12 -2.5396 0.0777
-17 0 13 -0.3824 -0.0337
-17 0 14 1.1660 -0.1019
-17 0 15 -2.4995 0.0688
-17 0 16 0.1927 0.1366
-17 0 17 0.2098 -0.0999
-17 0 18 -3.8915 -0.1808
-17 0 19 -4.9516 0.1138
-17 1 1 -3.1250 0.3161
-17 1 2 3.1542 0.1527
-17 1 3 4.1265 -0.1811
-17 1 4 1.8426 -0.0712
-17 1 5 4.0486 0.1318
-17 1 6 -1.6017 -0.0258
-17 1 7 -5.0799 -0.1188
-17 1 8 1.3217 0.0551
-17 1 9 -0.0813 0.0888
-17 1 10 -0.3994 -0.0599
-17 1 11 -0.5141 -0.0805
-17 1 12 -3.5555 0.0352
-17 1 13 0.8443 0.0316
-17 1 14 1.9638 -0.0523
-17 1 15 -0.6783 -0.0202
-17 1 16 -1.4239 0.0389
-17 1 17 -1.8617 -0.0457
-17 1 18 -1.9394 -0.1132
-17 1 19 -3.3531 0.0363
-17 2 1 -0.6596 0.1740
-17 2 2 -0.0419 0.2864
-17 2 3 0.9299 -0.0184
-17 2 4 4.9752 -0.1775
-17 2 5 6.9357 0.0495
-17 2 6 -4.0868 0.1303
-17 2 7 -3.7714 -0.0373
-17 2 8 4.9478 -0.0678
-17 2 9 -0.3822 0.0970
-17 2 10 -3.8630 0.1124
-17 2 11 -1.9872 -0.0806
-17 2 12 0.7252 -0.1293
-17 2 13 2.4421 0.0230
-17 2 14 -0.0575 0.0696
-17 2 15 -0.7152 -0.0272
-17 2 16 -1.8336 -0.0102
-17 2 17 -0.1621 0.0123
-17 2 18 1.5948 -0.0908
-17 2 19 -3.4232 -0.0362
-17 3 1 -5.2579 -0.2325
-17 3 2 -1.7718 0.0770
-17 3 3 2.3612 0.1783
-17 3 4 6.6479 -0.0329
-17 3 5 5.0896 -0.0857
-17 3 6 -4.2149 0.0439
-17 3 7 -0.5070 0.0663
-17 3 8 3.3110 -0.0415
-17 3 9 -2.4436 -0.0015
-17 3 10 -3.4868 0.1248
-17 3 11 -1.4549 0.0209
-17 3 12 2.3386 -0.1728
-17 3 13 0.8437 -0.0616
-17 3 14 -1.8947 0.1311
-17 3 15 1.5182 0.0176
-17 3 16 0.0869 -0.0898
-17 3 17 -1.2565 0.0045
-17 3 18 -0.6032 0.0513
-17 3 19 -1.6588 0.0148
-17 4 1 0.8289 -0.3529
-17 4 2 -1.2570 -0.1511
-17 4 3 -1.5285 0.1465
-17 4 4 4.2767 0.1060
-17 4 5 2.8571 -0.1042
-17 4 6 -1.3997 -0.0905
-17 4 7 3.6379 0.0680
-17 4 8 -0.2265 0.0118
-17 4 9 -5.7679 -0.0817
-17 4 10 -2.5861 0.0606
-17 4 11 0.7667 0.1115
-17 4 12 3.5937 -0.1199
-17 4 13 -0.9364 -0.1463
-17 4 14 -4.4117 0.0451
-17 4 15 -1.5157 0.0340
-17 4 16 -0.8972 -0.0258
-17 4 17 1.8069 0.0101
-17 4 18 2.5750 0.0137
-17 4 19 -0.3081 0.0129
-17 5 1 -1.7972 -0.0943
-17 5 2 -1.9466 -0.2384
-17 5 3 2.1011 -0.0421
-17 5 4 4.6696 0.1927
-17 5 5 -1.9044 0.0052
-17 5 6 -1.6436 -0.1898
-17 5 7 4.3020 0.0048
-17 5 8 -1.2687 0.1305
-17 5 9 -1.4703 -0.0625
-17 5 10 1.6854 -0.0859
-17 5 11 -1.6751 0.0874
-17 5 12 -2.5301 0.0068
-17 5 13 -3.0069 -0.1191
-17 5 14 -1.4109 -0.0629
-17 5 15 0.7173 0.0031
-17 5 16 0.2661 0.0180
-17 5 17 -0.1739 -0.0075
-17 5 18 -1.4202 0.0122
-17 5 19 0.0674 0.0828
-17 6 1 1.6256 0.1955
-17 6 2 1.1303 -0.0865
-17 6 3 0.8536 -0.1481
-17 6 4 2.1728 0.1274
-17 6 5 -3.4338 0.1422
-17 6 6 -1.2659 -0.0978
-17 6 7 5.3352 -0.0649
-17 6 8 1.4385 0.1431
-17 6 9 -0.6786 0.0437
-17 6 10 -1.1261 -0.0892
-17 6 11 -2.5080 0.0030
-17 6 12 -1.0877 0.0218
-17 6 13 1.3677 -0.0427
-17 6 14 2.6749 -0.0737
-17 6 15 -1.8409 -0.0265
-17 6 16 -4.7505 0.0599
-17 6 17 -1.5826 0.0460
-17 6 18 2.0576 0.0033
-17 7 1 4.4493 0.3130
-17 7 2 -0.9996 0.1332
-17 7 3 -1.5949 -0.1229
-17 7 4 2.7693 -0.0212
-17 7 5 -1.2012 0.1597
-17 7 6 -1.2508 0.0348
-17 7 7 1.9283 -0.0405
-17 7 8 -0.9017 0.1392
-17 7 9 -1.3785 0.1024
-17 7 10 1.4293 -0.0555
-17 7 11 2.5461 -0.0535
-17 7 12 0.3198 -0.0073
-17 7 13 0.0844 0.0174
-17 7 14 0.5210 -0.0008
-17 7 15 -1.8775 0.0178
-17 7 16 -0.4307 0.0492
-17 7 17 0.5454 -0.0125
-17 7 18 0.3245 -0.0393
-17 8 1 4.5549 0.0544
-17 8 2 -0.9071 0.1956
-17 8 3 -2.3664 -0.0008
-17 8 4 4.1472 -0.1525
-17 8 5 1.7172 0.0755
-17 8 6 -3.6585 0.1315
-17 8 7 -2.6875 0.0135
-17 8 8 -0.0621 0.0536
-17 8 9 0.2655 0.0480
-17 8 10 1.8861 0.0029
-17 8 11 3.0037 -0.0224
-17 8 12 -1.7525 -0.0154
-17 8 13 -2.2936 0.0506
-17 8 14 2.0477 0.0472
-17 8 15 3.0280 -0.0100
-17 8 16 1.2897 -0.0378
-17 8 17 -1.6840 -0.0110
-17 9 1 5.4063 -0.2160
-17 9 2 0.1862 0.1979
-17 9 3 -1.3645 0.0682
-17 9 4 2.9521 -0.1862
-17 9 5 0.5288 -0.0136
-17 9 6 -1.7780 0.0606
-17 9 7 1.3145 0.0192
-17 9 8 0.5554 0.0323
-17 9 9 -4.3838 -0.0271
-17 9 10 -1.4756 -0.0233
-17 9 11 3.2947 0.0182
-17 9 12 0.5517 0.0247
-17 9 13 0.3008 0.0280
-17 9 14 1.2727 0.0202
-17 9 15 -0.3730 -0.0006
-17 9 16 0.2659 -0.0157
-17 10 2 0.2067 0.0567
-17 10 3 0.1610 0.0804
-17 10 4 2.0377 -0.0823
-17 10 5 1.0495 -0.0513
-17 10 6 0.7641 -0.0314
-17 10 7 1.3006 0.0197
-17 10 8 -1.5461 -0.0004
-17 10 9 -4.1077 -0.0891
-17 10 10 1.0436 -0.0393
-17 10 11 4.7204 0.0302
-17 10 12 0.5368 0.0340
-17 10 13 -1.6532 0.0311
-17 10 14 -0.9981 0.0635
-17 11 4 0.2412 0.0028
-17 11 5 -0.4054 0.0349
-17 11 6 1.2848 -0.0532
-17 11 7 1.6215 -0.0364
-17 11 8 -1.0067 0.0010
-17 11 9 -1.2027 -0.0189
-17 11 10 2.7344 -0.0398
-17 11 11 2.4390 0.0070
-16 -8 7 -3.5646 -0.0356
-16 -8 8 -3.3261 -0.0406
-16 -8 9 2.7029 -0.0856
-16 -7 2 -3.5393 0.1703
-16 -7 3 2.9861 0.0121
-16 -7 4 1.7087 0.0438
-16 -7 5 -4.9621 0.1621
-16 -7 6 -2.3446 0.0135
-16 -7 7 3.0902 -0.0196
-16 -7 8 1.4756 0.0821
-16 -7 9 -1.1179 -0.0318
-16 -7 10 -2.1031 -0.0147
-16 -7 11 -1.5096 0.1893
-16 -7 12 3.6461 0.0647
-16 -7 13 3.9442 -0.1663
-16 -7 14 -1.0999 -0.0848
-16 -7 15 -1.9494 0.1277
-16 -6 1 -4.8689 -0.1856
-16 -6 2 -1.9880 0.0611
-16 -6 3 4.5002 0.0297
-16 -6 4 -1.3162 0.0130
-16 -6 5 -4.9423 0.0560
-16 -6 6 3.6937 -0.0257
-16 -6 7 3.0067 0.0284
-16 -6 8 -6.2318 0.0882
-16 -6 9 -2.0610 -0.0745
-16 -6 10 3.9858 -0.0588
-16 -6 11 1.9994 0.1335
-16 -6 12 1.6586 0.0892
-16 -6 13 -0.6593 -0.1080
-16 -6 14 -1.1981 -0.1483
-16 -6 15 1.9442 0.0831
-16 -6 16 0.7087 0.1856
-16 -6 17 1.0254 -0.0957
-16 -5 1 -4.3997 -0.0196
-16 -5 2 -4.8978 -0.0873
-16 -5 3 2.1093 -0.0951
-16 -5 4 1.8181 0.0614
-16 -5 5 -2.7885 0.0688
-16 -5 6 -2.1289 -0.1074
-16 -5 7 -3.9197 -0.0521
-16 -5 8 -3.6155 0.0830
-16 -5 9 3.8347 -0.0032
-16 -5 10 2.4381 -0.1102
-16 -5 11 -0.7332 -0.0496
-16 -5 12 1.7948 0.0988
-16 -5 13 -0.6465 0.0212
-16 -5 14 -0.5904 -0.2164
-16 -5 15 0.9944 -0.0616
-16 -5 16 -0.5174 0.1658
-16 -5 17 1.9946 -0.0325
-16 -5 18 1.9031 -0.1208
-16 -5 19 -0.2627 0.0486
-16 -4 1 -6.1920 0.1429
-16 -4 2 -2.0642 0.0283
-16 -4 3 2.2990 -0.0569
-16 -4 4 -2.8453 0.0450
-16 -4 5 -4.5218 0.0605
-16 -4 6 0.2623 -0.0598
-16 -4 7 -3.8367 -0.0872
-16 -4 8 -5.2698 -0.0025
-16 -4 9 1.6932 0.0544
-16 -4 10 0.1562 -0.0349
-16 -4 11 -0.6629 -0.0965
-16 -4 12 1.6679 0.0597
-16 -4 13 -0.9784 0.0148
-16 -4 14 -1.1747 -0.2485
-16 -4 15 -0.5225 -0.0897
-16 -4 16 1.4551 0.1673
-16 -4 17 3.5306 0.0021
-16 -4 18 -0.3104 -0.1260
-16 -4 19 -1.8971 -0.0290
-16 -4 20 0.0956 0.0226
-16 -3 1 -2.4364 0.2802
-16 -3 2 -3.1154 0.1989
-16 -3 3 -4.4613 -0.0053
-16 -3 4 -0.8025 -0.0673
-16 -3 5 4.9290 0.0134
-16 -3 6 1.3220 0.0638
-16 -3 7 -9.4256 -0.0468
-16 -3 8 -6.8839 -0.0592
-16 -3 9 0.2878 0.1233
-16 -3 10 -0.8561 0.0802
-16 -3 11 0.9791 -0.1329
-16 -3 12 0.1185 -0.0415
-16 -3 13 -3.2042 0.0748
-16 -3 14 -1.2249 -0.0736
-16 -3 15 1.0505 -0.0875
-16 -3 16 3.5801 0.0374
-16 -3 17 1.2163 0.0207
-16 -3 18 -3.2023 -0.0314
-16 -3 19 -2.1986 -0.0386
-16 -3 20 -1.0228 -0.0222
-16 -3 21 2.0220 0.0537
-16 -2 1 -3.4614 -0.0078
-16 -2 2 -1.8662 0.1296
-16 -2 3 0.8511 0.0991
-16 -2 4 1.8503 -0.0847
-16 -2 5 0.3463 -0.0587
-16 -2 6 -1.7647 0.1055
-16 -2 7 -3.7659 0.0320
-16 -2 8 -1.9815 -0.0678
-16 -2 9 -2.2350 0.0551
-16 -2 10 -1.7711 0.1046
-16 -2 11 -0.8745 -0.0285
-16 -2 12 -4.5979 -0.0408
-16 -2 13 -0.7185 0.0399
-16 -2 14 2.4413 0.0197
-16 -2 15 -0.3900 -0.0061
-16 -2 16 1.4508 0.0107
-16 -2 17 -0.3612 0.0190
-16 -2 18 -2.2916 0.0271
-16 -2 19 -1.3667 0.0043
-16 -2 20 -3.3346 -0.0360
-16 -2 21 0.3805 0.0252
-16 -2 22 3.5612 0.0954
-16 -1 1 1.9322 -0.3365
-16 -1 2 -0.3011 -0.0784
-16 -1 3 -2.6415 0.1701
-16 -1 4 -1.4872 0.0202
-16 -1 5 1.9209 -0.1216
-16 -1 6 2.4902 0.0066
-16 -1 7 0.3535 0.0842
-16 -1 8 -1.9808 -0.0307
-16 -1 9 -5.6755 -0.0641
-16 -1 10 -1.6225 0.0595
-16 -1 11 0.3742 0.0611
-16 -1 12 -3.3913 -0.0426
-16 -1 13 -0.4746 -0.0147
-16 -1 14 -1.6556 0.0835
-16 -1 15 -0.0254 0.0597
-16 -1 16 5.5111 -0.0378
-16 -1 17 -2.9186 -0.0324
-16 -1 18 -7.2773 0.0695
-16 -1 19 -1.3467 0.0911
-16 -1 20 -0.1235 -0.0002
-16 -1 21 -0.1590 -0.0197
-16 -1 22 0.3385 0.0204
-16 0 1 0.2327 -0.1968
-16 0 2 -0.9418 -0.1689
-16 0 3 0.8202 0.0450
-16 0 4 2.0487 0.0850
-16 0 5 2.4984 -0.0611
-16 0 6 0.2096 -0.0864
-16 0 7 -0.6120 0.0423
-16 0 8 -1.7224 0.0208
-16 0 9 -3.2664 -0.0935
-16 0 10 1.9581 -0.0291
-16 0 11 -1.5142 0.0795
-16 0 12 -5.0181 0.0289
-16 0 13 2.2231 -0.0766
-16 0 14 0.3844 -0.0289
-16 0 15 -0.5961 0.0898
-16 0 16 0.9924 0.0273
-16 0 17 -5.8430 -0.1140
-16 0 18 -5.1025 -0.0185
-16 0 19 0.8817 0.1725
-16 0 20 -0.1869 0.1004
-16 0 21 -2.9257 -0.0966
-16 0 22 -1.4946 -0.1082
-16 0 23 1.2872 0.0270
-16 1 1 0.9963 0.1918
-16 1 2 5.4241 -0.1552
-16 1 3 4.0899 -0.1523
-16 1 4 1.5221 0.0895
-16 1 5 1.9495 0.0610
-16 1 6 -1.6224 -0.0853
-16 1 7 -0.8576 -0.0115
-16 1 8 0.7756 0.0583
-16 1 9 -0.3982 -0.0204
-16 1 10 0.7437 -0.0712
-16 1 11 -3.5234 -0.0004
-16 1 12 -0.8663 0.0535
-16 1 13 4.2217 -0.0342
-16 1 14 -2.2349 -0.0763
-16 1 15 -1.4818 0.0115
-16 1 16 1.5670 0.0129
-16 1 17 -3.3421 -0.0732
-16 1 18 -4.6287 -0.0213
-16 1 19 -1.7223 0.0948
-16 1 20 -0.1025 0.0623
-16 1 21 -1.9974 -0.0560
-16 1 22 -2.1928 -0.0773
-16 1 23 0.4467 0.0089
-16 2 1 -0.0074 0.3302
-16 2 2 3.5507 0.0160
-16 2 3 3.2184 -0.1858
-16 2 4 3.2768 -0.0232
-16 2 5 3.4411 0.1272
-16 2 6 -0.1447 0.0500
-16 2 7 1.4537 -0.0539
-16 2 8 -0.6166 0.0049
-16 2 9 -2.8733 0.0921
-16 2 10 0.2718 -0.0347
-16 2 11 -0.9229 -0.1110
-16 2 12 1.2354 0.0443
-16 2 13 1.6025 0.0708
-16 2 14 -1.1756 -0.0739
-16 2 15 1.0623 -0.0737
-16 2 16 -0.8310 0.0235
-16 2 17 -2.2903 -0.0048
-16 2 18 -1.0976 -0.0550
-16 2 19 -2.5090 0.0021
-16 2 20 -2.2139 0.0639
-16 2 21 -0.5373 0.0200
-16 2 22 2.0543 -0.0261
-16 2 23 1.6420 0.0076
-16 3 1 -1.8690 0.0586
-16 3 2 1.1170 0.1632
-16 3 3 2.8518 -0.0053
-16 3 4 6.0499 -0.1050
-16 3 5 3.5552 0.0352
-16 3 6 -1.0584 0.1166
-16 3 7 1.1343 -0.0154
-16 3 8 -1.4008 -0.0471
-16 3 9 -2.0904 0.0735
-16 3 10 0.6629 0.0226
-16 3 11 0.9291 -0.0710
-16 3 12 1.4357 0.0010
-16 3 13 -3.0395 0.0587
-16 3 14 -1.5697 -0.0093
-16 3 15 2.9973 -0.0652
-16 3 16 -1.3054 -0.0346
-16 3 17 -1.5501 0.0211
-16 3 18 -0.5091 0.0357
-16 3 19 -2.0324 -0.0197
-16 3 20 0.2180 -0.0192
-16 3 21 1.6516 0.0618
-16 3 22 0.7671 0.0750
-16 3 23 -0.5818 -0.0105
-16 4 1 -0.5589 -0.2438
-16 4 2 -3.9272 0.1434
-16 4 3 0.5033 0.1429
-16 4 4 6.0910 -0.1054
-16 4 5 1.5910 -0.0965
-16 4 6 0.8207 0.0761
-16 4 7 2.5887 0.0415
-16 4 8 -3.9268 -0.0597
-16 4 9 -2.2477 -0.0044
-16 4 10 3.1997 0.0613
-16 4 11 3.5828 0.0172
-16 4 12 -0.6562 -0.0426
-16 4 13 -7.2171 -0.0157
-16 4 14 -1.8891 0.0089
-16 4 15 2.3736 -0.0100
-16 4 16 -1.1224 -0.0183
-16 4 17 1.0934 0.0129
-16 4 18 0.1820 0.0532
-16 4 19 -3.3438 0.0247
-16 4 20 -1.3805 -0.0025
-16 4 21 0.9435 0.0122
-16 4 22 0.8324 0.0169
-16 4 23 0.6096 0.0076
-16 5 1 -0.0976 -0.2021
-16 5 2 -2.2287 0.0188
-16 5 3 1.6751 0.0981
-16 5 4 3.3133 -0.0316
-16 5 5 -2.2107 -0.1237
-16 5 6 1.0277 -0.0254
-16 5 7 2.7811 0.0746
-16 5 8 -1.8491 0.0122
-16 5 9 1.0400 -0.0791
-16 5 10 1.2932 0.0041
-16 5 11 -0.0268 0.0849
-16 5 12 -0.7169 -0.0121
-16 5 13 -2.8083 -0.0966
-16 5 14 0.9549 -0.0455
-16 5 15 0.7470 0.0650
-16 5 16 -2.0062 0.0599
-16 5 17 -0.7426 -0.0086
-16 5 18 -2.1307 0.0263
-16 5 19 -2.2333 0.0589
-16 5 20 0.3390 0.0006
-16 5 21 1.4027 -0.0436
-16 5 22 -0.2763 0.0082
-16 5 23 -1.1927 0.0423
-16 6 1 2.2693 0.0475
-16 6 2 -2.5457 -0.1283
-16 6 3 0.6857 -0.0479
-16 6 4 1.2974 0.0872
-16 6 5 -3.2306 0.0145
-16 6 6 3.2316 -0.0699
-16 6 7 3.6574 0.0072
-16 6 8 -4.1865 0.0517
-16 6 9 -2.8724 -0.0256
-16 6 10 0.9851 -0.0246
-16 6 11 3.6703 -0.0063
-16 6 12 2.9018 -0.0263
-16 6 13 0.7286 -0.0222
-16 6 14 -0.2064 -0.0134
-16 6 15 -3.5080 0.0450
-16 6 16 -1.4232 0.0591
-16 6 17 2.4026 -0.0063
-16 6 18 0.1587 -0.0095
-16 6 19 -2.7026 0.0522
-16 6 20 -1.4902 0.0447
-16 6 21 2.9775 -0.0083
-16 6 22 1.0399 0.0132
-16 7 1 2.0388 0.1851
-16 7 2 -1.5332 -0.1185
-16 7 3 1.5478 -0.0721
-16 7 4 1.0741 0.1321
-16 7 5 -3.0471 0.1223
-16 7 6 0.9531 -0.0343
-16 7 7 -0.1411 -0.0414
-16 7 8 -3.5595 0.0419
-16 7 9 0.1845 0.0329
-16 7 10 2.6499 -0.0239
-16 7 11 1.7199 -0.0793
-16 7 12 -0.2259 -0.0110
-16 7 13 0.2604 0.0611
-16 7 14 0.8964 -0.0004
-16 7 15 1.1910 -0.0105
-16 7 16 2.2008 0.0189
-16 7 17 -0.8418 -0.0111
-16 7 18 -0.7065 -0.0030
-16 7 19 1.6564 0.0800
-16 7 20 -0.1379 0.0646
-16 7 21 -0.2424 -0.0215
-16 7 22 -1.2248 -0.0241
-16 8 1 2.1194 0.0461
-16 8 2 -2.2649 -0.0249
-16 8 3 1.1148 -0.0050
-16 8 4 3.0258 0.0537
-16 8 5 -1.7061 0.1325
-16 8 6 -2.0328 0.0615
-16 8 7 -0.8965 -0.0382
-16 8 8 -0.2916 -0.0291
-16 8 9 0.5728 0.0460
-16 8 10 0.8191 0.0415
-16 8 11 -0.8066 -0.0642
-16 8 12 -2.6989 -0.0242
-16 8 13 0.4564 0.0596
-16 8 14 3.3433 0.0173
-16 8 15 2.9958 -0.0251
-16 8 16 0.3925 -0.0171
-16 8 17 -1.1733 0.0099
-16 8 18 3.0503 0.0352
-16 8 19 0.7529 0.0260
-16 8 20 -4.8907 -0.0508
-16 8 21 0.1043 -0.0448
-16 9 1 3.5642 -0.1044
-16 9 2 1.1248 0.0946
-16 9 3 1.2854 0.0127
-16 9 4 0.6519 -0.0618
-16 9 5 -1.5788 0.0612
-16 9 6 -0.0461 0.0759
-16 9 7 1.1605 0.0134
-16 9 8 -0.3127 -0.0340
-16 9 9 -1.5763 -0.0153
-16 9 10 0.5818 0.0245
-16 9 11 1.2550 0.0209
-16 9 12 -1.1306 0.0324
-16 9 13 -1.3850 0.0119
-16 9 14 -0.2404 -0.0002
-16 9 15 2.4513 0.0122
-16 9 16 1.9454 0.0075
-16 9 17 -1.1741 0.0094
-16 9 18 0.5862 -0.0209
-16 9 19 0.6200 -0.0752
-16 9 20 -0.7924 -0.0664
-16 10 1 3.8205 -0.1321
-16 10 2 0.9385 0.1717
-16 10 3 -0.6097 -0.0077
-16 10 4 0.1515 -0.1674
-16 10 5 0.9738 -0.0529
-16 10 6 0.7319 0.0487
-16 10 7 -0.4592 0.0528
-16 10 8 -0.5796 -0.0322
-16 10 9 1.0766 -0.0519
-16 10 10 4.1492 0.0053
-16 10 11 1.9042 0.0548
-16 10 12 -3.4937 0.0563
-16 10 13 -2.5103 0.0166
-16 10 14 1.2633 0.0308
-16 10 15 1.5109 0.0077
-16 10 16 -1.3257 -0.0378
-16 10 17 -0.1228 -0.0025
-16 10 18 4.1392 0.0148
-16 10 19 1.4175 -0.0225
-16 11 1 -0.5693 0.0081
-16 11 2 0.2495 0.1113
-16 11 3 1.9133 -0.1189
-16 11 4 0.0902 -0.1489
-16 11 5 -1.6804 -0.0523
-16 11 6 -0.3789 -0.0049
-16 11 7 1.7442 0.0440
-16 11 8 2.1907 0.0223
-16 11 9 1.3130 -0.0509
-16 11 10 2.3085 -0.0646
-16 11 11 1.2853 0.0570
-16 11 12 -1.0047 0.0915
-16 11 13 -0.0174 -0.0009
-16 11 14 -0.0455 0.0142
-16 11 15 -0.7238 0.0198
-16 11 16 1.6157 -0.0061
-16 11 17 3.5563 0.0451
-16 11 18 0.5930 0.0407
-16 12 1 -0.5429 -0.0221
-16 12 2 2.5510 -0.1540
-16 12 3 2.2512 -0.0798
-16 12 4 -2.9466 0.0672
-16 12 5 -2.9776 0.0346
-16 12 6 0.6870 -0.0179
-16 12 7 2.1397 -0.0378
-16 12 8 2.0027 -0.0162
-16 12 9 1.5615 0.0159
-16 12 10 1.8449 -0.0238
-16 12 11 -0.1233 0.0144
-16 12 12 -1.1511 0.0475
-16 12 13 2.3168 0.0441
-16 12 14 3.2954 0.0954
-16 12 15 0.5290 0.0315
-16 12 16 -0.7967 -0.0555
-16 13 1 -0.9164 -0.0688
-16 13 2 -0.1372 -0.2127
-16 13 3 0.3112 0.0286
-16 13 4 -1.5621 0.1752
-16 13 5 -0.0644 0.0979
-16 13 6 0.6520 -0.0219
-16 13 7 -0.1839 -0.1124
-16 13 8 0.1750 0.0205
-16 13 9 0.7392 0.0706
-16 13 10 1.9355 -0.0704
-16 13 11 1.6415 0.0812
-16 13 12 1.1297 0.2079
-16 13 13 1.3323 0.0111
-16 13 14 -0.3340 -0.0707
-16 14 5 0.5106 0.1621
-16 14 6 0.5654 0.1573
-16 14 7 -1.8649 -0.1464
-16 14 8 -1.4866 -0.1008
-16 14 9 1.9897 0.1019
-15 -10 4 1.0850 0.0226
-15 -10 5 -0.0937 -0.1101
-15 -10 6 0.6328 -0.0070
-15 -10 7 -1.8174 0.1759
-15 -10 8 -0.2538 -0.0836
-15 -10 9 3.9471 -0.1287
-15 -10 10 2.3641 0.1390
-15 -10 11 -0.7241 0.0779
-15 -10 12 -1.8116 -0.1346
-15 -9 1 -5.5717 0.4010
-15 -9 2 1.8978 -0.1565
-15 -9 3 6.0621 -0.1546
-15 -9 4 -3.1628 0.1542
-15 -9 5 -5.6447 -0.0589
-15 -9 6 -0.4784 -0.1458
-15 -9 7 -1.6850 0.0798
-15 -9 8 -0.6587 0.0612
-15 -9 9 2.9049 -0.0588
-15 -9 10 1.6594 0.0050
-15 -9 11 0.6464 0.0590
-15 -9 12 2.0091 -0.0566
-15 -9 13 1.0106 -0.0589
-15 -9 14 -1.7826 0.1102
-15 -9 15 -2.5779 0.0559
-15 -9 16 -4.4015 -0.1778
-15 -8 1 -1.6358 0.4373
-15 -8 2 0.9555 0.0585
-15 -8 3 0.3966 -0.1369
-15 -8 4 -4.7490 0.0339
-15 -8 5 -1.2502 0.0941
-15 -8 6 0.0294 0.0287
-15 -8 7 -4.5611 -0.0325
-15 -8 8 -0.7867 -0.0107
-15 -8 9 2.9086 0.0409
-15 -8 10 -0.8695 0.0513
-15 -8 11 0.2240 0.0396
-15 -8 12 5.4365 -0.0406
-15 -8 13 1.7252 -0.0604
-15 -8 14 -2.7352 0.0566
-15 -8 15 -0.2725 0.0735
-15 -8 16 -2.5744 -0.0927
-15 -8 17 -3.8965 -0.1709
-15 -8 18 0.4338 0.0276
-15 -7 1 -5.1463 0.1225
-15 -7 2 -1.1264 0.0692
-15 -7 3 3.8932 0.0018
-15 -7 4 -1.6819 0.0678
-15 -7 5 -3.8289 0.1060
-15 -7 6 -0.1559 0.0000
-15 -7 7 1.0958 -0.0506
-15 -7 8 -0.9555 0.0571
-15 -7 9 -3.9038 0.0750
-15 -7 10 -3.3281 0.0263
-15 -7 11 3.7107 0.0310
-15 -7 12 7.3774 -0.0353
-15 -7 13 0.0196 -0.0682
-15 -7 14 -2.5982 0.0662
-15 -7 15 1.0871 0.1396
-15 -7 16 -0.7221 -0.0422
-15 -7 17 0.6601 -0.1979
-15 -7 18 1.4864 -0.0215
-15 -7 19 -2.8081 0.1864
-15 -7 20 -0.2130 0.0757
-15 -6 1 -3.0572 -0.2359
-15 -6 2 2.7354 0.1001
-15 -6 3 2.7419 0.1341
-15 -6 4 -3.7994 0.0021
-15 -6 5 -2.7010 -0.0045
-15 -6 6 0.8359 0.0263
-15 -6 7 -2.3983 0.0161
-15 -6 8 -3.4855 -0.0124
-15 -6 9 0.8329 -0.0184
-15 -6 10 0.9664 0.0501
-15 -6 11 0.9029 0.0682
-15 -6 12 1.6535 -0.0142
-15 -6 13 -1.3531 -0.0644
-15 -6 14 0.6233 -0.0111
-15 -6 15 1.7184 0.0876
-15 -6 16 -0.3749 0.0300
-15 -6 17 3.0809 -0.1093
-15 -6 18 -0.0441 -0.0425
-15 -6 19 -3.7565 0.0934
-15 -6 20 4.4082 0.0611
-15 -6 21 5.8968 -0.0348
-15 -5 1 -3.3734 -0.1030
-15 -5 2 -1.9842 -0.0118
-15 -5 3 1.7883 -0.0056
-15 -5 4 -1.9194 -0.0107
-15 -5 5 -6.3093 -0.0433
-15 -5 6 -2.8704 -0.0244
-15 -5 7 0.4945 0.0520
-15 -5 8 0.1083 -0.0029
-15 -5 9 -1.2638 -0.0711
-15 -5 10 -1.8695 0.0002
-15 -5 11 2.2792 0.0418
-15 -5 12 1.2506 0.0003
-15 -5 13 -2.9918 -0.0692
-15 -5 14 1.1399 -0.0629
-15 -5 15 0.1848 0.0583
-15 -5 16 -1.7914 0.0391
-15 -5 17 3.5552 -0.0768
-15 -5 18 1.0852 -0.0376
-15 -5 19 -0.8770 0.0331
-15 -5 20 3.6939 0.0430
-15 -5 21 0.7500 0.0334
-15 -5 22 -2.2013 -0.0175
-15 -4 1 -6.0783 0.1019
-15 -4 2 -0.9909 -0.1211
-15 -4 3 1.2569 -0.0953
-15 -4 4 -3.2400 0.0496
-15 -4 5 -3.0155 -0.0130
-15 -4 6 0.0322 -0.0499
-15 -4 7 -4.4357 0.0113
-15 -4 8 -4.7987 -0.0214
-15 -4 9 0.1984 -0.0280
-15 -4 10 0.8780 -0.0011
-15 -4 11 1.2322 -0.0364
-15 -4 12 -1.5079 -0.0091
-15 -4 13 -1.6658 -0.0093
-15 -4 14 2.6603 -0.0733
-15 -4 15 -0.3856 -0.0261
-15 -4 16 -0.2907 0.0243
-15 -4 17 2.7834 0.0009
-15 -4 18 -2.4503 -0.0227
-15 -4 19 -3.4238 -0.0454
-15 -4 20 1.5404 -0.0042
-15 -4 21 2.1742 0.0675
-15 -4 22 1.5303 0.0501
-15 -4 23 2.6895 -0.0148
-15 -3 1 -3.2691 0.2870
-15 -3 2 -3.6429 -0.0690
-15 -3 3 -1.1186 -0.0990
-15 -3 4 2.4167 0.0336
-15 -3 5 2.3635 0.0036
-15 -3 6 -3.0751 -0.0257
-15 -3 7 -7.3424 0.0055
-15 -3 8 -3.0083 0.0224
-15 -3 9 -1.8942 0.0314
-15 -3 10 -1.9936 -0.0354
-15 -3 11 3.0250 -0.0976
-15 -3 12 0.1714 -0.0005
-15 -3 13 -2.3230 0.0588
-15 -3 14 2.1378 -0.0176
-15 -3 15 3.4089 -0.0484
-15 -3 16 1.5748 -0.0152
-15 -3 17 -3.3011 0.0111
-15 -3 18 -5.0840 -0.0023
-15 -3 19 -0.0507 -0.0403
-15 -3 20 2.8706 -0.0120
-15 -3 21 1.3453 0.0693
-15 -3 22 -1.3263 0.0664
-15 -3 23 -0.1284 -0.0306
-15 -3 24 1.7615 -0.0776
-15 -2 1 -3.5098 0.0926
-15 -2 2 -1.1422 0.0421
-15 -2 3 1.0338 0.0206
-15 -2 4 0.9472 -0.0081
-15 -2 5 1.8148 0.0331
-15 -2 6 0.2981 0.0529
-15 -2 7 -4.0197 -0.0007
-15 -2 8 -3.9300 -0.0001
-15 -2 9 -3.2261 0.0329
-15 -2 10 -0.8812 -0.0102
-15 -2 11 -0.3519 -0.0599
-15 -2 12 -2.9761 0.0068
-15 -2 13 1.2357 0.0794
-15 -2 14 4.3528 0.0240
-15 -2 15 2.6550 -0.0493
-15 -2 16 0.0811 -0.0183
-15 -2 17 -3.3297 0.0296
-15 -2 18 -1.9908 0.0169
-15 -2 19 -1.5708 -0.0116
-15 -2 20 -1.5961 -0.0176
-15 -2 21 2.9352 0.0388
-15 -2 22 2.0423 0.0730
-15 -2 23 -1.1584 -0.0203
-15 -2 24 -0.9995 -0.0780
-15 -2 25 -1.5630 0.0258
-15 -1 1 -1.1402 -0.1939
-15 -1 2 -0.9506 0.1439
-15 -1 3 -0.6286 0.1380
-15 -1 4 0.7706 -0.0480
-15 -1 5 3.5504 -0.0033
-15 -1 6 1.5460 0.0489
-15 -1 7 -1.5792 0.0188
-15 -1 8 -2.6492 0.0028
-15 -1 9 -4.4978 -0.0072
-15 -1 10 -1.7950 0.0167
-15 -1 11 -0.7294 0.0227
-15 -1 12 -1.3741 0.0034
-15 -1 13 0.5521 0.0315
-15 -1 14 1.5662 0.0357
-15 -1 15 4.9393 -0.0108
-15 -1 16 0.2416 -0.0102
-15 -1 17 -8.2224 0.0110
-15 -1 18 -2.8291 0.0293
-15 -1 19 1.8552 0.0352
-15 -1 20 0.4668 -0.0054
-15 -1 21 0.6566 0.0010
-15 -1 22 -1.1624 0.0153
-15 -1 23 -0.9413 -0.0344
-15 -1 24 0.8448 -0.0043
-15 -1 25 -0.6156 0.0635
-15 0 1 -0.3921 -0.1804
-15 0 2 2.0809 0.1084
-15 0 3 1.7420 0.0219
-15 0 4 0.0926 -0.0976
-15 0 5 1.6558 -0.0001
-15 0 6 1.3080 0.0288
-15 0 7 0.0968 0.0075
-15 0 8 -2.6757 -0.0109
-15 0 9 -2.8229 -0.0135
-15 0 10 0.8182 0.0509
-15 0 11 -2.0883 0.0416
-15 0 12 -1.0204 -0.0423
-15 0 13 2.9320 -0.0191
-15 0 14 0.9480 0.0451
-15 0 15 0.4061 0.0271
-15 0 16 -4.2293 -0.0122
-15 0 17 -4.9019 -0.0249
-15 0 18 3.1240 0.0267
-15 0 19 0.6416 0.0682
-15 0 20 -5.2765 -0.0043
-15 0 21 -2.2728 -0.0625
-15 0 22 1.2075 -0.0150
-15 0 23 0.2735 0.0383
-15 0 24 -1.4213 0.0178
-15 0 25 -0.5421 -0.0480
-15 1 1 2.0413 -0.0207
-15 1 2 4.2399 -0.1024
-15 1 3 2.7469 -0.1033
-15 1 4 2.3233 0.0065
-15 1 5 1.6732 0.0094
-15 1 6 -1.7465 -0.0469
-15 1 7 -0.2891 0.0044
-15 1 8 -0.1598 0.0012
-15 1 9 -0.0563 -0.0374
-15 1 10 0.4417 0.0122
-15 1 11 -2.3754 0.0313
-15 1 12 1.0920 -0.0258
-15 1 13 1.3517 -0.0316
-15 1 14 -1.0218 0.0018
-15 1 15 2.7828 0.0043
-15 1 16 -0.6847 0.0068
-15 1 17 -5.0896 -0.0016
-15 1 18 -2.1545 -0.0198
-15 1 19 -0.0884 -0.0089
-15 1 20 0.3438 0.0217
-15 1 21 -0.9535 0.0177
-15 1 22 -2.5983 -0.0033
-15 1 23 -2.3249 -0.0204
-15 1 24 -0.1938 -0.0508
-15 1 25 0.0465 -0.0285
-15 2 1 3.2905 0.1143
-15 2 2 5.6248 -0.1443
-15 2 3 1.8981 -0.0674
-15 2 4 2.2132 0.0859
-15 2 5 2.8227 0.0128
-15 2 6 1.1555 -0.0490
-15 2 7 1.1092 -0.0207
-15 2 8 -2.1893 -0.0193
-15 2 9 -0.8104 -0.0116
-15 2 10 0.6008 -0.0143
-15 2 11 -1.8523 -0.0179
-15 2 12 1.3582 0.0046
-15 2 13 2.1432 0.0046
-15 2 14 1.5112 -0.0395
-15 2 15 0.1776 -0.0458
-15 2 16 -4.4304 0.0104
-15 2 17 -1.7913 0.0099
-15 2 18 1.8599 -0.0531
-15 2 19 0.3149 -0.0211
-15 2 20 -0.8191 0.0702
-15 2 21 0.0022 0.0183
-15 2 22 0.7896 -0.0378
-15 2 23 -2.0660 0.0024
-15 2 24 -2.8112 -0.0107
-15 2 25 -1.1024 -0.0123
-15 2 26 -1.5048 -0.0251
-15 3 1 3.0895 0.0744
-15 3 2 -0.3103 -0.0169
-15 3 3 0.7721 0.0802
-15 3 4 6.8465 0.0991
-15 3 5 3.6537 -0.0132
-15 3 6 -0.7489 -0.0185
-15 3 7 -0.0013 0.0036
-15 3 8 -0.6708 -0.0046
-15 3 9 1.9617 -0.0121
-15 3 10 1.4503 -0.0274
-15 3 11 -1.0179 0.0099
-15 3 12 -1.1198 0.0416
-15 3 13 -2.1251 -0.0062
-15 3 14 1.4164 -0.0710
-15 3 15 1.0513 -0.0663
-15 3 16 -2.3617 0.0115
-15 3 17 -0.3649 0.0650
-15 3 18 -1.1087 -0.0098
-15 3 19 -0.6116 -0.0724
-15 3 20 2.7622 0.0056
-15 3 21 2.3574 0.0473
-15 3 22 -0.5329 0.0354
-15 3 23 -2.0015 0.0032
-15 3 24 1.3822 -0.0300
-15 3 25 1.2931 0.0330
-15 3 26 -3.1118 0.0467
-15 4 1 -2.1286 -0.0384
-15 4 2 -3.5519 0.0970
-15 4 3 3.1007 0.0943
-15 4 4 5.9916 -0.0187
-15 4 5 0.1864 -0.0102
-15 4 6 0.1782 0.0642
-15 4 7 0.9805 0.0173
-15 4 8 0.1837 -0.0074
-15 4 9 3.7329 0.0262
-15 4 10 2.2543 0.0280
-15 4 11 -0.3150 0.0120
-15 4 12 -2.5378 -0.0111
-15 4 13 -2.9495 -0.0165
-15 4 14 1.8904 0.0012
-15 4 15 -0.3265 -0.0057
-15 4 16 -2.1496 -0.0144
-15 4 17 0.2777 0.0398
-15 4 18 -2.3643 0.0368
-15 4 19 -1.9619 -0.0196
-15 4 20 0.9330 -0.0132
-15 4 21 1.7652 -0.0101
-15 4 22 2.3146 0.0141
-15 4 23 1.6639 0.0410
-15 4 24 0.9838 0.0490
-15 4 25 -0.6346 0.0493
-15 5 1 2.4694 -0.0404
-15 5 2 -1.9199 0.0504
-15 5 3 1.4230 -0.0903
-15 5 4 2.3027 -0.1197
-15 5 5 -2.5117 0.0344
-15 5 6 -0.5256 0.0753
-15 5 7 1.4664 0.0222
-15 5 8 2.5895 0.0217
-15 5 9 2.5060 -0.0055
-15 5 10 -0.4111 0.0012
-15 5 11 2.5901 0.0476
-15 5 12 1.7049 0.0049
-15 5 13 -1.4302 -0.0511
-15 5 14 0.6304 0.0197
-15 5 15 -0.7033 0.0737
-15 5 16 -1.0843 0.0078
-15 5 17 -2.5274 0.0090
-15 5 18 -5.0657 0.0444
-15 5 19 0.0581 0.0182
-15 5 20 3.7453 -0.0193
-15 5 21 1.7191 -0.0183
-15 5 22 -0.8077 0.0452
-15 5 23 -1.4485 0.0461
-15 5 24 -0.1351 0.0033
-15 5 25 0.8521 -0.0127
-15 6 1 1.6465 0.0501
-15 6 2 -4.2967 -0.0599
-15 6 3 0.1350 -0.2035
-15 6 4 1.1645 -0.0855
-15 6 5 -0.4766 0.0683
-15 6 6 1.9068 0.0025
-15 6 7 -1.8729 -0.0352
-15 6 8 -3.6795 0.0121
-15 6 9 -0.3088 -0.0173
-15 6 10 3.2325 -0.0318
-15 6 11 7.0198 0.0076
-15 6 12 3.5342 0.0170
-15 6 13 -1.0497 -0.0095
-15 6 14 -2.5100 0.0250
-15 6 15 -1.9099 0.0532
-15 6 16 2.6260 0.0045
-15 6 17 0.3885 -0.0080
-15 6 18 -3.7154 0.0128
-15 6 19 -0.4153 0.0540
-15 6 20 2.0623 0.0569
-15 6 21 0.9751 0.0102
-15 6 22 -1.8123 -0.0094
-15 6 23 -2.7155 -0.0334
-15 6 24 -0.8839 -0.0223
-15 6 25 1.0275 0.0026
-15 7 1 1.4479 0.1094
-15 7 2 0.3672 -0.0212
-15 7 3 2.6473 -0.0677
-15 7 4 0.5384 0.0118
-15 7 5 -2.4491 0.0250
-15 7 6 -1.5543 -0.0714
-15 7 7 -2.2372 -0.0650
-15 7 8 -0.2897 -0.0006
-15 7 9 0.7136 -0.0046
-15 7 10 0.6953 -0.0522
-15 7 11 2.6248 -0.0439
-15 7 12 0.9068 0.0384
-15 7 13 -0.9329 0.0347
-15 7 14 0.1161 -0.0245
-15 7 15 4.0487 -0.0352
-15 7 16 3.8720 0.0080
-15 7 17 -3.3728 0.0360
-15 7 18 -2.9988 0.0071
-15 7 19 1.1380 0.0271
-15 7 20 0.0892 0.0290
-15 7 21 0.1023 -0.0186
-15 7 22 0.5930 -0.0289
-15 7 23 0.7101 0.0115
-15 7 24 -0.5796 0.0436
-15 8 1 4.3668 -0.0352
-15 8 2 1.1260 0.0767
-15 8 3 0.3287 0.1869
-15 8 4 -1.9844 0.0864
-15 8 5 -2.2770 -0.0339
-15 8 6 1.2094 -0.0454
-15 8 7 1.5091 -0.0350
-15 8 8 0.4625 -0.0280
-15 8 9 -1.2362 0.0414
-15 8 10 -2.0372 0.0095
-15 8 11 -1.7533 -0.0738
-15 8 12 -0.2851 -0.0193
-15 8 13 2.5563 0.0376
-15 8 14 2.6620 0.0165
-15 8 15 2.3883 -0.0274
-15 8 16 -0.1136 -0.0106
-15 8 17 -2.4140 0.0138
-15 8 18 0.3432 -0.0235
-15 8 19 -1.4244 -0.0377
-15 8 20 -1.5392 -0.0217
-15 8 21 4.2464 0.0166
-15 8 22 2.5208 0.0140
-15 8 23 -1.7887 -0.0015
-15 8 24 -2.2230 -0.0037
-15 9 1 2.6841 -0.1846
-15 9 2 -0.4283 0.0600
-15 9 3 -0.6053 0.2543
-15 9 4 -0.7043 0.0806
-15 9 5 -0.1922 -0.0774
-15 9 6 0.7193 0.0231
-15 9 7 1.1772 0.0614
-15 9 8 1.8087 -0.0291
-15 9 9 -0.3921 0.0130
-15 9 10 -1.6155 0.0481
-15 9 11 0.1144 0.0041
-15 9 12 0.9094 -0.0174
-15 9 13 -1.4375 0.0005
-15 9 14 -1.6391 0.0467
-15 9 15 2.9985 0.0207
-15 9 16 1.3127 -0.0151
-15 9 17 -1.5983 -0.0130
-15 9 18 1.3829 -0.0362
-15 9 19 -0.2447 -0.0543
-15 9 20 -1.3358 -0.0106
-15 9 21 -0.2964 0.0158
-15 9 22 -2.4678 -0.0797
-15 9 23 0.7973 -0.0662
-15 10 1 3.1457 -0.1639
-15 10 2 2.4226 -0.0810
-15 10 3 -0.1832 0.0041
-15 10 4 -1.9370 -0.0138
-15 10 5 -0.8634 -0.0105
-15 10 6 -0.6699 0.0719
-15 10 7 0.5236 0.0373
-15 10 8 4.3377 -0.0348
-15 10 9 4.4351 0.0233
-15 10 10 0.9140 0.0489
-15 10 11 -2.9419 0.0327
-15 10 12 -3.4270 -0.0043
-15 10 13 -0.5866 -0.0159
-15 10 14 2.3231 0.0558
-15 10 15 2.6213 0.0687
-15 10 16 -0.4978 0.0113
-15 10 17 1.3333 -0.0312
-15 10 18 2.7887 -0.0235
-15 10 19 -3.8528 -0.0076
-15 10 20 -3.9292 -0.0210
-15 10 21 0.5187 -0.0736
-15 10 22 -0.2173 -0.1139
-15 11 1 1.7266 0.0262
-15 11 2 0.5313 -0.1949
-15 11 3 -0.9569 -0.2455
-15 11 4 -2.1646 -0.0277
-15 11 5 -0.3928 0.0411
-15 11 6 0.8445 -0.0014
-15 11 7 3.1821 0.0008
-15 11 8 4.4347 0.0148
-15 11 9 0.2945 -0.0340
-15 11 10 -1.9455 -0.0617
-15 11 11 -0.1828 0.0373
-15 11 12 1.7357 0.0619
-15 11 13 1.3104 0.0235
-15 11 14 0.3518 0.0273
-15 11 15 1.1539 0.0014
-15 11 16 1.1072 0.0109
-15 11 17 1.4555 0.0543
-15 11 18 -0.2620 0.0125
-15 11 19 -2.8865 -0.0855
-15 11 20 0.4277 -0.0650
-15 11 21 1.2926 0.0063
-15 12 1 -0.6089 0.1393
-15 12 2 3.8355 -0.0409
-15 12 3 0.9098 -0.1747
-15 12 4 -4.1519 -0.0482
-15 12 5 -1.0926 0.0369
-15 12 6 2.7128 0.0041
-15 12 7 3.1891 -0.0646
-15 12 8 0.6233 -0.0510
-15 12 9 -0.8832 -0.0250
-15 12 10 1.9406 -0.0160
-15 12 11 1.4943 0.0384
-15 12 12 -0.2692 0.0460
-15 12 13 1.5513 0.0342
-15 12 14 2.6275 -0.0075
-15 12 15 0.3701 -0.0472
-15 12 16 -1.7006 0.0217
-15 12 17 1.0290 0.0424
-15 12 18 2.5498 -0.0338
-15 12 19 0.1431 -0.0179
-15 12 20 -0.3225 0.0583
-15 13 1 0.0983 0.1456
-15 13 2 0.2022 0.1349
-15 13 3 -1.2074 0.0303
-15 13 4 -1.8345 -0.0143
-15 13 5 0.1305 -0.0163
-15 13 6 0.9367 -0.0188
-15 13 7 1.7002 -0.0086
-15 13 8 -0.1082 0.0338
-15 13 9 -0.1182 -0.0216
-15 13 10 3.3377 0.0045
-15 13 11 1.3818 0.1210
-15 13 12 -1.3828 0.0245
-15 13 13 -0.2353 -0.0635
-15 13 14 1.4411 0.0088
-15 13 15 1.7701 0.0269
-15 13 16 0.4787 -0.0007
-15 13 17 0.4424 0.0192
-15 13 18 0.5977 0.0328
-15 14 1 -1.3182 -0.0546
-15 14 2 1.3797 0.0527
-15 14 3 0.6320 0.0997
-15 14 4 -1.2392 0.0271
-15 14 5 -1.2371 0.0771
-15 14 6 -0.0798 0.0523
-15 14 7 0.7554 -0.0366
-15 14 8 -1.1730 0.0401
-15 14 9 1.1949 0.0435
-15 14 10 3.3226 0.0456
-15 14 11 -1.7777 0.0940
-15 14 12 -2.5227 -0.0078
-15 14 13 1.9969 0.0055
-15 14 14 3.1829 0.1081
-15 14 15 -0.1795 0.0166
-15 14 16 -3.0868 -0.0331
-15 15 1 1.6315 -0.1573
-15 15 2 0.1726 -0.0746
-15 15 3 -1.2588 -0.0341
-15 15 4 0.9474 0.0519
-15 15 5 1.6204 0.2077
-15 15 6 0.4597 -0.0132
-15 15 7 -1.6619 -0.1237
-15 15 8 -4.1211 0.1101
-15 15 9 0.1637 -0.0059
-15 15 10 3.4442 -0.0883
-15 15 11 0.6139 0.1581
-15 15 12 -0.4371 0.1050
-15 15 13 -0.6342 -0.0479
-15 15 14 -0.7623 0.0603
-15 16 4 1.6716 -0.0408
-15 16 5 2.7167 0.3216
-15 16 6 1.5530 0.0349
-15 16 7 -3.1160 -0.2482
-15 16 8 -4.8634 -0.0487
-15 16 9 1.9105 -0.0227
-14 -12 4 1.3310 -0.1446
-14 -12 5 0.8373 -0.0848
-14 -12 6 3.6710 0.2137
-14 -12 7 2.9720 0.0893
-14 -12 8 -2.3091 -0.1474
-14 -12 9 -4.5253 0.0481
-14 -12 10 -0.2454 0.1372
-14 -12 11 4.3561 -0.0746
-14 -12 12 -0.0605 -0.0750
-14 -11 1 -1.2314 -0.2291
-14 -11 2 -2.0317 -0.0841
-14 -11 3 1.8206 0.1672
-14 -11 4 2.3560 0.0243
-14 -11 5 0.3006 -0.1526
-14 -11 6 2.2020 0.0937
-14 -11 7 2.7053 0.1433
-14 -11 8 1.0652 -0.1091
-14 -11 9 -0.9113 -0.0096
-14 -11 10 0.0134 0.1747
-14 -11 11 0.4020 -0.0063
-14 -11 12 -3.8192 -0.1510
-14 -11 13 -0.9200 0.0430
-14 -11 14 3.5211 0.1190
-14 -11 15 -1.2698 -0.1139
-14 -11 16 -2.3009 -0.1260
-14 -10 1 -3.0629 -0.0073
-14 -10 2 -0.1399 -0.1831
-14 -10 3 3.7826 -0.0710
-14 -10 4 -1.0013 0.0171
-14 -10 5 -3.0069 -0.0287
-14 -10 6 1.5069 0.0733
-14 -10 7 2.0611 0.0598
-14 -10 8 0.0239 -0.0784
-14 -10 9 -0.3171 -0.0124
-14 -10 10 4.0029 0.1039
-14 -10 11 3.8739 0.0362
-14 -10 12 -3.7201 -0.0740
-14 -10 13 -3.8803 -0.0034
-14 -10 14 -0.4671 0.0694
-14 -10 15 -2.0271 -0.0472
-14 -10 16 -2.1619 -0.1113
-14 -10 17 -0.3890 0.0079
-14 -10 18 -2.4345 0.1111
-14 -9 1 -2.4897 0.2272
-14 -9 2 2.9030 -0.2470
-14 -9 3 2.4910 -0.1878
-14 -9 4 -6.2597 0.0432
-14 -9 5 -4.3239 0.0005
-14 -9 6 1.0660 -0.0102
-14 -9 7 -0.5449 0.0268
-14 -9 8 -0.9091 0.0003
-14 -9 9 2.5241 -0.0336
-14 -9 10 6.5394 0.0162
-14 -9 11 2.8068 0.0639
-14 -9 12 -3.4173 -0.0147
-14 -9 13 -0.3217 -0.0287
-14 -9 14 2.2146 0.0336
-14 -9 15 -4.9289 -0.0259
-14 -9 16 -10.1283 -0.1058
-14 -9 17 -2.4049 -0.0382
-14 -9 18 3.6468 0.1138
-14 -9 19 -0.7140 0.1303
-14 -9 20 -1.5660 -0.0327
-14 -8 1 -2.9124 0.2088
-14 -8 2 0.2516 -0.1038
-14 -8 3 0.1749 -0.1124
-14 -8 4 -3.8501 -0.0050
-14 -8 5 -1.2971 0.0598
-14 -8 6 -0.5974 0.0095
-14 -8 7 -1.6980 -0.0673
-14 -8 8 -1.0249 0.0330
-14 -8 9 -1.1344 0.0388
-14 -8 10 1.8546 -0.0778
-14 -8 11 5.4190 -0.0207
-14 -8 12 4.3807 0.0774
-14 -8 13 -0.1020 0.0353
-14 -8 14 -1.9878 -0.0520
-14 -8 15 -2.3359 -0.0542
-14 -8 16 -3.8118 -0.0172
-14 -8 17 -0.5563 -0.0180
-14 -8 18 -0.4208 0.0548
-14 -8 19 -4.1685 0.1175
-14 -8 20 -1.1263 -0.0603
-14 -8 21 -0.6312 -0.1625
-14 -8 22 -3.3448 0.0946
-14 -7 1 -4.1104 0.0264
-14 -7 2 1.4947 0.1473
-14 -7 3 2.2368 0.1418
-14 -7 4 -2.9946 -0.0459
-14 -7 5 -1.9720 -0.0441
-14 -7 6 0.4144 0.0122
-14 -7 7 -0.9665 0.0248
-14 -7 8 -5.0491 0.0893
-14 -7 9 -4.4037 -0.0033
-14 -7 10 2.8527 -0.1134
-14 -7 11 6.4101 -0.0169
-14 -7 12 1.0464 0.0715
-14 -7 13 -3.1652 0.0440
-14 -7 14 3.8052 -0.0116
-14 -7 15 4.8673 -0.0366
-14 -7 16 -4.4110 -0.0292
-14 -7 17 -3.4504 -0.0314
-14 -7 18 0.1747 0.0141
-14 -7 19 -0.1054 0.0869
-14 -7 20 2.6541 -0.0149
-14 -7 21 0.0513 -0.1191
-14 -7 22 -4.7538 0.0497
-14 -7 23 -2.7655 0.1293
-14 -6 1 0.1087 -0.1817
-14 -6 2 0.8816 0.2245
-14 -6 3 -1.2336 0.1924
-14 -6 4 -2.3746 -0.0815
-14 -6 5 -1.9248 -0.0067
-14 -6 6 -3.1820 0.0710
-14 -6 7 -2.1331 -0.0101
-14 -6 8 1.1028 0.0174
-14 -6 9 0.4917 0.0475
-14 -6 10 -4.0029 0.0002
-14 -6 11 -2.5602 -0.0151
-14 -6 12 1.2935 0.0148
-14 -6 13 1.5235 0.0330
-14 -6 14 2.7862 -0.0032
-14 -6 15 -0.9680 -0.0389
-14 -6 16 -2.2972 -0.0171
-14 -6 17 3.5948 0.0011
-14 -6 18 0.2393 0.0118
-14 -6 19 -0.7758 0.0504
-14 -6 20 6.1644 -0.0031
-14 -6 21 1.4257 -0.0778
-14 -6 22 -5.4179 0.0157
-14 -6 23 -1.0688 0.0448
-14 -6 24 1.6380 -0.0939
-14 -5 1 -0.8643 -0.1457
-14 -5 2 -2.1354 0.0301
-14 -5 3 -2.0134 0.0028
-14 -5 4 -4.8071 -0.0498
-14 -5 5 -4.9474 0.0074
-14 -5 6 1.9518 0.0141
-14 -5 7 4.3483 0.0070
-14 -5 8 -1.8047 0.0305
-14 -5 9 -6.7935 0.0265
-14 -5 10 -4.0478 0.0204
-14 -5 11 2.8978 0.0035
-14 -5 12 0.3063 -0.0254
-14 -5 13 -3.5778 -0.0028
-14 -5 14 0.7361 0.0398
-14 -5 15 -0.4540 0.0119
-14 -5 16 -0.3248 -0.0213
-14 -5 17 2.5991 -0.0007
-14 -5 18 -1.9605 -0.0065
-14 -5 19 -0.0794 -0.0011
-14 -5 20 4.2427 0.0269
-14 -5 21 -0.0934 0.0016
-14 -5 22 1.0277 0.0007
-14 -5 23 5.1024 -0.0079
-14 -5 24 -0.3697 -0.0866
-14 -5 25 -4.0202 -0.0297
-14 -4 1 -2.7511 0.0025
-14 -4 2 -1.3716 -0.1848
-14 -4 3 -0.8628 -0.1803
-14 -4 4 -2.2768 0.0123
-14 -4 5 -0.1367 0.0670
-14 -4 6 1.1648 -0.0217
-14 -4 7 -4.3670 -0.0739
-14 -4 8 -4.0937 -0.0420
-14 -4 9 0.6776 0.0294
-14 -4 10 0.6249 0.0281
-14 -4 11 -1.0079 -0.0281
-14 -4 12 -3.0875 -0.0162
-14 -4 13 1.0370 0.0182
-14 -4 14 3.6236 0.0089
-14 -4 15 -3.4187 -0.0068
-14 -4 16 -2.2339 0.0149
-14 -4 17 1.1709 0.0218
-14 -4 18 -3.2137 -0.0355
-14 -4 19 -1.2499 -0.0263
-14 -4 20 2.3440 0.0407
-14 -4 21 1.3820 0.0224
-14 -4 22 3.3272 0.0206
-14 -4 23 2.7132 0.0227
-14 -4 24 -2.8391 -0.0730
-14 -4 25 -1.4455 -0.0099
-14 -4 26 3.4065 0.1295
-14 -3 1 -2.9003 0.1321
-14 -3 2 -1.4268 -0.1563
-14 -3 3 3.0173 -0.0981
-14 -3 4 0.1761 0.0574
-14 -3 5 -2.7397 0.0054
-14 -3 6 -0.8177 -0.0523
-14 -3 7 -1.1352 -0.0404
-14 -3 8 -1.8506 -0.0363
-14 -3 9 -2.9995 -0.0146
-14 -3 10 -0.4483 -0.0202
-14 -3 11 2.6440 -0.0447
-14 -3 12 -0.9754 -0.0051
-14 -3 13 0.6773 0.0291
-14 -3 14 3.8586 -0.0021
-14 -3 15 0.1265 -0.0351
-14 -3 16 -2.0703 0.0016
-14 -3 17 -3.5862 0.0382
-14 -3 18 -2.2864 -0.0194
-14 -3 19 2.5573 -0.0436
-14 -3 20 1.1077 0.0262
-14 -3 21 -2.1924 0.0456
-14 -3 22 0.6421 0.0191
-14 -3 23 2.7617 -0.0073
-14 -3 24 -0.8171 -0.0468
-14 -3 25 -1.9637 0.0517
-14 -3 26 0.5803 0.1962
-14 -2 1 -3.2185 0.0882
-14 -2 2 0.2028 0.0899
-14 -2 3 2.4641 0.1195
-14 -2 4 -2.5230 0.0184
-14 -2 5 -0.0237 -0.0384
-14 -2 6 4.3064 0.0397
-14 -2 7 -1.3613 0.0346
-14 -2 8 -5.3941 -0.0587
-14 -2 9 -2.8986 -0.0428
-14 -2 10 1.1727 0.0104
-14 -2 11 -0.0311 -0.0082
-14 -2 12 -1.0826 -0.0035
-14 -2 13 4.7071 0.0118
-14 -2 14 4.7680 -0.0266
-14 -2 15 -0.6933 -0.0366
-14 -2 16 -2.8067 0.0107
-14 -2 17 -2.4518 0.0175
-14 -2 18 -0.2560 -0.0114
-14 -2 19 0.3973 -0.0083
-14 -2 20 0.4905 0.0064
-14 -2 21 1.4750 0.0008
-14 -2 22 0.4198 -0.0138
-14 -2 23 -1.1072 -0.0106
-14 -2 24 -1.8053 0.0216
-14 -2 25 -0.2866 0.0676
-14 -2 26 1.3887 0.0800
-14 -2 27 0.5022 0.0973
-14 -1 1 -2.8714 -0.0722
-14 -1 2 0.0428 0.1767
-14 -1 3 1.7177 0.1901
-14 -1 4 -1.7795 -0.0036
-14 -1 5 1.2561 -0.0437
-14 -1 6 3.4028 0.0661
-14 -1 7 -1.7846 0.1094
-14 -1 8 -5.0107 0.0028
-14 -1 9 -2.1513 -0.0499
-14 -1 10 1.6721 0.0350
-14 -1 11 -0.2537 0.0637
-14 -1 12 -0.0874 0.0011
-14 -1 13 3.4450 -0.0294
-14 -1 14 2.6744 -0.0063
-14 -1 15 0.2230 0.0145
-14 -1 16 -3.5846 -0.0058
-14 -1 17 -3.4017 -0.0094
-14 -1 18 1.5309 0.0333
-14 -1 19 1.8975 -0.0076
-14 -1 20 0.5307 -0.0582
-14 -1 21 -1.3875 0.0127
-14 -1 22 -2.8493 0.0251
-14 -1 23 0.9024 -0.0253
-14 -1 24 3.5843 0.0051
-14 -1 25 1.0952 -0.0348
-14 -1 26 -2.2814 -0.0888
-14 -1 27 -1.8208 0.1572
-14 0 1 -0.7300 -0.1093
-14 0 2 3.2239 0.0148
-14 0 3 1.8619 -0.0473
-14 0 4 -3.8530 -0.0163
-14 0 5 -1.2053 0.0444
-14 0 6 2.8167 0.0112
-14 0 7 0.5079 0.0531
-14 0 8 -3.4688 0.0701
-14 0 9 -1.2679 0.0070
-14 0 10 0.9261 0.0001
-14 0 11 -1.2826 0.0279
-14 0 12 2.6361 0.0265
-14 0 13 4.2968 0.0137
-14 0 14 -1.2536 0.0178
-14 0 15 -3.1080 0.0380
-14 0 16 -1.2277 0.0018
-14 0 17 2.5656 -0.0407
-14 0 18 1.0164 0.0077
-14 0 19 -5.1350 0.0126
-14 0 20 -3.2011 -0.0093
-14 0 21 1.4567 0.0361
-14 0 22 1.2820 -0.0016
-14 0 23 -0.4776 -0.0660
-14 0 24 -0.6243 -0.0077
-14 0 25 0.5068 -0.0372
-14 0 26 0.6321 -0.1356
-14 0 27 1.2792 0.0654
-14 1 1 0.3438 -0.0256
-14 1 2 4.7127 -0.1814
-14 1 3 3.6751 -0.2262
-14 1 4 -1.1569 0.0297
-14 1 5 -2.5288 0.0681
-14 1 6 0.0722 -0.0970
-14 1 7 1.0697 -0.0442
-14 1 8 -2.5606 0.0603
-14 1 9 -0.2409 0.0105
-14 1 10 2.3316 -0.0426
-14 1 11 -0.7194 -0.0015
-14 1 12 0.2715 0.0469
-14 1 13 1.4528 0.0278
-14 1 14 2.5473 -0.0084
-14 1 15 2.7463 0.0128
-14 1 16 -2.4773 0.0110
-14 1 17 -4.3796 -0.0260
-14 1 18 -1.3098 -0.0060
-14 1 19 2.4577 0.0109
-14 1 20 2.7306 0.0166
-14 1 21 -2.5654 0.0357
-14 1 22 -6.1545 -0.0049
-14 1 23 -3.6537 -0.0472
-14 1 24 2.9487 0.0168
-14 1 25 3.9871 -0.0105
-14 1 26 -1.6009 -0.1714
-14 1 27 -1.5303 -0.0483
-14 1 28 0.2991 0.1634
-14 2 1 5.1918 0.1523
-14 2 2 3.6234 -0.0554
-14 2 3 1.1359 -0.1392
-14 2 4 1.4697 0.0018
-14 2 5 -0.8283 0.0078
-14 2 6 0.1782 -0.0933
-14 2 7 2.3931 -0.1077
-14 2 8 -1.1017 -0.0229
-14 2 9 -0.9201 0.0442
-14 2 10 -1.2357 -0.0064
-14 2 11 -1.7142 -0.0657
-14 2 12 3.9764 -0.0160
-14 2 13 5.4774 0.0247
-14 2 14 0.4645 -0.0227
-14 2 15 -5.0496 -0.0167
-14 2 16 -3.3920 0.0195
-14 2 17 3.9936 -0.0271
-14 2 18 5.0818 -0.0527
-14 2 19 0.3863 0.0191
-14 2 20 -3.6304 0.0512
-14 2 21 -2.1865 0.0013
-14 2 22 0.1976 -0.0034
-14 2 23 -1.4526 -0.0084
-14 2 24 0.2743 -0.0054
-14 2 25 -0.5700 0.0116
-14 2 26 -4.9965 -0.0499
-14 2 27 -0.7261 -0.0193
-14 2 28 2.9759 0.0259
-14 3 1 0.7158 0.1547
-14 3 2 -2.9851 0.1879
-14 3 3 4.6272 0.1611
-14 3 4 7.1047 -0.0278
-14 3 5 -2.4827 -0.1145
-14 3 6 -1.5144 0.0099
-14 3 7 3.8010 0.0046
-14 3 8 0.5342 -0.0640
-14 3 9 -0.1030 0.0045
-14 3 10 0.7696 0.0384
-14 3 11 0.5070 -0.0363
-14 3 12 -0.5118 -0.0431
-14 3 13 -1.2615 0.0003
-14 3 14 1.0021 -0.0317
-14 3 15 1.5312 -0.0407
-14 3 16 1.0345 0.0149
-14 3 17 -0.9291 0.0106
-14 3 18 -2.4059 -0.0399
-14 3 19 1.1372 -0.0111
-14 3 20 3.7140 0.0000
-14 3 21 4.2081 -0.0290
-14 3 22 -0.2867 0.0261
-14 3 23 -5.2807 0.0190
-14 3 24 0.0088 0.0026
-14 3 25 0.9433 0.0517
-14 3 26 -4.4461 0.0167
-14 3 27 -0.9341 -0.0071
-14 3 28 1.3825 -0.0288
-14 4 1 0.9201 -0.0675
-14 4 2 -0.1203 0.1894
-14 4 3 4.0126 0.2848
-14 4 4 1.5382 -0.0256
-14 4 5 -4.1700 -0.1093
-14 4 6 0.9846 0.1087
-14 4 7 4.5618 0.0933
-14 4 8 3.3044 -0.0361
-14 4 9 2.4239 0.0133
-14 4 10 -1.2412 0.0629
-14 4 11 -1.7864 -0.0200
-14 4 12 0.5833 -0.0447
-14 4 13 3.2351 0.0201
-14 4 14 2.2573 0.0190
-14 4 15 -3.5186 -0.0247
-14 4 16 -3.8939 0.0047
-14 4 17 -1.0662 0.0383
-14 4 18 1.7284 -0.0149
-14 4 19 3.2809 -0.0320
-14 4 20 1.1724 -0.0370
-14 4 21 2.2562 -0.0263
-14 4 22 1.0300 0.0638
-14 4 23 -1.9482 0.0472
-14 4 24 2.2163 -0.0143
-14 4 25 1.1912 -0.0154
-14 4 26 -4.5286 0.0286
-14 4 27 -2.0480 0.0888
-14 5 1 2.7471 -0.2662
-14 5 2 -4.6589 -0.1152
-14 5 3 1.2358 0.0855
-14 5 4 0.9570 0.0421
-14 5 5 -4.1065 0.0039
-14 5 6 -0.2251 0.0652
-14 5 7 3.6022 0.0865
-14 5 8 3.5270 0.0303
-14 5 9 -0.3114 -0.0203
-14 5 10 -0.6022 0.0032
-14 5 11 5.9345 0.0260
-14 5 12 4.3161 0.0104
-14 5 13 -2.0103 0.0256
-14 5 14 -3.7346 0.0608
-14 5 15 -1.4773 0.0113
-14 5 16 1.3071 -0.0197
-14 5 17 -1.3398 0.0256
-14 5 18 -1.1890 0.0206
-14 5 19 2.0362 0.0146
-14 5 20 1.3663 0.0005
-14 5 21 2.0422 0.0003
-14 5 22 0.8890 0.0245
-14 5 23 -0.8545 -0.0156
-14 5 24 1.1679 -0.0163
-14 5 25 -0.3907 0.0106
-14 5 26 -1.7683 0.0541
-14 5 27 2.1751 0.0623
-14 6 1 -1.1729 -0.1751
-14 6 2 -1.7511 -0.3161
-14 6 3 3.6769 -0.1881
-14 6 4 -0.0092 0.0755
-14 6 5 -3.1079 0.0965
-14 6 6 -1.7715 -0.0678
-14 6 7 -2.2041 -0.0398
-14 6 8 1.0721 0.0336
-14 6 9 2.7426 -0.0392
-14 6 10 3.5371 -0.0393
-14 6 11 5.1057 0.0602
-14 6 12 0.0966 0.0421
-14 6 13 -3.6109 -0.0197
-14 6 14 -1.3245 0.0209
-14 6 15 2.9324 0.0162
-14 6 16 1.9734 -0.0034
-14 6 17 -4.4814 0.0220
-14 6 18 -2.3585 0.0278
-14 6 19 3.0916 0.0546
-14 6 20 2.3807 0.0320
-14 6 21 1.0295 -0.0070
-14 6 22 -1.1148 -0.0200
-14 6 23 -1.8323 -0.0196
-14 6 24 0.2680 0.0182
-14 6 25 1.3996 0.0192
-14 6 26 2.0018 0.0259
-14 6 27 0.9779 -0.0379
-14 7 1 4.2070 0.2007
-14 7 2 -0.2632 -0.1004
-14 7 3 0.9034 -0.2618
-14 7 4 -1.2875 -0.0291
-14 7 5 -2.7166 0.0514
-14 7 6 -1.6167 -0.1175
-14 7 7 0.7056 -0.0912
-14 7 8 3.2507 0.0236
-14 7 9 -0.9561 -0.0242
-14 7 10 -2.2496 -0.0609
-14 7 11 2.3822 0.0260
-14 7 12 2.5000 0.0246
-14 7 13 -0.0279 -0.0515
-14 7 14 -0.5336 -0.0393
-14 7 15 1.8012 -0.0037
-14 7 16 -0.1031 0.0468
-14 7 17 -4.1714 0.0278
-14 7 18 -0.6313 -0.0375
-14 7 19 1.7929 -0.0007
-14 7 20 0.4851 0.0312
-14 7 21 0.7462 0.0240
-14 7 22 0.7972 0.0086
-14 7 23 1.1003 0.0136
-14 7 24 -1.2283 -0.0091
-14 7 25 -3.2685 -0.0492
-14 7 26 0.3904 -0.0076
-14 8 1 0.4836 0.3791
-14 8 2 -1.0018 0.2455
-14 8 3 1.0861 -0.0925
-14 8 4 -1.8023 -0.1435
-14 8 5 -0.9672 -0.0111
-14 8 6 2.4265 0.0161
-14 8 7 2.1284 -0.0359
-14 8 8 -0.2003 -0.0245
-14 8 9 -2.9037 0.0034
-14 8 10 -0.7938 -0.0279
-14 8 11 2.3130 -0.0180
-14 8 12 1.4529 -0.0118
-14 8 13 -0.7225 -0.0251
-14 8 14 -0.8239 -0.0145
-14 8 15 1.8734 -0.0096
-14 8 16 0.0498 0.0198
-14 8 17 -2.7040 -0.0159
-14 8 18 -1.5366 -0.0615
-14 8 19 -1.5316 -0.0202
-14 8 20 1.8434 0.0186
-14 8 21 4.1400 0.0176
-14 8 22 -0.1967 -0.0099
-14 8 23 -2.8006 0.0035
-14 8 24 -3.3780 -0.0253
-14 8 25 -0.3205 -0.0324
-14 8 26 5.0019 0.0257
-14 9 1 1.8172 0.0734
-14 9 2 -0.1318 0.3035
-14 9 3 -1.1055 0.1881
-14 9 4 -3.0297 -0.1201
-14 9 5 -0.4631 -0.0740
-14 9 6 2.3594 0.1332
-14 9 7 2.9529 0.0344
-14 9 8 1.9754 -0.0485
-14 9 9 -0.9290 0.0600
-14 9 10 -0.8674 0.0402
-14 9 11 0.3965 -0.0551
-14 9 12 -0.1269 -0.0497
-14 9 13 -1.1066 0.0540
-14 9 14 0.4717 0.0738
-14 9 15 2.3789 -0.0311
-14 9 16 -0.5280 -0.0445
-14 9 17 -0.4269 0.0077
-14 9 18 0.5590 0.0045
-14 9 19 -2.3744 -0.0423
-14 9 20 -0.0478 -0.0490
-14 9 21 0.1983 -0.0524
-14 9 22 -2.7683 -0.0470
-14 9 23 1.3001 0.0520
-14 9 24 2.6974 0.0300
-14 9 25 -0.0379 -0.0380
-14 10 1 0.4841 -0.3660
-14 10 2 1.1316 0.0135
-14 10 3 -0.2916 0.2582
-14 10 4 -2.5926 -0.0037
-14 10 5 -1.1508 -0.0819
-14 10 6 0.0918 0.0963
-14 10 7 3.4338 0.0517
-14 10 8 5.4616 0.0016
-14 10 9 0.3408 0.0342
-14 10 10 -3.7180 -0.0134
-14 10 11 -1.8698 -0.0101
-14 10 12 1.4888 0.0206
-14 10 13 1.2714 0.0479
-14 10 14 1.1258 0.0753
-14 10 15 2.1100 0.0363
-14 10 16 0.6521 -0.0313
-14 10 17 1.1799 -0.0329
-14 10 18 -1.3997 0.0168
-14 10 19 -4.5825 0.0006
-14 10 20 1.5467 -0.0408
-14 10 21 2.7644 -0.0847
-14 10 22 -1.6737 -0.0740
-14 10 23 0.4307 -0.0056
-14 10 24 1.1635 -0.0295
-14 11 1 1.5409 -0.4301
-14 11 2 2.1879 -0.3074
-14 11 3 -2.1293 0.1336
-14 11 4 -2.0394 0.1359
-14 11 5 2.6729 -0.0733
-14 11 6 1.7434 -0.0652
-14 11 7 1.5605 0.0033
-14 11 8 1.3169 0.0242
-14 11 9 -2.2832 -0.0395
-14 11 10 -1.3058 -0.0480
-14 11 11 2.7318 0.0597
-14 11 12 2.8563 0.0502
-14 11 13 -0.2932 -0.0112
-14 11 14 0.6952 0.0148
-14 11 15 2.0937 0.0434
-14 11 16 -0.5302 0.0206
-14 11 17 0.4787 0.0082
-14 11 18 -0.0793 -0.0071
-14 11 19 -1.5398 -0.0389
-14 11 20 3.0811 -0.0043
-14 11 21 1.9898 -0.0167
-14 11 22 -2.8485 -0.0844
-14 11 23 -0.5557 -0.1168
-14 12 1 1.1427 0.0335
-14 12 2 2.3686 -0.2556
-14 12 3 -2.3065 -0.1154
-14 12 4 0.5983 0.0913
-14 12 5 4.3998 0.0142
-14 12 6 -1.1943 -0.1204
-14 12 7 -1.7547 -0.0920
-14 12 8 2.1054 0.0370
-14 12 9 1.8649 0.0184
-14 12 10 -0.1019 -0.0497
-14 12 11 -0.4648 -0.0095
-14 12 12 1.6203 0.0147
-14 12 13 1.8901 -0.0243
-14 12 14 1.3848 -0.0295
-14 12 15 0.0647 0.0497
-14 12 16 -1.0943 0.0515
-14 12 17 2.1350 -0.0439
-14 12 18 1.3222 -0.0383
-14 12 19 -1.6943 0.0539
-14 12 20 0.9260 0.0353
-14 12 21 1.3176 -0.0939
-14 12 22 -1.0792 -0.1078
-14 13 1 -0.0946 0.4583
-14 13 2 0.2616 -0.0209
-14 13 3 -2.1410 -0.2208
-14 13 4 0.1931 -0.0368
-14 13 5 1.5319 0.0540
-14 13 6 0.2453 0.0262
-14 13 7 1.9329 0.0009
-14 13 8 0.0095 -0.0075
-14 13 9 -1.6400 -0.0067
-14 13 10 0.5756 0.0198
-14 13 11 1.6921 -0.0182
-14 13 12 0.8242 -0.0492
-14 13 13 -0.7127 0.0060
-14 13 14 1.8078 0.0112
-14 13 15 2.3908 -0.0047
-14 13 16 -1.4972 0.0194
-14 13 17 -0.3708 0.0359
-14 13 18 1.4693 0.0145
-14 13 19 -0.1606 -0.0345
-14 13 20 -0.9250 -0.0647
-14 13 21 -0.5283 -0.0256
-14 14 1 -0.5011 0.3206
-14 14 2 -0.6172 0.1300
-14 14 3 -1.3938 -0.0948
-14 14 4 0.7455 -0.0977
-14 14 5 0.3624 0.0924
-14 14 6 -0.4266 0.1784
-14 14 7 -0.5016 0.0207
-14 14 8 -1.5669 -0.0906
-14 14 9 1.1425 0.0084
-14 14 10 0.7064 0.1011
-14 14 11 -1.4945 0.0042
-14 14 12 1.1154 -0.0223
-14 14 13 1.8795 0.0709
-14 14 14 0.3151 0.0249
-14 14 15 -2.2738 -0.0168
-14 14 16 -2.3753 0.0535
-14 14 17 2.2148 0.0328
-14 14 18 2.7469 -0.0415
-14 14 19 -1.0701 0.0016
-14 14 20 -2.5308 0.0381
-14 15 1 -1.1739 -0.1216
-14 15 2 -1.7751 0.1193
-14 15 3 2.8175 0.1517
-14 15 4 2.5335 -0.0253
-14 15 5 -3.4023 -0.0344
-14 15 6 -1.8949 0.0435
-14 15 7 0.1128 0.0618
-14 15 8 -1.4010 -0.0002
-14 15 9 0.7743 -0.0600
-14 15 10 0.8412 0.0345
-14 15 11 0.8852 0.0774
-14 15 12 0.9561 0.0340
-14 15 13 -2.7752 0.0851
-14 15 14 -2.4782 0.0901
-14 15 15 -0.0478 -0.0078
-14 15 16 0.0070 -0.0364
-14 15 17 -0.2947 0.0176
-14 15 18 -0.2826 0.0693
-14 16 1 0.8687 -0.3422
-14 16 2 -0.2429 0.0199
-14 16 3 1.3890 0.1533
-14 16 4 0.1306 0.0279
-14 16 5 -0.4557 -0.0025
-14 16 6 1.6969 -0.0754
-14 16 7 -2.4036 -0.0268
-14 16 8 -2.3119 0.0476
-14 16 9 4.0611 -0.0762
-14 16 10 1.7487 -0.0789
-14 16 11 -1.7729 0.0315
-14 16 12 -0.8683 0.0841
-14 16 13 -0.2303 0.1187
-14 16 14 -0.4404 0.0261
-14 16 15 -2.5009 -0.0970
-14 17 1 0.2956 -0.2226
-14 17 2 -1.9532 -0.0134
-14 17 3 0.8741 0.0120
-14 17 4 0.5844 0.0759
-14 17 5 0.1104 0.1170
-14 17 6 1.4448 -0.1213
-14 17 7 -0.8550 -0.0672
-14 17 8 0.5883 0.0935
-14 17 9 2.7953 -0.0844
-14 17 10 -0.0723 -0.1308
-14 17 11 -0.5128 -0.0110
-14 17 12 -0.3037 -0.0299
-13 -14 7 -1.9534 -0.0595
-13 -13 1 2.1984 0.0520
-13 -13 2 3.0035 0.0400
-13 -13 3 2.7756 -0.0184
-13 -13 4 1.3626 -0.0754
-13 -13 5 -0.7821 -0.0141
-13 -13 6 -0.0498 0.0715
-13 -13 7 -0.0324 -0.0432
-13 -13 8 -1.5721 -0.0742
-13 -13 9 -4.1088 0.0805
-13 -13 10 -2.2721 0.0290
-13 -13 11 4.8036 -0.0811
-13 -13 12 6.0284 -0.0246
-13 -13 13 3.1446 -0.0505
-13 -13 14 -0.6443 -0.1344
-13 -13 15 -4.4291 0.0061
-13 -12 1 1.1742 0.0327
-13 -12 2 0.3012 0.2324
-13 -12 3 1.0692 0.0719
-13 -12 4 2.3348 -0.1418
-13 -12 5 3.0116 -0.0139
-13 -12 6 2.3319 0.1438
-13 -12 7 -0.5308 -0.0197
-13 -12 8 -2.8027 -0.0777
-13 -12 9 -5.3903 0.0744
-13 -12 10 -0.1857 0.0366
-13 -12 11 7.8286 -0.0693
-13 -12 12 2.7818 -0.0414
-13 -12 13 -3.8385 -0.0011
-13 -12 14 -1.9944 -0.0437
-13 -12 15 2.6075 -0.0812
-13 -12 16 4.1059 0.0261
-13 -12 17 0.7786 0.1321
-13 -12 18 -1.2908 0.0256
-13 -11 1 -2.9036 -0.1421
-13 -11 2 0.0573 0.2251
-13 -11 3 5.6290 0.2616
-13 -11 4 3.5123 -0.0740
-13 -11 5 -1.4516 -0.1404
-13 -11 6 -0.7611 0.1002
-13 -11 7 2.9310 0.1233
-13 -11 8 1.8297 0.0011
-13 -11 9 -3.1913 -0.0126
-13 -11 10 0.8224 0.0295
-13 -11 11 2.1066 0.0243
-13 -11 12 -4.8741 -0.0367
-13 -11 13 -0.7748 -0.0252
-13 -11 14 4.9193 -0.0040
-13 -11 15 0.1784 -0.0666
-13 -11 16 -2.4932 -0.0127
-13 -11 17 0.0398 0.1296
-13 -11 18 0.1226 0.0322
-13 -11 19 1.1628 -0.1452
-13 -11 20 5.9223 0.0204
-13 -10 1 -0.3982 -0.1812
-13 -10 2 0.4252 -0.0636
-13 -10 3 1.7756 0.0523
-13 -10 4 -2.1603 0.0572
-13 -10 5 -1.8774 0.0027
-13 -10 6 2.3274 -0.0087
-13 -10 7 3.6146 0.0446
-13 -10 8 -0.4640 0.0650
-13 -10 9 -1.9069 -0.0104
-13 -10 10 5.7490 0.0200
-13 -10 11 3.8231 0.0829
-13 -10 12 -4.4041 -0.0348
-13 -10 13 -2.0576 -0.0678
-13 -10 14 -1.6524 0.0676
-13 -10 15 -5.3171 0.0384
-13 -10 16 -2.7885 -0.1070
-13 -10 17 0.4765 -0.0215
-13 -10 18 -0.0783 0.1187
-13 -10 19 3.0549 0.0241
-13 -10 20 5.9994 -0.0067
-13 -10 21 0.3012 0.0823
-13 -10 22 -1.3866 -0.0098
-13 -9 1 -2.8319 -0.0462
-13 -9 2 -0.7709 -0.3135
-13 -9 3 1.1746 -0.1320
-13 -9 4 -2.2230 0.1590
-13 -9 5 -1.5354 0.0361
-13 -9 6 1.0065 -0.1669
-13 -9 7 0.8753 -0.0298
-13 -9 8 -2.1560 0.1142
-13 -9 9 2.8173 -0.0018
-13 -9 10 11.6115 -0.0304
-13 -9 11 1.9586 0.0449
-13 -9 12 -7.5870 -0.0046
-13 -9 13 -0.1128 -0.0420
-13 -9 14 1.5012 0.0247
-13 -9 15 -6.9523 0.0423
-13 -9 16 -6.7260 -0.0353
-13 -9 17 1.1192 -0.0112
-13 -9 18 0.2931 0.0837
-13 -9 19 -3.0052 0.0192
-13 -9 20 0.4348 -0.0336
-13 -9 21 1.6299 0.0545
-13 -9 22 0.3911 0.0590
-13 -9 23 -0.8103 -0.0043
-13 -8 1 -2.8772 0.1650
-13 -8 2 1.3992 -0.1718
-13 -8 3 1.4436 -0.2101
-13 -8 4 -1.8876 0.0515
-13 -8 5 -0.1916 0.1028
-13 -8 6 1.0223 -0.0883
-13 -8 7 -1.8116 -0.1051
-13 -8 8 -5.1116 0.0038
-13 -8 9 2.5081 -0.0242
-13 -8 10 9.4090 -0.0456
-13 -8 11 1.2598 0.0184
-13 -8 12 -1.6275 0.0404
-13 -8 13 3.7044 -0.0368
-13 -8 14 1.6128 -0.0725
-13 -8 15 -4.6950 0.0438
-13 -8 16 -5.0042 0.0716
-13 -8 17 -1.4095 -0.0408
-13 -8 18 -2.4987 -0.0308
-13 -8 19 -1.8220 0.0353
-13 -8 20 0.6434 0.0082
-13 -8 21 -2.6965 0.0070
-13 -8 22 -3.0098 0.0671
-13 -8 23 0.4203 0.0840
-13 -8 24 0.3829 -0.0372
-13 -7 1 -2.1646 0.2405
-13 -7 2 1.8014 0.1879
-13 -7 3 0.5974 -0.0096
-13 -7 4 -1.4691 -0.0993
-13 -7 5 -0.0587 0.0069
-13 -7 6 -0.0702 0.0691
-13 -7 7 -3.4149 -0.0048
-13 -7 8 -5.5812 -0.0826
-13 -7 9 1.7775 -0.0473
-13 -7 10 5.3020 0.0173
-13 -7 11 -0.8779 -0.0081
-13 -7 12 -1.5242 0.0060
-13 -7 13 4.0600 0.0135
-13 -7 14 6.3240 -0.0816
-13 -7 15 -2.2000 -0.0442
-13 -7 16 -8.1296 0.0722
-13 -7 17 0.3351 0.0101
-13 -7 18 4.5882 -0.0558
-13 -7 19 0.0668 -0.0039
-13 -7 20 -2.4898 0.0049
-13 -7 21 -2.6127 0.0166
-13 -7 22 -2.2853 0.0600
-13 -7 23 -3.0360 -0.0027
-13 -7 24 -2.8405 -0.1133
-13 -7 25 -0.7787 -0.1126
-13 -6 1 -2.1882 0.0049
-13 -6 2 -0.2224 0.3120
-13 -6 3 -1.6157 0.1490
-13 -6 4 -1.9379 -0.1479
-13 -6 5 -1.4223 -0.0261
-13 -6 6 -0.1907 0.1654
-13 -6 7 0.8339 0.0703
-13 -6 8 -0.1972 -0.0702
-13 -6 9 -2.7257 -0.0090
-13 -6 10 -6.7777 0.0687
-13 -6 11 -2.8808 0.0030
-13 -6 12 3.8102 -0.0102
-13 -6 13 3.1724 0.0173
-13 -6 14 0.7299 -0.0578
-13 -6 15 -3.2403 -0.0457
-13 -6 16 -1.5696 0.0713
-13 -6 17 3.8502 0.0406
-13 -6 18 0.8066 -0.0460
-13 -6 19 0.0057 -0.0315
-13 -6 20 2.6305 -0.0168
-13 -6 21 -0.8512 -0.0016
-13 -6 22 -3.3922 -0.0008
-13 -6 23 -1.0164 -0.0576
-13 -6 24 -0.2389 -0.0248
-13 -6 25 -2.1450 0.0173
-13 -6 26 -1.3747 -0.1193
-13 -5 1 -1.7329 -0.2504
-13 -5 2 -3.9843 0.0149
-13 -5 3 -4.9691 0.0901
-13 -5 4 -0.5628 -0.0256
-13 -5 5 4.1350 -0.0336
-13 -5 6 3.6573 0.0607
-13 -5 7 -1.7866 0.1028
-13 -5 8 -4.6795 0.0275
-13 -5 9 -5.1583 -0.0200
-13 -5 10 -3.6031 0.0306
-13 -5 11 2.3296 0.0282
-13 -5 12 -0.1372 -0.0073
-13 -5 13 -3.6981 0.0375
-13 -5 14 0.9635 0.0526
-13 -5 15 -0.4922 -0.0084
-13 -5 16 -2.4288 -0.0132
-13 -5 17 -0.2446 0.0216
-13 -5 18 -0.1380 0.0206
-13 -5 19 1.6553 -0.0117
-13 -5 20 1.5703 -0.0529
-13 -5 21 0.5328 -0.0038
-13 -5 22 2.5899 0.0657
-13 -5 23 1.0825 -0.0277
-13 -5 24 -3.2729 -0.0866
-13 -5 25 -2.9031 0.0101
-13 -5 26 0.0309 -0.0525
-13 -5 27 0.6905 -0.1644
-13 -4 1 -2.1731 -0.2449
-13 -4 2 -0.7760 -0.2668
-13 -4 3 0.2919 -0.0639
-13 -4 4 1.9323 0.1217
-13 -4 5 1.1337 0.0120
-13 -4 6 -2.8722 -0.1440
-13 -4 7 -2.5937 -0.0320
-13 -4 8 3.7422 0.0850
-13 -4 9 0.1236 -0.0057
-13 -4 10 -5.9359 -0.0423
-13 -4 11 -1.2876 0.0458
-13 -4 12 0.7975 0.0356
-13 -4 13 1.3728 -0.0159
-13 -4 14 0.0939 0.0262
-13 -4 15 -5.1112 0.0447
-13 -4 16 -1.2615 0.0070
-13 -4 17 1.4675 -0.0064
-13 -4 18 -3.0981 0.0107
-13 -4 19 -2.1048 0.0245
-13 -4 20 1.8488 -0.0043
-13 -4 21 3.6624 -0.0023
-13 -4 22 2.3826 0.0461
-13 -4 23 -2.0856 -0.0141
-13 -4 24 -3.3103 -0.0357
-13 -4 25 0.4100 0.1129
-13 -4 26 1.5357 0.0434
-13 -4 27 0.0151 -0.1817
-13 -4 28 0.8267 -0.1197
-13 -3 1 1.4336 0.1226
-13 -3 2 1.3592 -0.1730
-13 -3 3 -2.0400 -0.1426
-13 -3 4 -3.5774 0.0819
-13 -3 5 2.1942 0.0004
-13 -3 6 4.9673 -0.1837
-13 -3 7 1.1720 -0.0804
-13 -3 8 -1.8527 0.0776
-13 -3 9 -5.0728 0.0056
-13 -3 10 -0.5869 -0.0772
-13 -3 11 4.7237 -0.0184
-13 -3 12 -0.1326 -0.0026
-13 -3 13 -0.2215 -0.0257
-13 -3 14 1.5436 0.0180
-13 -3 15 -1.3812 0.0295
-13 -3 16 -1.5067 -0.0028
-13 -3 17 -2.4987 -0.0204
-13 -3 18 -1.4752 -0.0102
-13 -3 19 2.5402 0.0455
-13 -3 20 1.1198 0.0181
-13 -3 21 -1.8963 -0.0732
-13 -3 22 -1.2802 0.0144
-13 -3 23 0.4194 0.1167
-13 -3 24 1.1521 0.0417
-13 -3 25 0.2702 0.0398
-13 -3 26 -2.3873 0.0822
-13 -3 27 -1.4690 0.0076
-13 -3 28 1.8661 -0.0417
-13 -2 1 -2.3937 0.3502
-13 -2 2 -0.0219 0.1449
-13 -2 3 -0.1461 -0.0520
-13 -2 4 -1.6601 -0.0541
-13 -2 5 3.6471 0.0256
-13 -2 6 3.0529 0.0109
-13 -2 7 -2.6609 -0.0679
-13 -2 8 -1.9936 -0.0348
-13 -2 9 -0.3098 0.0479
-13 -2 10 1.4030 0.0058
-13 -2 11 0.5204 -0.0654
-13 -2 12 0.3087 -0.0472
-13 -2 13 4.5879 -0.0047
-13 -2 14 1.0434 -0.0024
-13 -2 15 -4.5556 -0.0178
-13 -2 16 -1.8930 -0.0022
-13 -2 17 1.6683 -0.0060
-13 -2 18 2.6325 -0.0411
-13 -2 19 0.6255 -0.0088
-13 -2 20 -2.2732 0.0144
-13 -2 21 -1.6361 -0.0411
-13 -2 22 1.6983 -0.0007
-13 -2 23 2.7150 0.0721
-13 -2 24 -0.2531 0.0081
-13 -2 25 -2.3087 0.0034
-13 -2 26 -1.6686 0.1174
-13 -2 27 0.4055 0.1573
-13 -2 28 -0.1972 0.0766
-13 -2 29 -3.4068 -0.0280
-13 -1 1 -2.3896 0.0869
-13 -1 2 1.3199 0.2689
-13 -1 3 -0.9922 0.1462
-13 -1 4 -5.4321 -0.1008
-13 -1 5 1.6763 -0.0001
-13 -1 6 4.2962 0.1792
-13 -1 7 -1.4484 0.0316
-13 -1 8 -3.4313 -0.1043
-13 -1 9 -0.3777 0.0421
-13 -1 10 3.0759 0.1077
-13 -1 11 1.7303 -0.0280
-13 -1 12 0.9753 -0.0712
-13 -1 13 0.7302 0.0237
-13 -1 14 -2.0962 0.0441
-13 -1 15 -0.1452 -0.0368
-13 -1 16 1.9322 -0.0392
-13 -1 17 -0.9782 0.0258
-13 -1 18 -2.1477 -0.0113
-13 -1 19 0.5209 -0.0613
-13 -1 20 2.3117 0.0003
-13 -1 21 0.0396 0.0064
-13 -1 22 -0.8329 -0.0409
-13 -1 23 1.4208 0.0021
-13 -1 24 2.6817 0.0007
-13 -1 25 2.0741 -0.0636
-13 -1 26 -1.2509 0.0363
-13 -1 27 -3.5538 0.2137
-13 -1 28 -2.8993 0.1387
-13 -1 29 -1.3490 -0.0319
-13 0 1 -2.2706 -0.3248
-13 0 2 1.2793 0.0301
-13 0 3 -1.7304 0.1799
-13 0 4 -5.4487 -0.0062
-13 0 5 0.9972 -0.0291
-13 0 6 2.6442 0.1297
-13 0 7 -2.1789 0.0924
-13 0 8 -2.6388 -0.0596
-13 0 9 1.4839 -0.0331
-13 0 10 1.7864 0.0691
-13 0 11 0.0091 0.0681
-13 0 12 3.0952 0.0087
-13 0 13 1.8880 0.0032
-13 0 14 -1.8705 0.0406
-13 0 15 0.2808 0.0171
-13 0 16 -0.0593 -0.0291
-13 0 17 -2.9676 0.0097
-13 0 18 -1.2491 0.0167
-13 0 19 2.0922 -0.0446
-13 0 20 0.2537 0.0018
-13 0 21 -3.2621 0.0485
-13 0 22 -0.0914 -0.0241
-13 0 23 3.7878 -0.0506
-13 0 24 3.1809 -0.0360
-13 0 25 1.0764 -0.0794
-13 0 26 -1.4085 -0.0199
-13 0 27 -1.2368 0.1394
-13 0 28 -0.0901 0.0857
-13 0 29 -1.0322 -0.0352
-13 1 1 -0.0020 -0.3837
-13 1 2 4.5491 -0.2594
-13 1 3 0.2299 0.0294
-13 1 4 -4.9907 0.1149
-13 1 5 -2.1356 -0.0463
-13 1 6 0.9485 -0.0914
-13 1 7 -0.6666 0.0469
-13 1 8 -2.3463 0.0530
-13 1 9 1.2468 -0.0804
-13 1 10 1.9865 -0.0460
-13 1 11 0.4438 0.1048
-13 1 12 2.7614 0.0694
-13 1 13 1.8647 -0.0426
-13 1 14 0.3303 0.0002
-13 1 15 0.6363 0.0429
-13 1 16 -1.5485 -0.0199
-13 1 17 -1.7095 0.0021
-13 1 18 1.1008 0.0520
-13 1 19 0.9940 0.0008
-13 1 20 -2.7402 0.0023
-13 1 21 -2.6272 0.0326
-13 1 22 0.5598 -0.0243
-13 1 23 0.1125 -0.0368
-13 1 24 1.1990 0.0233
-13 1 25 2.4772 -0.0325
-13 1 26 -0.4163 -0.0879
-13 1 27 -1.0788 0.0231
-13 1 28 -0.0444 0.0437
-13 1 29 -0.5858 -0.0151
-13 2 1 2.7504 0.1285
-13 2 2 1.6197 -0.2143
-13 2 3 -0.0982 -0.2184
-13 2 4 -1.6248 0.0693
-13 2 5 -2.6917 0.0072
-13 2 6 1.2806 -0.1916
-13 2 7 2.5969 -0.0509
-13 2 8 -2.0148 0.1162
-13 2 9 -1.6171 -0.0233
-13 2 10 0.1745 -0.1104
-13 2 11 1.6728 0.0210
-13 2 12 4.1997 0.0477
-13 2 13 2.3017 -0.0544
-13 2 14 -0.3602 -0.0370
-13 2 15 -0.4684 0.0352
-13 2 16 0.4320 -0.0026
-13 2 17 1.0211 -0.0188
-13 2 18 0.8361 0.0359
-13 2 19 -0.1098 0.0278
-13 2 20 -1.0177 -0.0291
-13 2 21 0.5868 -0.0207
-13 2 22 -0.9263 0.0211
-13 2 23 -3.2046 0.0163
-13 2 24 1.3809 0.0344
-13 2 25 0.5515 0.0104
-13 2 26 -4.9226 -0.0577
-13 2 27 -1.0394 -0.0278
-13 2 28 3.7823 0.0041
-13 2 29 1.3313 0.0153
-13 3 1 -1.3038 0.5586
-13 3 2 -0.6338 0.1015
-13 3 3 4.8760 -0.2498
-13 3 4 1.3350 -0.0820
-13 3 5 -5.2596 0.0703
-13 3 6 1.1969 -0.0425
-13 3 7 4.0905 -0.0903
-13 3 8 -2.1403 0.0372
-13 3 9 -0.8779 0.0706
-13 3 10 2.8639 -0.0299
-13 3 11 1.5036 -0.0794
-13 3 12 -0.3131 -0.0317
-13 3 13 1.7772 0.0005
-13 3 14 3.5767 -0.0054
-13 3 15 0.1661 -0.0043
-13 3 16 -2.3502 -0.0148
-13 3 17 -0.4915 -0.0254
-13 3 18 2.6320 -0.0091
-13 3 19 2.5788 0.0009
-13 3 20 1.6608 -0.0360
-13 3 21 2.8545 -0.0122
-13 3 22 -1.9145 0.0377
-13 3 23 -4.4548 -0.0020
-13 3 24 1.3986 0.0191
-13 3 25 -1.4635 0.0407
-13 3 26 -5.9314 -0.0094
-13 3 27 0.5496 -0.0196
-13 3 28 2.2997 -0.0074
-13 3 29 -2.7150 0.0442
-13 4 1 2.0343 0.3192
-13 4 2 -0.0669 0.2948
-13 4 3 1.7637 0.0112
-13 4 4 -2.3465 -0.1330
-13 4 5 -4.8742 0.0468
-13 4 6 2.7250 0.1423
-13 4 7 4.1233 -0.0135
-13 4 8 -0.1805 -0.0517
-13 4 9 0.2737 0.0698
-13 4 10 1.5445 0.0387
-13 4 11 1.1996 -0.0762
-13 4 12 1.3670 -0.0158
-13 4 13 2.8238 0.0687
-13 4 14 0.0429 0.0116
-13 4 15 -3.5358 -0.0472
-13 4 16 0.1669 -0.0136
-13 4 17 3.4999 -0.0022
-13 4 18 1.7518 -0.0259
-13 4 19 -0.3695 -0.0084
-13 4 20 2.9868 -0.0205
-13 4 21 5.8921 -0.0039
-13 4 22 -1.7878 0.0208
-13 4 23 -3.7053 -0.0228
-13 4 24 3.2592 -0.0110
-13 4 25 -1.4908 0.0142
-13 4 26 -6.9127 0.0469
-13 4 27 -0.6510 0.0428
-13 4 28 0.9584 -0.0201
-13 4 29 -2.4294 0.0280
-13 5 1 0.0882 -0.3434
-13 5 2 -4.8415 0.1751
-13 5 3 0.0136 0.3123
-13 5 4 -1.4741 -0.0269
-13 5 5 -2.9656 -0.0576
-13 5 6 0.8625 0.1339
-13 5 7 1.7106 0.0578
-13 5 8 1.3769 -0.0733
-13 5 9 0.6753 0.0081
-13 5 10 1.4328 0.0600
-13 5 11 2.7878 0.0011
-13 5 12 0.1569 0.0193
-13 5 13 -1.1277 0.0689
-13 5 14 -0.6168 0.0169
-13 5 15 0.2063 -0.0551
-13 5 16 0.8541 -0.0012
-13 5 17 -0.2108 0.0410
-13 5 18 1.0913 0.0020
-13 5 19 2.3279 -0.0011
-13 5 20 2.8023 -0.0050
-13 5 21 2.6327 -0.0052
-13 5 22 -0.7395 -0.0245
-13 5 23 0.9052 -0.0152
-13 5 24 2.2128 0.0320
-13 5 25 -4.6839 -0.0076
-13 5 26 -3.4906 0.0108
-13 5 27 4.4496 0.0412
-13 5 28 -0.2907 0.0154
-13 5 29 -7.0843 0.0321
-13 6 1 -3.1751 -0.5956
-13 6 2 0.6508 -0.1076
-13 6 3 3.4889 0.2756
-13 6 4 -1.8407 0.0805
-13 6 5 -3.3317 -0.1382
-13 6 6 -2.3089 -0.0487
-13 6 7 -0.0339 0.0714
-13 6 8 4.0084 0.0069
-13 6 9 1.4240 -0.0593
-13 6 10 -0.1449 0.0108
-13 6 11 1.5766 0.0751
-13 6 12 -0.9018 0.0121
-13 6 13 -2.0576 -0.0259
-13 6 14 -0.6745 0.0097
-13 6 15 0.4292 0.0063
-13 6 16 -0.0961 0.0222
-13 6 17 -0.5351 0.0243
-13 6 18 1.3278 0.0104
-13 6 19 0.9223 0.0205
-13 6 20 1.2728 0.0110
-13 6 21 2.4754 0.0050
-13 6 22 0.2115 -0.0283
-13 6 23 0.3727 0.0008
-13 6 24 0.8595 0.0325
-13 6 25 -1.1926 -0.0279
-13 6 26 0.0799 -0.0140
-13 6 27 0.1977 -0.0034
-13 6 28 -3.8480 0.0198
-13 7 1 2.3551 -0.1424
-13 7 2 0.4777 -0.2701
-13 7 3 -1.2818 -0.1017
-13 7 4 -2.7301 0.0694
-13 7 5 -0.0658 -0.0481
-13 7 6 -0.1379 -0.1467
-13 7 7 1.8771 0.0006
-13 7 8 4.3257 0.0598
-13 7 9 -1.7243 -0.0429
-13 7 10 -2.9180 -0.0234
-13 7 11 1.9484 0.0340
-13 7 12 1.3558 -0.0640
-13 7 13 -1.6990 -0.0714
-13 7 14 -2.2833 0.0387
-13 7 15 -0.2522 0.0504
-13 7 16 -0.4911 0.0061
-13 7 17 -1.7833 -0.0335
-13 7 18 -0.2994 0.0004
-13 7 19 0.8956 0.0364
-13 7 20 1.7184 0.0261
-13 7 21 0.7258 0.0256
-13 7 22 0.4966 -0.0210
-13 7 23 2.4145 -0.0174
-13 7 24 -1.3182 0.0034
-13 7 25 -3.9327 -0.0038
-13 7 26 1.4746 -0.0186
-13 7 27 2.9669 -0.0836
-13 7 28 -1.6243 -0.0101
-13 8 1 -5.1588 0.4523
-13 8 2 -1.6371 -0.1702
-13 8 3 1.7412 -0.3749
-13 8 4 0.8065 0.0066
-13 8 5 0.6758 0.1138
-13 8 6 -0.4396 -0.0676
-13 8 7 1.9895 -0.0415
-13 8 8 3.0052 0.0414
-13 8 9 -1.5928 -0.0364
-13 8 10 -0.5698 -0.0504
-13 8 11 2.0291 0.0008
-13 8 12 0.0841 -0.0504
-13 8 13 -1.3586 -0.0466
-13 8 14 -1.1570 0.0122
-13 8 15 -0.6905 0.0268
-13 8 16 -0.8763 0.0021
-13 8 17 -0.0730 -0.0406
-13 8 18 -0.9998 -0.0069
-13 8 19 -1.9859 0.0064
-13 8 20 2.0201 0.0034
-13 8 21 2.5650 0.0266
-13 8 22 -0.9584 0.0008
-13 8 23 -2.9340 -0.0083
-13 8 24 -2.1745 -0.0201
-13 8 25 5.4637 0.0070
-13 8 26 7.4414 -0.0112
-13 8 27 -4.9717 -0.1175
-13 9 1 0.5755 0.4754
-13 9 2 2.2160 0.0634
-13 9 3 -1.8057 -0.2325
-13 9 4 -3.8883 -0.0285
-13 9 5 0.1935 0.1787
-13 9 6 3.0147 0.0648
-13 9 7 3.7943 -0.0828
-13 9 8 0.8915 -0.0218
-13 9 9 -1.6871 0.0375
-13 9 10 0.4609 -0.0088
-13 9 11 0.1296 -0.0438
-13 9 12 -0.2334 -0.0063
-13 9 13 1.2666 0.0422
-13 9 14 0.1217 -0.0217
-13 9 15 -0.7380 -0.0474
-13 9 16 1.2137 0.0192
-13 9 17 1.8690 0.0334
-13 9 18 -2.7530 -0.0103
-13 9 19 -2.5514 -0.0765
-13 9 20 2.5354 -0.0436
-13 9 21 -1.0425 0.0300
-13 9 22 -2.5458 0.0572
-13 9 23 2.9849 0.0295
-13 9 24 3.5580 -0.0749
-13 9 25 2.4737 -0.0538
-13 9 26 -0.2400 0.0128
-13 9 27 -4.9447 -0.0146
-13 10 1 0.9086 -0.0142
-13 10 2 -0.9236 0.2403
-13 10 3 -1.7979 0.1361
-13 10 4 0.3202 -0.0643
-13 10 5 0.6499 0.0293
-13 10 6 -0.0970 0.0968
-13 10 7 2.6087 -0.0208
-13 10 8 1.1554 -0.0182
-13 10 9 -1.5736 0.0252
-13 10 10 -0.5337 0.0018
-13 10 11 -0.6125 0.0079
-13 10 12 0.9886 0.0425
-13 10 13 2.7885 0.0414
-13 10 14 1.6747 -0.0149
-13 10 15 -0.0164 -0.0287
-13 10 16 -0.1944 -0.0051
-13 10 17 0.8286 0.0216
-13 10 18 -1.0879 0.0111
-13 10 19 -0.5988 -0.0318
-13 10 20 2.0250 -0.0119
-13 10 21 0.6509 -0.0290
-13 10 22 1.6486 -0.0488
-13 10 23 0.3864 -0.0233
-13 10 24 -3.4958 0.0042
-13 10 25 2.4073 0.0579
-13 10 26 6.5532 0.0091
-13 11 1 2.1045 -0.4122
-13 11 2 2.7754 0.1986
-13 11 3 0.8382 0.3190
-13 11 4 1.6672 -0.1063
-13 11 5 -0.3245 -0.1579
-13 11 6 -1.4288 0.0447
-13 11 7 1.8242 0.0511
-13 11 8 -0.4126 0.0019
-13 11 9 -1.6683 -0.0221
-13 11 10 1.3081 0.0085
-13 11 11 1.6082 0.0504
-13 11 12 1.6967 0.0181
-13 11 13 0.5284 -0.0090
-13 11 14 -0.6010 0.0084
-13 11 15 0.2928 0.0125
-13 11 16 1.3104 0.0002
-13 11 17 0.8062 0.0327
-13 11 18 -1.7975 0.0189
-13 11 19 1.2446 -0.0262
-13 11 20 5.3083 -0.0317
-13 11 21 0.9209 -0.0749
-13 11 22 -3.3837 -0.0597
-13 11 23 -2.6840 -0.0049
-13 11 24 2.2730 0.0239
-13 11 25 6.7297 0.0121
-13 12 1 4.4503 -0.2901
-13 12 2 0.2843 -0.0503
-13 12 3 -1.1340 0.1150
-13 12 4 5.1201 -0.0577
-13 12 5 1.0617 -0.1336
-13 12 6 -4.5493 -0.0394
-13 12 7 0.6453 0.0632
-13 12 8 2.8370 0.0595
-13 12 9 0.8708 -0.0685
-13 12 10 -0.9943 -0.0645
-13 12 11 -0.5398 0.0290
-13 12 12 2.0938 -0.0076
-13 12 13 0.9115 -0.0423
-13 12 14 1.0535 0.0488
-13 12 15 1.6319 0.0768
-13 12 16 -1.5972 -0.0214
-13 12 17 -1.9400 -0.0380
-13 12 18 1.5882 0.0076
-13 12 19 3.2341 0.0068
-13 12 20 -0.6697 -0.0278
-13 12 21 -2.5470 -0.0369
-13 12 22 1.5719 -0.0385
-13 12 24 1.2640 -0.0613
-13 13 1 -0.6469 0.0504
-13 13 2 -1.4476 -0.2761
-13 13 3 0.7371 -0.1253
-13 13 4 5.1285 0.0930
-13 13 5 -0.7740 0.0524
-13 13 6 -2.9237 -0.0645
-13 13 7 2.0324 -0.0269
-13 13 8 0.3671 0.0348
-13 13 9 -1.8117 -0.0197
-13 13 10 -1.0654 -0.0602
-13 13 11 1.9911 -0.0558
-13 13 12 3.4846 -0.0260
-13 13 13 -0.0891 0.0194
-13 13 14 -0.2245 0.0415
-13 13 15 0.5611 0.0271
-13 13 16 -0.7661 -0.0037
-13 13 17 0.6714 -0.0169
-13 13 18 0.7939 -0.0271
-13 13 19 -2.8600 -0.0256
-13 13 20 -3.1726 -0.0098
-13 13 21 2.8244 0.0215
-13 13 22 3.7341 -0.0291
-13 13 23 -1.8734 -0.1482
-13 14 1 1.5495 0.2526
-13 14 2 -0.4812 -0.1606
-13 14 3 -1.2081 -0.1460
-13 14 4 1.5086 0.1055
-13 14 5 -1.5106 0.1469
-13 14 6 -1.1151 -0.0152
-13 14 7 0.5504 -0.0935
-13 14 8 -1.1882 -0.0138
-13 14 9 -0.8053 0.0525
-13 14 10 -0.5164 -0.0031
-13 14 11 2.1910 -0.0676
-13 14 12 2.3771 0.0063
-13 14 13 -2.6078 0.0522
-13 14 14 -1.3645 0.0019
-13 14 15 2.1189 0.0033
-13 14 16 0.7032 0.0023
-13 14 17 -1.0193 -0.0339
-13 14 18 -0.1199 0.0143
-13 14 19 -0.3370 0.0570
-13 14 20 -2.4416 -0.0208
-13 14 21 -1.4755 -0.0376
-13 14 22 -0.2810 -0.0131
-13 15 1 -1.3116 0.1977
-13 15 2 -1.5630 0.1141
-13 15 3 1.4092 -0.0367
-13 15 4 -0.1320 -0.0688
-13 15 5 -4.0499 0.0766
-13 15 6 -0.0065 0.1017
-13 15 7 1.6252 -0.0392
-13 15 8 0.1043 -0.0782
-13 15 9 0.1111 0.0353
-13 15 10 -1.1400 0.0669
-13 15 11 0.4994 -0.0032
-13 15 12 0.0746 0.0397
-13 15 13 -2.5567 0.0604
-13 15 14 -0.5606 -0.0359
-13 15 15 0.8854 -0.0305
-13 15 16 -0.0000 0.0501
-13 15 17 0.1225 0.0498
-13 15 18 1.1564 0.0462
-13 15 19 -0.4367 0.0552
-13 15 20 -3.3714 0.0174
-13 16 1 0.1677 -0.1140
-13 16 2 -0.2334 0.2474
-13 16 3 -0.4524 0.1281
-13 16 4 -2.9022 -0.1276
-13 16 5 -1.0496 -0.0330
-13 16 6 3.4586 0.0735
-13 16 7 1.3367 0.0501
-13 16 8 0.6135 -0.0296
-13 16 9 0.5398 -0.0738
-13 16 10 -1.9307 0.0015
-13 16 11 -0.3019 0.0931
-13 16 12 1.0530 0.0987
-13 16 13 0.0369 -0.0111
-13 16 14 -1.7807 -0.0838
-13 16 15 -2.0946 0.0366
-13 16 16 1.1398 0.1470
-13 16 17 1.3313 0.0758
-13 16 18 -0.8218 0.0284
-13 17 1 -1.0922 -0.1873
-13 17 2 -3.4686 0.2694
-13 17 3 -1.2645 0.1170
-13 17 4 -0.7011 -0.1111
-13 17 5 1.8480 -0.0471
-13 17 6 2.6762 0.0133
-13 17 7 -0.2561 0.1087
-13 17 8 1.0101 0.0465
-13 17 9 1.9101 -0.1191
-13 17 10 0.2895 -0.0716
-13 17 11 -0.9033 -0.0046
-13 17 12 -0.3322 -0.0139
-13 17 13 2.9423 0.0638
-13 17 14 0.8985 0.1115
-13 17 15 -2.9935 0.0321
-13 17 16 -0.7266 -0.0209
-13 18 1 -1.1090 -0.1221
-13 18 2 -0.8515 0.0273
-13 18 3 -1.4797 -0.0516
-13 18 4 -2.0359 0.0929
-13 18 5 1.5969 0.1285
-13 18 6 2.4381 -0.0500
-13 18 7 0.3845 0.0757
-13 18 8 0.0410 0.0877
-13 18 9 0.0791 -0.1486
-13 18 10 1.4758 -0.1256
-13 18 11 0.9456 0.0154
-13 18 12 0.9415 0.0293
-13 18 13 3.4154 0.0351
-12 -15 3 -1.3508 0.0926
-12 -15 4 -0.5125 -0.1318
-12 -15 5 0.6229 -0.0584
-12 -15 6 0.7217 0.0863
-12 -15 7 -1.9432 0.0269
-12 -15 8 -0.7881 -0.0241
-12 -15 9 2.6852 -0.0286
-12 -15 10 -0.7950 -0.0390
-12 -15 11 -4.2560 -0.0306
-12 -15 12 -0.4379 0.0227
-12 -14 1 5.7431 -0.1491
-12 -14 2 0.7778 -0.2030
-12 -14 3 -2.3636 0.0230
-12 -14 4 -0.2794 0.0895
-12 -14 5 1.2149 -0.0477
-12 -14 6 0.4809 -0.0763
-12 -14 7 -2.1288 0.0016
-12 -14 8 -1.7113 0.0176
-12 -14 9 -1.2570 -0.0300
-12 -14 10 -1.3578 -0.0437
-12 -14 11 1.8349 -0.0481
-12 -14 12 4.4064 -0.0291
-12 -14 13 3.2710 0.0251
-12 -14 14 -2.9400 -0.0194
-12 -14 15 -6.0503 0.0238
-12 -14 16 -1.2194 0.1911
-12 -13 1 2.5480 0.0521
-12 -13 2 1.9116 -0.2077
-12 -13 3 2.0791 -0.0172
-12 -13 4 0.0085 0.1123
-12 -13 5 -0.6479 -0.0508
-12 -13 6 0.4242 -0.1208
-12 -13 7 -2.1749 -0.0341
-12 -13 8 -3.9562 0.0426
-12 -13 9 -2.1037 0.0306
-12 -13 10 3.2999 -0.0317
-12 -13 11 5.7419 -0.0909
-12 -13 12 3.1267 -0.0878
-12 -13 13 -0.2013 -0.0251
-12 -13 14 -5.9860 -0.0146
-12 -13 15 -4.2531 0.0671
-12 -13 16 5.4546 0.1686
-12 -13 17 6.1760 -0.0237
-12 -13 18 -0.5034 -0.1623
-12 -13 19 -4.1592 0.0678
-12 -12 1 1.9346 0.3034
-12 -12 2 1.1352 -0.0105
-12 -12 3 2.5097 -0.0898
-12 -12 4 1.5407 0.0056
-12 -12 5 0.0212 0.0568
-12 -12 6 -1.1266 0.0236
-12 -12 7 -0.8403 -0.0414
-12 -12 8 -0.6820 -0.0123
-12 -12 9 -2.4138 0.0236
-12 -12 10 1.5497 -0.0023
-12 -12 11 3.8462 -0.0541
-12 -12 12 0.0865 -0.0641
-12 -12 13 -1.7172 -0.0024
-12 -12 14 -0.8972 -0.0298
-12 -12 15 3.9402 -0.0571
-12 -12 16 4.8237 0.0655
-12 -12 17 -0.9657 0.0728
-12 -12 18 -0.9323 -0.0497
-12 -12 19 2.2743 -0.0209
-12 -12 20 -0.2075 0.0597
-12 -12 21 -3.9324 0.0673
-12 -11 1 -1.1801 0.1483
-12 -11 2 2.2035 0.2233
-12 -11 3 4.9966 0.0706
-12 -11 4 -0.8816 -0.1190
-12 -11 5 -3.4399 0.0214
-12 -11 6 1.1082 0.1603
-12 -11 7 4.6155 0.0253
-12 -11 8 -0.3655 -0.0669
-12 -11 9 -4.2908 -0.0030
-12 -11 10 1.1768 0.0817
-12 -11 11 1.2769 0.0347
-12 -11 12 0.0927 -0.0768
-12 -11 13 2.0970 -0.0399
-12 -11 14 -2.8245 0.0159
-12 -11 15 -3.6079 -0.0142
-12 -11 16 2.7590 0.0207
-12 -11 17 4.1771 0.0357
-12 -11 18 2.2481 -0.0752
-12 -11 19 3.2291 -0.0714
-12 -11 20 3.2424 0.0885
-12 -11 21 -1.3273 0.1348
-12 -11 22 -3.8641 0.0352
-12 -11 23 -3.2852 -0.1413
-12 -10 1 -1.2768 -0.2017
-12 -10 2 -0.4029 0.1520
-12 -10 3 0.4859 0.1320
-12 -10 4 -0.5940 -0.0965
-12 -10 5 0.8753 -0.0207
-12 -10 6 1.1761 0.1176
-12 -10 7 1.3451 0.0852
-12 -10 8 -0.0659 -0.0085
-12 -10 9 1.8122 -0.0634
-12 -10 10 5.5605 0.0283
-12 -10 11 0.5573 0.0845
-12 -10 12 -2.4204 -0.0195
-12 -10 13 -3.9928 -0.0136
-12 -10 14 -7.6363 0.0878
-12 -10 15 -0.9459 0.0016
-12 -10 16 4.9139 -0.1009
-12 -10 17 0.2560 0.0162
-12 -10 18 0.0004 0.0793
-12 -10 19 6.0335 0.0013
-12 -10 20 3.0745 -0.0062
-12 -10 21 -3.8398 0.0011
-12 -10 22 -1.3778 0.0072
-12 -10 23 0.6222 -0.0096
-12 -10 24 -0.1744 -0.1486
-12 -9 1 -2.3319 -0.3287
-12 -9 2 0.9614 -0.0780
-12 -9 3 2.2552 0.1021
-12 -9 4 -0.0022 0.0267
-12 -9 5 -1.1588 -0.0888
-12 -9 6 0.1807 -0.0840
-12 -9 7 2.3511 0.0612
-12 -9 8 0.6958 0.0885
-12 -9 9 5.2330 -0.0703
-12 -9 10 7.1055 -0.0757
-12 -9 11 -3.2772 0.0595
-12 -9 12 -3.5890 0.0423
-12 -9 13 1.5316 -0.0297
-12 -9 14 -2.3699 0.0426
-12 -9 15 -4.5115 0.0576
-12 -9 16 -1.8371 -0.0318
-12 -9 17 -0.4827 0.0108
-12 -9 18 -0.6665 0.0423
-12 -9 19 0.7577 -0.0136
-12 -9 20 0.9259 0.0186
-12 -9 21 0.1315 0.0226
-12 -9 22 0.2882 0.0164
-12 -9 23 -1.3334 0.0495
-12 -9 24 0.6478 -0.1162
-12 -9 25 2.3881 -0.1861
-12 -8 1 1.1696 -0.0004
-12 -8 2 2.8475 -0.1822
-12 -8 3 -0.0121 -0.0868
-12 -8 4 0.5531 0.0916
-12 -8 5 1.9650 -0.0153
-12 -8 6 -0.0996 -0.1876
-12 -8 7 -3.1616 -0.0641
-12 -8 8 -2.0634 0.0922
-12 -8 9 7.6918 -0.0006
-12 -8 10 6.2397 -0.1096
-12 -8 11 -2.9478 -0.0258
-12 -8 12 1.8428 0.0460
-12 -8 13 3.9235 -0.0273
-12 -8 14 -2.8311 -0.0112
-12 -8 15 -4.4262 0.0619
-12 -8 16 -2.2924 0.0000
-12 -8 17 -1.1800 -0.0496
-12 -8 18 -0.0778 -0.0162
-12 -8 19 1.0434 0.0594
-12 -8 20 -1.9403 0.1081
-12 -8 21 -3.4097 -0.0215
-12 -8 22 -0.4493 -0.0659
-12 -8 23 -0.0110 0.0892
-12 -8 24 0.2142 -0.0386
-12 -8 25 0.4178 -0.1943
-12 -8 26 0.7600 0.0783
-12 -7 1 2.4612 0.3608
-12 -7 2 1.6203 -0.0427
-12 -7 3 -1.2768 -0.1506
-12 -7 4 0.6252 0.0107
-12 -7 5 0.3268 0.0527
-12 -7 6 0.0436 -0.0515
-12 -7 7 -1.2954 -0.1094
-12 -7 8 -2.2110 -0.0094
-12 -7 9 3.6541 0.0963
-12 -7 10 1.8197 -0.0172
-12 -7 11 -2.7156 -0.1211
-12 -7 12 1.6263 -0.0213
-12 -7 13 4.2675 0.0167
-12 -7 14 1.4427 -0.0255
-12 -7 15 -4.8893 0.0049
-12 -7 16 -4.1551 0.0111
-12 -7 17 4.8095 -0.0314
-12 -7 18 4.3410 -0.0373
-12 -7 19 -3.5881 0.0272
-12 -7 20 -4.5626 0.0737
-12 -7 21 -0.0049 -0.0341
-12 -7 22 -1.3321 -0.0841
-12 -7 23 -3.8732 0.0476
-12 -7 24 0.7794 0.0033
-12 -7 25 2.5699 -0.0871
-12 -7 26 0.6664 0.0686
-12 -7 27 0.9842 0.0679
-12 -6 1 -0.4587 0.2034
-12 -6 2 -0.7169 0.1222
-12 -6 3 -1.2036 0.0085
-12 -6 4 1.5392 -0.0458
-12 -6 5 2.1281 0.0782
-12 -6 6 2.9396 0.1337
-12 -6 7 -1.6548 -0.0674
-12 -6 8 -4.6858 -0.1097
-12 -6 9 -0.6042 0.1110
-12 -6 10 -1.6615 0.0900
-12 -6 11 -1.1806 -0.1014
-12 -6 12 1.9889 -0.0513
-12 -6 13 1.4294 0.0512
-12 -6 14 -0.4677 -0.0014
-12 -6 15 -3.7290 -0.0274
-12 -6 16 -0.6305 0.0301
-12 -6 17 4.1488 0.0284
-12 -6 18 0.9202 -0.0600
-12 -6 19 -1.5381 -0.0729
-12 -6 20 -0.3036 0.0282
-12 -6 21 -0.1313 0.0118
-12 -6 22 -1.4178 -0.0782
-12 -6 23 -0.8929 0.0011
-12 -6 24 -0.6835 0.0492
-12 -6 25 -2.2058 -0.0633
-12 -6 26 0.9659 -0.0873
-12 -6 27 4.3947 -0.0142
-12 -6 28 2.7277 0.0226
-12 -5 1 -1.2303 -0.2735
-12 -5 2 -2.3278 0.1208
-12 -5 3 1.2720 0.2235
-12 -5 4 5.4830 -0.0414
-12 -5 5 2.1165 -0.0315
-12 -5 6 -0.9694 0.1603
-12 -5 7 -2.8199 0.0490
-12 -5 8 -1.3146 -0.1078
-12 -5 9 -0.5311 0.0148
-12 -5 10 -1.5438 0.1107
-12 -5 11 0.7654 0.0118
-12 -5 12 -1.4814 -0.0318
-12 -5 13 -1.6702 0.0368
-12 -5 14 1.3665 0.0468
-12 -5 15 -2.7964 -0.0060
-12 -5 16 -3.4675 -0.0012
-12 -5 17 0.4733 0.0389
-12 -5 18 0.9942 0.0007
-12 -5 19 0.2603 -0.0609
-12 -5 20 0.7031 -0.0140
-12 -5 21 1.9454 0.0391
-12 -5 22 -0.4999 -0.0201
-12 -5 23 -3.6811 -0.0576
-12 -5 24 -2.4814 -0.0052
-12 -5 25 0.8043 -0.0088
-12 -5 26 2.4963 -0.0885
-12 -5 27 1.4975 -0.0792
-12 -5 28 1.5695 -0.0164
-12 -5 29 1.3595 -0.0015
-12 -4 1 0.3385 -0.4287
-12 -4 2 0.4380 -0.0186
-12 -4 3 3.3690 0.1740
-12 -4 4 2.4558 -0.0077
-12 -4 5 -2.1164 -0.1080
-12 -4 6 -0.5582 0.0103
-12 -4 7 3.6259 0.0952
-12 -4 8 3.4157 -0.0037
-12 -4 9 -3.7519 -0.0836
-12 -4 10 -4.0445 0.0387
-12 -4 11 2.0587 0.1134
-12 -4 12 0.6267 -0.0165
-12 -4 13 0.2106 -0.0538
-12 -4 14 -0.4433 0.0526
-12 -4 15 -3.3277 0.0408
-12 -4 16 -0.9497 -0.0143
-12 -4 17 -1.2685 0.0436
-12 -4 18 -2.2401 0.0584
-12 -4 19 0.8789 -0.0308
-12 -4 20 1.3384 -0.0452
-12 -4 21 -0.7253 0.0339
-12 -4 22 -1.2914 0.0389
-12 -4 23 -0.0309 -0.0192
-12 -4 24 -1.2143 0.0137
-12 -4 25 -2.7523 0.0247
-12 -4 26 -0.2842 -0.0901
-12 -4 27 2.5007 -0.0907
-12 -4 28 2.3213 -0.0150
-12 -4 29 0.2356 -0.0440
-12 -3 1 1.8927 -0.0199
-12 -3 2 -3.2884 -0.1746
-12 -3 3 -1.5424 -0.1384
-12 -3 4 3.3170 0.0028
-12 -3 5 4.6455 -0.0522
-12 -3 6 2.0549 -0.1117
-12 -3 7 0.4029 0.0677
-12 -3 8 -0.9978 0.1042
-12 -3 9 -3.9001 -0.1035
-12 -3 10 1.7322 -0.0873
-12 -3 11 4.5035 0.0770
-12 -3 12 -1.4813 0.0108
-12 -3 13 -0.5933 -0.0704
-12 -3 14 0.7085 0.0197
-12 -3 15 -0.7782 0.0480
-12 -3 16 -0.6852 -0.0183
-12 -3 17 -1.8555 -0.0283
-12 -3 18 -0.0054 0.0279
-12 -3 19 1.0254 0.0505
-12 -3 20 -1.7068 -0.0228
-12 -3 21 -1.7582 -0.0342
-12 -3 22 0.5971 0.0746
-12 -3 23 0.7803 0.0690
-12 -3 24 -2.1352 -0.0074
-12 -3 25 -2.5832 0.0118
-12 -3 26 -0.3634 0.0115
-12 -3 27 0.0650 -0.0104
-12 -3 28 -1.1060 -0.0192
-12 -3 29 -1.1425 -0.0522
-12 -3 30 1.1530 -0.0309
-12 -2 1 -1.7587 0.4187
-12 -2 2 -1.1993 -0.1223
-12 -2 3 2.0982 -0.2978
-12 -2 4 1.7328 0.0084
-12 -2 5 -0.4666 0.0756
-12 -2 6 -1.0460 -0.1072
-12 -2 7 2.4845 -0.0386
-12 -2 8 1.8076 0.1058
-12 -2 9 -1.8385 -0.0089
-12 -2 10 1.8728 -0.1157
-12 -2 11 0.8522 -0.0217
-12 -2 12 -1.8806 0.0324
-12 -2 13 2.0602 -0.0122
-12 -2 14 0.2786 -0.0252
-12 -2 15 -2.3002 -0.0130
-12 -2 16 0.2618 -0.0190
-12 -2 17 1.5927 -0.0422
-12 -2 18 1.0117 -0.0140
-12 -2 19 -0.7881 0.0456
-12 -2 20 -1.4794 -0.0077
-12 -2 21 -0.9790 -0.0541
-12 -2 22 1.1570 0.0424
-12 -2 23 3.0119 0.0626
-12 -2 24 -0.0498 -0.0068
-12 -2 25 -3.0085 0.0130
-12 -2 26 -2.8269 0.0475
-12 -2 27 -2.0998 0.0668
-12 -2 28 -1.7916 0.0689
-12 -2 29 -1.1129 -0.0170
-12 -2 30 0.1940 -0.0776
-12 -1 1 -1.7093 0.3478
-12 -1 2 -2.1088 0.0953
-12 -1 3 -2.6217 -0.0939
-12 -1 4 -1.8955 0.0075
-12 -1 5 1.7791 0.1155
-12 -1 6 1.8988 -0.0039
-12 -1 7 0.2458 -0.1197
-12 -1 8 -2.5309 0.0134
-12 -1 9 -0.2906 0.1154
-12 -1 10 5.3207 -0.0360
-12 -1 11 0.8324 -0.1125
-12 -1 12 -2.7726 0.0327
-12 -1 13 0.0759 0.0925
-12 -1 14 -0.0512 -0.0337
-12 -1 15 -0.1110 -0.0805
-12 -1 16 -0.0217 0.0106
-12 -1 17 -0.7338 0.0043
-12 -1 18 -0.3163 -0.0688
-12 -1 19 0.7873 -0.0143
-12 -1 20 0.9518 0.0392
-12 -1 21 -0.5460 -0.0149
-12 -1 22 1.5259 -0.0273
-12 -1 23 3.6145 -0.0106
-12 -1 24 1.3330 -0.0178
-12 -1 25 -0.2084 0.0242
-12 -1 26 -2.6847 0.0682
-12 -1 27 -4.6447 0.0602
-12 -1 28 -1.5892 0.0388
-12 -1 29 0.4134 0.0138
-12 -1 30 -1.8272 -0.0185
-12 0 1 -4.7033 -0.1770
-12 0 2 -0.5770 0.2540
-12 0 3 0.3416 0.2724
-12 0 4 -1.0028 -0.0198
-12 0 5 -1.4303 -0.0098
-12 0 6 -2.2241 0.0933
-12 0 7 -0.9141 -0.0614
-12 0 8 -0.5610 -0.0879
-12 0 9 2.0435 0.0841
-12 0 10 3.6343 0.0666
-12 0 11 -0.3695 -0.0381
-12 0 12 -0.4342 0.0110
-12 0 13 1.2920 0.0627
-12 0 14 0.4945 -0.0031
-12 0 15 -0.8569 -0.0422
-12 0 16 -2.8996 0.0090
-12 0 17 -1.9081 0.0279
-12 0 18 0.8659 -0.0245
-12 0 19 1.8231 -0.0232
-12 0 20 -0.2048 0.0306
-12 0 21 -1.3594 0.0058
-12 0 22 2.6803 -0.0520
-12 0 23 3.4562 -0.0448
-12 0 24 1.1624 0.0077
-12 0 25 1.6663 0.0417
-12 0 26 -0.8032 0.0140
-12 0 27 -2.8837 -0.0379
-12 0 28 -0.3196 -0.0212
-12 0 29 -1.9744 0.0635
-12 0 30 -5.1937 0.0497
-12 1 1 0.2664 -0.4900
-12 1 2 1.1315 0.1516
-12 1 3 -2.3566 0.3147
-12 1 4 -2.7818 -0.0561
-12 1 5 -1.4794 -0.1161
-12 1 6 -0.6721 0.0912
-12 1 7 -0.1675 0.0408
-12 1 8 -1.2398 -0.0914
-12 1 9 1.0155 -0.0180
-12 1 10 1.7739 0.1013
-12 1 11 0.6136 0.0643
-12 1 12 2.6073 -0.0442
-12 1 13 2.0139 -0.0448
-12 1 14 -0.1731 0.0292
-12 1 15 -1.4009 0.0401
-12 1 16 -1.9857 0.0214
-12 1 17 -0.6769 0.0451
-12 1 18 0.1305 0.0186
-12 1 19 0.0783 -0.0380
-12 1 20 -0.8403 -0.0193
-12 1 21 0.3973 0.0123
-12 1 22 2.5830 0.0123
-12 1 23 -0.4349 0.0093
-12 1 24 -0.1166 0.0015
-12 1 25 4.2428 -0.0092
-12 1 26 0.7962 -0.0073
-12 1 27 -3.2600 -0.0386
-12 1 28 -0.5280 -0.0459
-12 1 29 -1.1604 0.0477
-12 1 30 -3.3715 -0.0031
-12 2 1 -0.7950 -0.2373
-12 2 2 -1.2716 -0.2023
-12 2 3 -0.9895 -0.0300
-12 2 4 0.3817 -0.0000
-12 2 5 -0.9127 -0.0757
-12 2 6 0.1677 -0.0243
-12 2 7 -0.0488 0.0964
-12 2 8 -2.8524 0.0266
-12 2 9 -0.1636 -0.1002
-12 2 10 2.3415 -0.0080
-12 2 11 3.0630 0.0757
-12 2 12 3.4829 -0.0328
-12 2 13 0.8381 -0.0771
-12 2 14 -0.5218 0.0373
-12 2 15 -0.1104 0.0752
-12 2 16 -0.3300 0.0009
-12 2 17 -1.0505 -0.0054
-12 2 18 -0.3635 0.0253
-12 2 19 1.5778 -0.0009
-12 2 20 0.9220 -0.0330
-12 2 21 0.7053 -0.0024
-12 2 22 0.1723 0.0411
-12 2 23 -2.5013 0.0249
-12 2 24 -0.2589 -0.0007
-12 2 25 1.9724 0.0010
-12 2 26 -1.5503 0.0143
-12 2 27 -0.5952 -0.0219
-12 2 28 3.6016 -0.0422
-12 2 29 -1.4199 0.0074
-12 2 30 -6.3358 -0.0839
-12 3 1 1.2149 0.2663
-12 3 2 -0.1646 -0.3682
-12 3 3 0.6605 -0.3418
-12 3 4 -0.2652 0.1005
-12 3 5 -3.9797 0.0949
-12 3 6 -0.9378 -0.1161
-12 3 7 0.7207 -0.0111
-12 3 8 -0.4059 0.0798
-12 3 9 2.8363 -0.0389
-12 3 10 2.9573 -0.0689
-12 3 11 0.0160 -0.0039
-12 3 12 0.5682 0.0071
-12 3 13 3.2748 -0.0081
-12 3 14 2.5486 0.0022
-12 3 15 -1.2120 -0.0026
-12 3 16 -1.5326 -0.0237
-12 3 17 0.1290 -0.0125
-12 3 18 1.6454 0.0203
-12 3 19 2.6948 0.0204
-12 3 20 2.0501 -0.0294
-12 3 21 1.6519 -0.0263
-12 3 22 -1.0390 0.0162
-12 3 23 -3.7256 0.0203
-12 3 24 -1.1903 0.0184
-12 3 25 0.4866 0.0062
-12 3 26 -0.5889 -0.0048
-12 3 27 0.5797 -0.0276
-12 3 28 0.4651 0.0211
-12 3 29 -3.4398 0.0857
-12 3 30 -2.8229 -0.0761
-12 4 1 0.3190 0.4464
-12 4 2 -3.8684 -0.1196
-12 4 3 -1.0864 -0.2245
-12 4 4 -1.2056 0.1112
-12 4 5 -3.7373 0.1407
-12 4 6 0.2589 -0.0768
-12 4 7 1.2910 -0.0876
-12 4 8 -0.2857 0.0287
-12 4 9 1.7189 0.0451
-12 4 10 1.7572 -0.0282
-12 4 11 -0.2366 -0.0410
-12 4 12 1.1657 0.0294
-12 4 13 3.4243 0.0247
-12 4 14 0.0624 -0.0437
-12 4 15 -1.4540 -0.0455
-12 4 16 2.5723 0.0010
-12 4 17 1.3337 -0.0085
-12 4 18 -1.0643 -0.0193
-12 4 19 2.4289 0.0093
-12 4 20 5.3362 -0.0023
-12 4 21 2.5513 -0.0099
-12 4 22 -3.0793 -0.0157
-12 4 23 -2.8641 -0.0178
-12 4 24 1.3428 0.0063
-12 4 25 0.0249 0.0104
-12 4 26 -3.2471 0.0046
-12 4 27 -1.7278 -0.0142
-12 4 28 0.6758 0.0661
-12 4 29 0.4355 0.0943
-12 4 30 -0.6996 -0.0890
-12 5 1 -1.8268 0.1493
-12 5 2 -4.1019 0.3021
-12 5 3 0.6283 0.1405
-12 5 4 0.7613 -0.0281
-12 5 5 -3.4805 0.0265
-12 5 6 -3.0129 0.0538
-12 5 7 0.1449 -0.0641
-12 5 8 1.8866 -0.0415
-12 5 9 0.8749 0.0938
-12 5 10 -0.2640 0.0481
-12 5 11 -1.0377 -0.0295
-12 5 12 -0.7078 0.0109
-12 5 13 1.4142 0.0157
-12 5 14 0.4064 -0.0330
-12 5 15 0.1984 -0.0285
-12 5 16 1.5820 0.0167
-12 5 17 -0.1914 -0.0069
-12 5 18 0.9063 -0.0329
-12 5 19 3.4842 -0.0031
-12 5 20 2.2817 0.0122
-12 5 21 0.7943 -0.0011
-12 5 22 1.0168 -0.0307
-12 5 23 1.1871 -0.0037
-12 5 24 -1.8609 0.0036
-12 5 25 -4.4809 -0.0135
-12 5 26 -0.5844 0.0296
-12 5 27 2.8811 0.0138
-12 5 28 -0.8943 0.0085
-12 5 29 -2.7723 -0.0051
-12 5 30 0.1144 0.0001
-12 6 1 -1.2368 -0.2661
-12 6 2 -0.5828 0.3811
-12 6 3 1.6530 0.3073
-12 6 4 -0.2603 -0.1741
-12 6 5 -3.1421 -0.1463
-12 6 6 -2.1436 0.1235
-12 6 7 1.8418 0.0806
-12 6 8 2.2525 -0.0229
-12 6 9 -1.1411 0.0142
-12 6 10 -0.9657 0.0354
-12 6 11 -1.4905 0.0330
-12 6 12 -2.5531 0.0024
-12 6 13 -0.3321 -0.0201
-12 6 14 -1.0279 0.0017
-12 6 15 -0.8695 0.0138
-12 6 16 1.8175 0.0139
-12 6 17 1.2867 -0.0004
-12 6 18 -0.1875 -0.0055
-12 6 19 -0.3855 -0.0098
-12 6 20 1.7736 0.0052
-12 6 21 3.8124 0.0033
-12 6 22 1.7881 -0.0291
-12 6 23 -1.5255 0.0154
-12 6 24 -2.7221 0.0098
-12 6 25 -0.9315 -0.0120
-12 6 26 1.0103 0.0194
-12 6 27 -1.1913 -0.0122
-12 6 28 -3.2814 -0.0056
-12 6 29 1.0444 -0.0081
-12 6 30 2.8682 0.0523
-12 7 1 -1.0055 -0.3501
-12 7 2 -1.3458 0.0045
-12 7 3 0.2849 0.0703
-12 7 4 1.3956 -0.1205
-12 7 5 -0.1948 -0.0985
-12 7 6 -1.4191 0.0582
-12 7 7 3.5820 0.0791
-12 7 8 4.1280 0.0147
-12 7 9 -3.0474 -0.0320
-12 7 10 -3.1851 -0.0162
-12 7 11 0.4491 0.0053
-12 7 12 -0.0656 -0.0307
-12 7 13 -2.6087 0.0064
-12 7 14 -3.4132 0.0625
-12 7 15 0.3580 0.0170
-12 7 16 1.1421 -0.0312
-12 7 17 -1.9148 0.0142
-12 7 18 -0.7702 0.0579
-12 7 19 2.1805 -0.0130
-12 7 20 1.8627 -0.0304
-12 7 21 -0.5098 -0.0020
-12 7 22 0.0761 -0.0019
-12 7 23 1.7093 0.0463
-12 7 24 -0.3477 0.0039
-12 7 25 -1.6092 -0.0575
-12 7 26 -0.3587 -0.0317
-12 7 27 -1.5920 0.0352
-12 7 28 -3.0536 0.0581
-12 7 29 0.0657 -0.0685
-12 8 1 -4.2157 -0.1034
-12 8 2 0.6332 -0.3517
-12 8 3 3.1208 -0.1411
-12 8 4 0.8534 0.1131
-12 8 5 -1.5810 0.0168
-12 8 6 -0.0511 -0.0941
-12 8 7 4.5312 -0.0040
-12 8 8 2.1559 0.0226
-12 8 9 -2.3378 -0.0624
-12 8 10 0.3295 -0.0522
-12 8 11 0.9772 -0.0193
-12 8 12 -1.0570 -0.0291
-12 8 13 -1.1239 0.0133
-12 8 14 -1.3901 0.0379
-12 8 15 -1.2982 0.0129
-12 8 16 -0.2563 -0.0263
-12 8 17 1.2325 -0.0025
-12 8 18 0.1287 0.0358
-12 8 19 -1.4938 -0.0075
-12 8 20 -0.2622 0.0232
-12 8 21 0.2226 0.0394
-12 8 22 0.5701 -0.0230
-12 8 23 1.2533 -0.0324
-12 8 24 2.3348 -0.0259
-12 8 25 3.4244 0.0119
-12 8 26 -2.2482 0.0113
-12 8 27 -8.9454 -0.0262
-12 8 28 -3.1184 -0.0789
-12 8 29 6.1297 -0.0739
-12 9 1 0.3212 0.1961
-12 9 2 0.2262 -0.2497
-12 9 3 -1.0452 -0.0848
-12 9 4 -0.5719 0.2188
-12 9 5 0.7861 0.0542
-12 9 6 0.9101 -0.1426
-12 9 7 1.5744 -0.0688
-12 9 8 1.0176 0.0079
-12 9 9 0.0048 -0.0073
-12 9 10 -1.1512 -0.0216
-12 9 11 -0.8763 -0.0359
-12 9 12 3.3189 -0.0106
-12 9 13 1.7522 -0.0161
-12 9 14 -3.4831 -0.0520
-12 9 15 -0.5780 0.0061
-12 9 16 4.3378 0.0122
-12 9 17 1.2328 -0.0088
-12 9 18 -4.4658 0.0177
-12 9 19 -1.3563 0.0106
-12 9 20 2.7605 0.0267
-12 9 21 0.3730 0.0104
-12 9 22 1.0662 -0.0194
-12 9 23 2.2459 -0.0199
-12 9 24 0.8028 -0.0153
-12 9 25 1.5308 0.0046
-12 9 26 -0.5266 -0.0149
-12 9 27 -2.9482 -0.0342
-12 9 28 0.2748 -0.1208
-12 10 1 0.0265 0.2870
-12 10 2 -0.4722 0.0903
-12 10 3 1.8113 0.0488
-12 10 4 1.1858 0.0717
-12 10 5 -1.1660 0.0183
-12 10 6 -0.2162 -0.0103
-12 10 7 0.5451 -0.0199
-12 10 8 -0.9192 -0.0035
-12 10 9 0.8085 0.0500
-12 10 10 0.3152 0.0320
-12 10 11 -1.7749 -0.0239
-12 10 12 1.5794 -0.0015
-12 10 13 2.9274 -0.0472
-12 10 14 0.8269 -0.0878
-12 10 15 -0.8040 0.0213
-12 10 16 -1.0128 0.0511
-12 10 17 0.7677 0.0072
-12 10 18 1.8935 -0.0108
-12 10 19 2.1273 -0.0108
-12 10 20 0.1530 0.0072
-12 10 21 0.0644 -0.0136
-12 10 22 1.8277 -0.0029
-12 10 23 -2.7554 0.0193
-12 10 24 -0.9584 0.0067
-12 10 25 9.3501 -0.0251
-12 10 26 5.2014 0.0005
-12 10 27 -6.1809 0.0296
-12 11 1 2.8817 0.0883
-12 11 2 2.4840 0.2158
-12 11 3 2.9983 0.0322
-12 11 4 0.4354 -0.1282
-12 11 5 -2.1932 0.0347
-12 11 6 0.0577 0.1385
-12 11 7 0.2818 0.0131
-12 11 8 -0.3412 -0.0131
-12 11 9 2.6475 0.0678
-12 11 10 -0.6686 0.0391
-12 11 11 -2.6952 -0.0126
-12 11 12 2.8098 0.0116
-12 11 13 1.8902 -0.0242
-12 11 14 -2.0409 -0.0309
-12 11 15 -0.8440 0.0425
-12 11 16 1.6775 0.0391
-12 11 17 1.5111 0.0020
-12 11 18 0.7893 -0.0303
-12 11 19 1.8946 -0.0304
-12 11 20 0.1953 -0.0091
-12 11 21 -0.2453 0.0025
-12 11 22 1.3177 0.0352
-12 11 23 -0.8021 0.0285
-12 11 24 1.9323 -0.0119
-12 11 25 5.4027 -0.0660
-12 11 26 -0.3541 0.0182
-12 11 27 -1.9551 0.1174
-12 12 1 3.0117 -0.1649
-12 12 2 1.3670 0.0781
-12 12 3 3.3039 -0.0509
-12 12 4 1.0022 -0.1633
-12 12 5 -3.3303 0.0433
-12 12 6 0.8938 0.1248
-12 12 7 2.8203 0.0107
-12 12 8 -0.0684 -0.0361
-12 12 9 0.3864 -0.0167
-12 12 10 -1.1344 0.0112
-12 12 11 -0.2719 0.0228
-12 12 12 1.9886 0.0067
-12 12 13 0.0618 0.0154
-12 12 14 1.5115 0.0567
-12 12 15 1.2519 0.0078
-12 12 16 -3.7413 -0.0440
-12 12 17 -2.3713 0.0071
-12 12 18 4.0257 0.0058
-12 12 19 2.2861 -0.0180
-12 12 20 -3.6153 0.0090
-12 12 21 1.6133 0.0165
-12 12 22 5.3502 -0.0432
-12 12 23 -2.4036 -0.0467
-12 12 24 -2.9491 0.0521
-12 12 25 3.1779 0.0191
-12 12 26 3.1247 0.0004
-12 13 1 -0.2070 -0.1746
-12 13 2 -0.1226 -0.0509
-12 13 3 3.6947 -0.0473
-12 13 4 2.1826 -0.0480
-12 13 5 -2.9238 -0.0177
-12 13 6 -0.2207 -0.0410
-12 13 7 0.2528 -0.0021
-12 13 8 -0.9091 0.0007
-12 13 9 1.1438 -0.0820
-12 13 10 -0.4008 -0.0589
-12 13 11 1.3081 0.0118
-12 13 12 3.3092 0.0143
-12 13 13 -0.3889 0.0257
-12 13 14 -1.2198 0.0339
-12 13 15 -0.2009 -0.0326
-12 13 16 -0.2911 -0.0376
-12 13 17 0.2968 0.0178
-12 13 18 -0.5582 -0.0015
-12 13 19 -3.6078 -0.0235
-12 13 20 -1.0929 -0.0004
-12 13 21 5.6783 0.0093
-12 13 22 1.3527 -0.0534
-12 13 23 -5.2589 -0.0543
-12 13 24 0.2040 0.0238
-12 13 25 3.4758 -0.0134
-12 14 1 1.1168 -0.0126
-12 14 2 -0.5045 -0.0990
-12 14 3 0.5562 0.0314
-12 14 4 -1.1764 0.1044
-12 14 5 -3.2908 -0.0632
-12 14 6 1.3149 -0.1438
-12 14 7 0.7838 0.0089
-12 14 8 -1.1245 0.0226
-12 14 9 0.0744 -0.0805
-12 14 10 -0.3096 -0.0465
-12 14 11 1.8734 0.0047
-12 14 12 0.6243 -0.0048
-12 14 13 -2.7337 -0.0076
-12 14 14 1.2685 -0.0216
-12 14 15 3.9388 -0.0436
-12 14 16 -0.8679 -0.0098
-12 14 17 -3.5312 0.0326
-12 14 18 -0.4667 0.0280
-12 14 19 -0.8042 -0.0197
-12 14 20 -2.2909 -0.0428
-12 14 21 0.6057 -0.0054
-12 14 22 0.4445 -0.0437
-12 14 23 -1.0026 -0.0868
-12 15 1 0.8431 0.0994
-12 15 2 -3.4751 -0.0298
-12 15 3 -2.6487 0.0913
-12 15 4 -1.3087 0.1321
-12 15 5 0.5113 -0.0365
-12 15 6 2.9554 -0.1010
-12 15 7 -0.3268 -0.0027
-12 15 8 -0.4611 0.0441
-12 15 9 0.1773 0.0685
-12 15 10 -2.5330 0.0228
-12 15 11 -0.6854 -0.0865
-12 15 12 1.3599 -0.0614
-12 15 13 0.7871 0.0010
-12 15 14 0.7124 0.0092
-12 15 15 0.2305 0.0519
-12 15 16 -0.6422 0.0339
-12 15 17 -0.0868 -0.0396
-12 15 18 0.4126 0.0238
-12 15 19 -2.5707 0.0852
-12 15 20 -3.1829 0.0044
-12 15 21 0.0814 -0.0802
-12 15 22 -0.0857 -0.1007
-12 16 1 -0.3904 0.0540
-12 16 2 -3.7355 0.0147
-12 16 3 -2.0667 0.0389
-12 16 4 -0.7537 0.0278
-12 16 5 1.6609 0.0232
-12 16 6 3.7099 0.0785
-12 16 7 1.3588 0.0643
-12 16 8 0.0211 -0.0195
-12 16 9 -2.2512 0.0283
-12 16 10 -2.5745 0.0388
-12 16 11 2.2137 -0.0270
-12 16 12 3.8089 0.0122
-12 16 13 -0.0423 0.0101
-12 16 14 -3.0779 -0.0012
-12 16 15 -0.0799 0.0986
-12 16 16 2.4591 0.0761
-12 16 17 -0.6764 -0.0090
-12 16 18 -2.1576 0.0731
-12 16 19 -0.7951 0.0886
-12 16 20 -0.8459 -0.0165
-12 17 1 -1.1978 -0.1032
-12 17 2 -4.0394 0.0034
-12 17 3 -1.6181 -0.0292
-12 17 4 0.7217 -0.0195
-12 17 5 2.6602 0.0863
-12 17 6 2.0119 0.1298
-12 17 7 0.0132 0.0071
-12 17 8 0.7059 -0.0959
-12 17 9 0.9379 0.0412
-12 17 10 0.2380 0.0801
-12 17 11 0.4324 -0.0356
-12 17 12 3.2489 -0.0069
-12 17 13 3.3775 0.0338
-12 17 14 -2.1777 0.0412
-12 17 15 -2.2879 0.1060
-12 17 16 1.4156 0.0473
-12 17 17 -0.0050 -0.0340
-12 17 18 -1.3539 0.0674
-12 18 1 -1.5174 -0.1483
-12 18 2 -1.5857 0.0347
-12 18 3 0.4783 0.0195
-12 18 4 -0.2900 0.0281
-12 18 5 -0.7533 -0.0311
-12 18 6 1.1593 -0.0116
-12 18 7 1.6989 0.0673
-12 18 8 -0.1576 0.0015
-12 18 9 0.8297 -0.0186
-12 18 10 2.1052 -0.0131
-12 18 11 0.1719 -0.0219
-12 18 12 3.1257 0.0460
-12 18 13 4.5148 0.0160
-12 18 14 -1.6758 -0.0735
-12 18 15 -1.1519 -0.0071
-12 18 16 3.5059 0.0721
-12 19 1 1.0851 0.0555
-12 19 2 -0.7620 0.1353
-12 19 3 -1.3284 0.0238
-12 19 4 -2.4527 0.0091
-12 19 5 -0.5405 -0.0720
-12 19 6 3.0915 0.0122
-12 19 7 0.0359 0.0760
-12 19 8 -4.1418 -0.0508
-12 19 9 1.4184 0.0366
-12 19 10 3.6843 0.1165
-12 19 11 -2.0337 -0.0670
-12 19 12 0.6869 -0.1211
-12 19 13 5.2446 -0.0105
-11 -16 1 3.1771 0.1030
-11 -16 3 -0.1428 -0.1013
-11 -16 4 -0.1904 -0.1195
-11 -16 5 -0.7858 0.1392
-11 -16 6 0.4181 0.0582
-11 -16 7 2.3341 -0.0945
-11 -16 8 2.1195 0.0351
-11 -16 9 -3.2435 0.0636
-11 -16 10 -5.0494 -0.0285
-11 -16 11 1.5617 0.0003
-11 -16 12 4.5019 0.0990
-11 -16 13 2.5744 0.0309
-11 -15 1 1.7725 -0.1543
-11 -15 2 0.1240 0.1967
-11 -15 3 0.4215 0.0313
-11 -15 4 0.6570 -0.1485
-11 -15 5 0.4262 0.0642
-11 -15 6 -0.1706 0.0919
-11 -15 7 -0.5708 -0.0578
-11 -15 8 0.8582 -0.0553
-11 -15 9 -2.8461 0.0032
-11 -15 10 -5.1010 0.0260
-11 -15 11 1.3170 0.0122
-11 -15 12 5.6971 0.0526
-11 -15 13 3.2283 0.0363
-11 -15 14 -2.4955 -0.1048
-11 -15 15 -4.2809 0.0039
-11 -15 16 -0.0058 0.1753
-11 -15 17 2.8341 -0.0225
-11 -14 1 1.7313 -0.2463
-11 -14 2 -1.4456 0.1134
-11 -14 3 -0.0893 0.1215
-11 -14 4 0.8602 -0.0979
-11 -14 5 0.9692 -0.0921
-11 -14 6 -1.2658 0.0351
-11 -14 7 -2.8450 0.0658
-11 -14 8 -0.1940 -0.0499
-11 -14 9 -0.7605 -0.0965
-11 -14 10 -0.7284 0.0060
-11 -14 11 2.3922 0.0069
-11 -14 12 3.2783 0.0101
-11 -14 13 0.6166 0.0545
-11 -14 14 -5.3910 -0.0272
-11 -14 15 -5.3119 0.0202
-11 -14 16 2.9964 0.1222
-11 -14 17 6.1804 -0.0099
-11 -14 18 -1.0988 -0.0982
-11 -14 19 -7.7305 -0.0217
-11 -14 20 -4.7810 0.1081
-11 -13 1 -0.5119 -0.0792
-11 -13 2 1.5932 -0.0790
-11 -13 3 2.5864 0.0136
-11 -13 4 -1.3418 0.0009
-11 -13 5 -1.4053 -0.0930
-11 -13 6 -1.2371 -0.0553
-11 -13 7 -1.7581 0.0825
-11 -13 8 0.4650 0.0226
-11 -13 9 1.0342 -0.0904
-11 -13 10 0.7265 -0.0304
-11 -13 11 0.0134 -0.0164
-11 -13 12 1.3260 -0.0178
-11 -13 13 0.9043 0.0183
-11 -13 14 -4.0081 -0.0263
-11 -13 15 -0.5397 0.0268
-11 -13 16 6.7714 0.0784
-11 -13 17 2.9739 -0.0204
-11 -13 18 -6.0240 -0.0065
-11 -13 19 -6.9588 0.0461
-11 -13 20 -1.6630 0.0490
-11 -13 21 -0.4978 0.1248
-11 -13 22 -0.9946 0.0091
-11 -12 1 1.0967 0.1562
-11 -12 2 1.1427 -0.2220
-11 -12 3 0.1083 -0.0928
-11 -12 4 -1.6014 0.1300
-11 -12 5 0.5185 0.0030
-11 -12 6 0.0251 -0.1242
-11 -12 7 -0.8611 0.0199
-11 -12 8 -0.5573 0.0699
-11 -12 9 -0.3696 -0.0295
-11 -12 10 0.3364 -0.0427
-11 -12 11 -0.9873 -0.0540
-11 -12 12 1.2301 -0.0050
-11 -12 13 2.2954 0.0625
-11 -12 14 -0.8679 -0.0327
-11 -12 15 1.8522 -0.0552
-11 -12 16 3.7881 0.0160
-11 -12 17 0.4115 0.0003
-11 -12 18 -0.9538 0.0245
-11 -12 19 -0.8649 0.0287
-11 -12 20 -2.7139 0.0035
-11 -12 21 -4.1968 0.1202
-11 -12 22 -1.8722 0.0565
-11 -12 23 0.8778 -0.2216
-11 -11 1 -1.9472 0.1718
-11 -11 2 1.2873 -0.0638
-11 -11 3 1.3904 -0.0391
-11 -11 4 -1.4945 0.1066
-11 -11 5 -0.4793 0.0866
-11 -11 6 0.7867 -0.0646
-11 -11 7 1.6491 -0.0715
-11 -11 8 0.0285 0.0075
-11 -11 9 -0.4493 0.0462
-11 -11 10 -0.5395 0.0325
-11 -11 11 -1.5635 -0.0489
-11 -11 12 2.6363 -0.0154
-11 -11 13 -0.5482 0.0638
-11 -11 14 -6.5781 -0.0151
-11 -11 15 2.2472 -0.0429
-11 -11 16 8.5236 0.0059
-11 -11 17 2.2176 -0.0323
-11 -11 18 -1.2630 -0.0203
-11 -11 19 1.2371 0.0207
-11 -11 20 0.2296 0.0020
-11 -11 21 -3.5607 0.0831
-11 -11 22 -4.1255 0.0496
-11 -11 23 -2.4858 -0.2209
-11 -11 24 1.8390 -0.1553
-11 -11 25 4.5250 0.1467
-11 -10 1 -2.2775 -0.0695
-11 -10 2 0.2486 0.1477
-11 -10 3 0.0854 0.0830
-11 -10 4 0.7349 0.0060
-11 -10 5 0.8694 0.0944
-11 -10 6 -0.1212 0.0537
-11 -10 7 2.5450 -0.0631
-11 -10 8 2.7374 -0.0738
-11 -10 9 2.1205 0.0166
-11 -10 10 -0.1123 0.0752
-11 -10 11 -2.2565 0.0103
-11 -10 12 -0.6119 -0.0128
-11 -10 13 -5.6291 0.0393
-11 -10 14 -4.8199 0.0211
-11 -10 15 7.0031 -0.0144
-11 -10 16 5.2093 -0.0080
-11 -10 17 -3.5379 -0.0074
-11 -10 18 0.5616 0.0141
-11 -10 19 5.1371 0.0051
-11 -10 20 -1.4457 -0.0640
-11 -10 21 -4.8342 0.0113
-11 -10 22 -1.2091 0.0812
-11 -10 23 -0.5781 -0.1246
-11 -10 24 0.9729 -0.1606
-11 -10 25 2.1598 0.0794
-11 -10 26 0.2155 0.0393
-11 -9 1 1.4128 -0.2145
-11 -9 2 2.2274 0.2153
-11 -9 3 -0.3544 0.0821
-11 -9 4 -0.8369 -0.1103
-11 -9 5 -0.8146 0.0116
-11 -9 6 2.2235 0.0781
-11 -9 7 4.9022 0.0226
-11 -9 8 1.7486 -0.0421
-11 -9 9 2.1589 -0.0574
-11 -9 10 0.0847 0.0236
-11 -9 11 -2.2039 0.0749
-11 -9 12 1.9337 0.0049
-11 -9 13 -1.2818 -0.0395
-11 -9 14 -4.2304 0.0260
-11 -9 15 0.6012 0.0583
-11 -9 16 0.9444 0.0114
-11 -9 17 -1.2037 -0.0220
-11 -9 18 0.7322 0.0050
-11 -9 19 1.4714 0.0346
-11 -9 20 -1.4217 -0.0230
-11 -9 21 -0.8692 -0.0219
-11 -9 22 0.0986 0.0687
-11 -9 23 -1.4945 -0.0395
-11 -9 24 -0.1109 -0.1572
-11 -9 25 -0.8741 0.0010
-11 -9 26 -1.1840 0.0627
-11 -9 27 2.4453 0.0106
-11 -8 1 4.2464 -0.0709
-11 -8 2 -0.1796 -0.0218
-11 -8 3 -2.6561 -0.1249
-11 -8 4 2.1330 -0.0942
-11 -8 5 2.1243 -0.0101
-11 -8 6 0.1811 0.0018
-11 -8 7 -0.7099 0.0641
-11 -8 8 0.8737 0.0386
-11 -8 9 5.8913 -0.1015
-11 -8 10 1.9624 -0.0713
-11 -8 11 -0.8828 0.0813
-11 -8 12 1.5697 0.0501
-11 -8 13 -2.6076 -0.0573
-11 -8 14 -2.7762 -0.0221
-11 -8 15 1.4515 0.0224
-11 -8 16 0.6205 0.0087
-11 -8 17 -0.1448 0.0068
-11 -8 18 1.2734 0.0281
-11 -8 19 -0.4809 0.0636
-11 -8 20 -3.5529 0.0005
-11 -8 21 -0.6439 -0.0840
-11 -8 22 1.5004 0.0180
-11 -8 23 -0.5674 0.0581
-11 -8 24 -0.8924 -0.0596
-11 -8 25 -0.7204 -0.0053
-11 -8 26 1.6764 0.0442
-11 -8 27 1.7709 -0.0184
-11 -8 28 -2.6197 0.1160
-11 -7 1 4.6650 0.1690
-11 -7 2 0.0615 -0.1984
-11 -7 3 -0.9755 -0.2194
-11 -7 4 1.0906 0.0173
-11 -7 5 -0.0912 0.0180
-11 -7 6 2.8839 -0.0966
-11 -7 7 1.4532 -0.0051
-11 -7 8 -0.7945 0.0872
-11 -7 9 3.0086 -0.0214
-11 -7 10 0.1736 -0.1070
-11 -7 11 -2.3484 -0.0234
-11 -7 12 0.2178 0.0351
-11 -7 13 1.9789 0.0039
-11 -7 14 1.1216 -0.0133
-11 -7 15 -3.4597 -0.0258
-11 -7 16 -0.6157 -0.0138
-11 -7 17 5.6975 0.0156
-11 -7 18 1.2710 0.0041
-11 -7 19 -4.5541 0.0189
-11 -7 20 -1.5854 0.0092
-11 -7 21 1.6394 -0.0712
-11 -7 22 -1.5413 -0.0100
-11 -7 23 -0.6111 0.0848
-11 -7 24 3.2542 0.0137
-11 -7 25 0.9176 0.0131
-11 -7 26 -0.2921 0.0186
-11 -7 27 0.3368 -0.0734
-11 -7 28 0.1200 0.0456
-11 -7 29 -0.5796 0.1620
-11 -6 1 4.5677 0.1772
-11 -6 2 0.8175 -0.0339
-11 -6 3 -0.2482 0.0204
-11 -6 4 1.8783 0.0852
-11 -6 5 4.2568 -0.0198
-11 -6 6 4.2710 -0.0975
-11 -6 7 -4.7589 -0.0468
-11 -6 8 -3.4957 0.0493
-11 -6 9 5.3549 0.0544
-11 -6 10 2.0989 -0.0574
-11 -6 11 -1.6404 -0.0936
-11 -6 12 -1.0712 0.0184
-11 -6 13 0.0001 0.0846
-11 -6 14 -0.8920 -0.0010
-11 -6 15 -2.9816 -0.0845
-11 -6 16 1.7591 -0.0227
-11 -6 17 3.9194 0.0451
-11 -6 18 -0.8139 -0.0197
-11 -6 19 -1.9303 -0.0437
-11 -6 20 0.0499 0.0067
-11 -6 21 0.2832 -0.0335
-11 -6 22 0.0031 -0.0207
-11 -6 23 1.0126 0.0616
-11 -6 24 -0.8950 0.0134
-11 -6 25 -0.8749 -0.0250
-11 -6 26 4.1450 -0.0178
-11 -6 27 3.9279 -0.0517
-11 -6 28 0.8884 0.0489
-11 -6 29 -2.1664 0.1642
-11 -5 1 2.9576 -0.0364
-11 -5 2 1.1549 0.2535
-11 -5 3 4.3560 0.2709
-11 -5 4 2.4073 -0.0012
-11 -5 5 -0.4747 -0.0624
-11 -5 6 0.2867 0.0344
-11 -5 7 -1.4838 -0.0085
-11 -5 8 3.1643 -0.0256
-11 -5 9 5.4245 0.0608
-11 -5 10 -0.2031 0.0379
-11 -5 11 -2.9484 -0.0439
-11 -5 12 -2.3935 -0.0138
-11 -5 13 2.6449 0.0398
-11 -5 14 2.1413 0.0122
-11 -5 15 -5.0388 -0.0258
-11 -5 16 -3.2920 0.0016
-11 -5 17 1.8473 0.0301
-11 -5 18 1.7215 -0.0240
-11 -5 19 -0.4835 -0.0436
-11 -5 20 -0.1051 0.0174
-11 -5 21 0.8743 0.0004
-11 -5 22 -1.9826 -0.0448
-11 -5 23 -3.3429 -0.0223
-11 -5 24 -0.0372 -0.0105
-11 -5 25 4.5648 0.0005
-11 -5 26 3.1042 0.0146
-11 -5 27 -0.9998 -0.0309
-11 -5 28 1.8435 -0.0447
-11 -5 29 1.2482 0.0475
-11 -5 30 -3.2466 0.0644
-11 -4 1 1.4732 -0.2627
-11 -4 2 3.0749 0.2116
-11 -4 3 4.1946 0.2152
-11 -4 4 -2.5043 -0.0556
-11 -4 5 -0.8341 -0.0234
-11 -4 6 5.0699 0.1040
-11 -4 7 2.8333 0.0339
-11 -4 8 1.2776 -0.0494
-11 -4 9 -1.2788 0.0157
-11 -4 10 -1.4198 0.0956
-11 -4 11 2.1066 0.0425
-11 -4 12 2.6867 -0.0560
-11 -4 13 2.0903 -0.0382
-11 -4 14 -1.8786 0.0419
-11 -4 15 -3.4010 0.0435
-11 -4 16 -0.8994 0.0166
-11 -4 17 -0.9326 0.0206
-11 -4 18 0.3675 -0.0088
-11 -4 19 0.1728 -0.0241
-11 -4 20 -2.0333 0.0124
-11 -4 21 -0.9216 0.0053
-11 -4 22 0.8592 -0.0265
-11 -4 23 -0.9811 -0.0142
-11 -4 24 -3.6525 -0.0015
-11 -4 25 -0.1290 -0.0165
-11 -4 26 2.5856 -0.0181
-11 -4 27 0.9590 -0.0375
-11 -4 28 1.3604 -0.0560
-11 -4 29 -0.0490 0.0340
-11 -4 30 -1.8192 0.0506
-11 -3 1 -1.3130 -0.1890
-11 -3 2 -2.2017 -0.1589
-11 -3 3 3.4644 -0.1527
-11 -3 4 3.0183 -0.0243
-11 -3 5 2.0528 0.0908
-11 -3 6 0.2803 0.0541
-11 -3 7 -0.5120 0.0160
-11 -3 8 0.4106 -0.0189
-11 -3 9 -0.8472 -0.0460
-11 -3 10 2.5244 0.0368
-11 -3 11 3.0431 0.0776
-11 -3 12 -1.2072 -0.0294
-11 -3 13 -0.2114 -0.0578
-11 -3 14 1.6923 0.0403
-11 -3 15 0.7796 0.0559
-11 -3 16 -2.8604 -0.0070
-11 -3 17 -2.0783 -0.0187
-11 -3 18 2.1809 0.0151
-11 -3 19 -1.5668 0.0289
-11 -3 20 -3.4766 0.0059
-11 -3 21 1.4142 0.0049
-11 -3 22 1.5204 0.0181
-11 -3 23 -3.6475 -0.0138
-11 -3 24 -3.6623 -0.0394
-11 -3 25 2.4640 -0.0237
-11 -3 26 1.1306 0.0108
-11 -3 27 -4.2708 0.0201
-11 -3 28 -2.3270 -0.0102
-11 -3 29 1.1128 -0.0244
-11 -3 30 1.5193 -0.0571
-11 -3 31 0.7672 -0.0495
-11 -2 1 -3.2007 0.0675
-11 -2 2 0.8454 -0.3933
-11 -2 3 4.6323 -0.3316
-11 -2 4 -1.5734 0.0861
-11 -2 5 -3.9260 0.1043
-11 -2 6 0.5192 -0.0838
-11 -2 7 5.2746 -0.0205
-11 -2 8 1.9472 0.0166
-11 -2 9 -2.5044 -0.0962
-11 -2 10 -0.0668 -0.0505
-11 -2 11 -0.7289 0.0734
-11 -2 12 0.0631 0.0272
-11 -2 13 2.9770 -0.0403
-11 -2 14 0.0927 -0.0142
-11 -2 15 -1.5844 -0.0053
-11 -2 16 -0.1263 -0.0188
-11 -2 17 1.5063 -0.0064
-11 -2 18 -0.6123 0.0255
-11 -2 19 -3.5695 0.0364
-11 -2 20 -0.7933 0.0036
-11 -2 21 0.7958 -0.0108
-11 -2 22 1.3626 -0.0034
-11 -2 23 1.7413 -0.0125
-11 -2 24 -1.6963 -0.0067
-11 -2 25 -3.1886 0.0020
-11 -2 26 -2.5290 0.0162
-11 -2 27 -1.9914 0.0506
-11 -2 28 -1.2124 0.0215
-11 -2 29 -0.7462 -0.0812
-11 -2 30 0.0123 -0.0910
-11 -2 31 1.0269 0.0522
-11 -1 1 -3.0858 0.2815
-11 -1 2 -0.9789 -0.1121
-11 -1 3 0.3905 -0.1048
-11 -1 4 -1.0721 0.0839
-11 -1 5 -0.6729 -0.0149
-11 -1 6 0.7414 -0.1247
-11 -1 7 1.4915 -0.0382
-11 -1 8 -1.9670 0.0223
-11 -1 9 -0.3320 -0.0423
-11 -1 10 3.5852 -0.0691
-11 -1 11 -0.7600 0.0075
-11 -1 12 -1.5673 0.0453
-11 -1 13 1.1423 -0.0154
-11 -1 14 0.0862 -0.0689
-11 -1 15 -0.8949 -0.0359
-11 -1 16 -0.2481 0.0145
-11 -1 17 0.5528 0.0028
-11 -1 18 -1.8108 -0.0110
-11 -1 19 -1.1016 0.0128
-11 -1 20 1.9865 0.0146
-11 -1 21 0.1531 -0.0175
-11 -1 22 1.2050 -0.0324
-11 -1 23 1.8601 0.0070
-11 -1 24 -1.2629 0.0534
-11 -1 25 -0.4619 0.0065
-11 -1 26 -0.9143 -0.0640
-11 -1 27 -3.6728 0.0021
-11 -1 28 -2.7567 0.0846
-11 -1 29 -1.5218 -0.0055
-11 -1 30 -1.5802 -0.0564
-11 -1 31 1.2827 0.0741
-11 0 1 -2.4246 0.2302
-11 0 2 2.5469 0.3295
-11 0 3 2.1534 0.2212
-11 0 4 -1.9863 -0.0505
-11 0 5 -4.5316 -0.1253
-11 0 6 -1.6417 -0.0121
-11 0 7 1.5567 0.0097
-11 0 8 -0.7682 0.0317
-11 0 9 1.5618 0.0487
-11 0 10 2.4893 -0.0376
-11 0 11 -2.2424 -0.0560
-11 0 12 0.1667 0.0162
-11 0 13 3.2515 0.0089
-11 0 14 -0.8855 -0.0324
-11 0 15 -4.3997 -0.0145
-11 0 16 -0.6119 0.0048
-11 0 17 2.1009 0.0023
-11 0 18 -1.5054 -0.0127
-11 0 19 0.9087 -0.0171
-11 0 20 2.5095 0.0137
-11 0 21 -2.2423 0.0079
-11 0 22 0.5443 -0.0292
-11 0 23 3.7055 0.0069
-11 0 24 1.7090 0.0573
-11 0 25 0.7252 -0.0020
-11 0 26 -2.1474 -0.0764
-11 0 27 -3.5304 -0.0208
-11 0 28 -1.7870 0.0591
-11 0 29 -3.2151 0.0177
-11 0 30 -2.2234 -0.0213
-11 0 31 4.0110 0.0466
-11 1 1 -0.6701 -0.0708
-11 1 2 0.1024 0.3695
-11 1 3 0.0876 0.2283
-11 1 4 0.3972 -0.1605
-11 1 5 -1.9843 -0.0486
-11 1 6 -1.1130 0.1527
-11 1 7 -0.1167 0.0254
-11 1 8 -2.3313 -0.0136
-11 1 9 0.5678 0.0812
-11 1 10 2.3826 0.0267
-11 1 11 1.4541 -0.0489
-11 1 12 1.9080 -0.0165
-11 1 13 -0.2624 0.0191
-11 1 14 -2.5032 0.0430
-11 1 15 -1.5069 0.0337
-11 1 16 1.2666 -0.0153
-11 1 17 -0.6376 -0.0036
-11 1 18 -2.8067 0.0061
-11 1 19 2.6423 -0.0269
-11 1 20 2.4646 -0.0084
-11 1 21 -0.6288 0.0198
-11 1 22 2.2882 0.0101
-11 1 23 0.2268 0.0087
-11 1 24 -0.4663 0.0219
-11 1 25 3.9076 0.0288
-11 1 26 0.4873 -0.0050
-11 1 27 -3.9332 -0.0843
-11 1 28 -2.6671 -0.0682
-11 1 29 -3.2669 0.0507
-11 1 30 -0.7484 0.0294
-11 1 31 4.7683 -0.0674
-11 1 32 1.1891 0.0219
-11 2 1 -0.5378 -0.3550
-11 2 2 -0.9651 -0.0366
-11 2 3 0.9297 -0.0018
-11 2 4 2.7444 -0.0780
-11 2 5 -1.3929 0.0707
-11 2 6 -1.9097 0.1182
-11 2 7 -1.0668 -0.0105
-11 2 8 -1.2886 -0.0410
-11 2 9 1.4996 0.0129
-11 2 10 2.5328 0.0280
-11 2 11 2.7141 0.0238
-11 2 12 1.4652 0.0119
-11 2 13 -1.1227 0.0032
-11 2 14 -1.0772 0.0512
-11 2 15 -0.6115 0.0520
-11 2 16 -0.3771 -0.0178
-11 2 17 -1.7734 -0.0096
-11 2 18 -0.3217 0.0232
-11 2 19 3.9753 -0.0016
-11 2 20 1.7289 -0.0208
-11 2 21 0.4804 0.0028
-11 2 22 0.6108 0.0371
-11 2 23 -3.1333 0.0236
-11 2 24 1.2213 -0.0184
-11 2 25 6.2557 0.0095
-11 2 26 -0.1394 0.0472
-11 2 27 -3.3080 -0.0509
-11 2 28 -1.7126 -0.0905
-11 2 29 -4.8526 0.0230
-11 2 30 -1.3668 -0.0264
-11 2 31 5.9969 -0.1455
-11 3 1 0.9207 -0.2628
-11 3 2 -3.7317 -0.3405
-11 3 3 0.2769 -0.1494
-11 3 4 2.0460 0.0935
-11 3 5 -4.2332 0.0585
-11 3 6 -2.9117 -0.0848
-11 3 7 1.6899 -0.0515
-11 3 8 2.6460 -0.0196
-11 3 9 1.7012 -0.0459
-11 3 10 0.2713 -0.0048
-11 3 11 1.2572 0.0440
-11 3 12 1.2473 0.0220
-11 3 13 0.6494 -0.0185
-11 3 14 0.5002 -0.0045
-11 3 15 -0.4402 0.0140
-11 3 16 -0.6507 0.0069
-11 3 17 -1.4515 0.0033
-11 3 18 1.0429 0.0137
-11 3 19 3.4669 0.0251
-11 3 20 0.7470 -0.0056
-11 3 21 1.1325 -0.0203
-11 3 22 0.2259 0.0188
-11 3 23 -3.2335 0.0135
-11 3 24 1.6653 -0.0471
-11 3 25 4.9767 -0.0165
-11 3 26 -0.4602 0.0687
-11 3 27 -1.9199 0.0222
-11 3 28 -1.3889 -0.0192
-11 3 29 -3.9614 -0.0159
-11 3 30 -0.1021 -0.1179
-11 3 31 4.0576 -0.1347
-11 4 1 -0.6994 0.1070
-11 4 2 -4.5076 -0.2060
-11 4 3 -0.5331 -0.0554
-11 4 4 -0.2413 0.1522
-11 4 5 -3.8611 -0.0475
-11 4 6 -1.0406 -0.1719
-11 4 7 1.1106 -0.0244
-11 4 8 0.8398 0.0130
-11 4 9 0.1848 -0.0345
-11 4 10 -0.6465 -0.0255
-11 4 11 0.3140 -0.0099
-11 4 12 1.6958 -0.0038
-11 4 13 2.2123 -0.0179
-11 4 14 0.1949 -0.0508
-11 4 15 -0.5134 -0.0359
-11 4 16 0.1184 0.0234
-11 4 17 -1.2126 0.0070
-11 4 18 1.5231 -0.0201
-11 4 19 3.2705 0.0224
-11 4 20 0.5871 0.0236
-11 4 21 1.1078 -0.0182
-11 4 22 -0.3994 -0.0304
-11 4 23 -2.7223 -0.0125
-11 4 24 1.6920 -0.0037
-11 4 25 2.8974 0.0055
-11 4 26 -1.4857 0.0027
-11 4 27 -0.5345 0.0047
-11 4 28 1.4132 0.0642
-11 4 29 -0.6746 -0.0188
-11 4 30 -1.0122 -0.1228
-11 4 31 -1.0868 0.0118
-11 5 1 -0.5696 0.3730
-11 5 2 -4.1430 0.1371
-11 5 3 2.3510 0.0652
-11 5 4 1.7411 0.0401
-11 5 5 -5.8400 -0.0527
-11 5 6 -4.2888 -0.0245
-11 5 7 1.5361 0.0236
-11 5 8 1.7030 0.0143
-11 5 9 -1.8850 0.0372
-11 5 10 -1.9473 0.0184
-11 5 11 -0.5147 -0.0450
-11 5 12 -0.3254 -0.0566
-11 5 13 0.0229 -0.0145
-11 5 14 -0.3650 -0.0090
-11 5 15 1.6058 -0.0270
-11 5 16 1.4933 -0.0106
-11 5 17 -1.7039 -0.0253
-11 5 18 0.5458 -0.0290
-11 5 19 1.8691 0.0121
-11 5 20 0.8529 0.0208
-11 5 21 2.7817 -0.0092
-11 5 22 0.2263 -0.0200
-11 5 23 -4.1414 0.0080
-11 5 24 -1.6304 0.0119
-11 5 25 1.5748 -0.0015
-11 5 26 1.6469 -0.0431
-11 5 27 1.5053 -0.0271
-11 5 28 -0.2785 0.0696
-11 5 29 -0.7102 -0.0043
-11 5 30 0.4635 -0.0111
-11 5 31 -1.2107 0.1343
-11 6 1 -0.6931 0.1603
-11 6 2 -0.8238 0.2057
-11 6 3 2.8962 0.0564
-11 6 4 -0.6156 -0.0834
-11 6 5 -3.8595 0.0500
-11 6 6 -0.0791 0.1646
-11 6 7 1.8982 0.0455
-11 6 8 -0.6818 -0.0014
-11 6 9 -1.7393 0.0521
-11 6 10 -1.1993 0.0447
-11 6 11 -3.5988 0.0085
-11 6 12 -3.0144 -0.0357
-11 6 13 -0.2048 -0.0148
-11 6 14 -0.5086 0.0327
-11 6 15 1.3580 0.0107
-11 6 16 0.7408 -0.0207
-11 6 17 -2.1190 -0.0191
-11 6 18 0.6809 -0.0168
-11 6 19 1.9945 -0.0299
-11 6 20 1.0254 -0.0015
-11 6 21 1.4774 0.0325
-11 6 22 -1.4429 0.0249
-11 6 23 -3.2112 -0.0118
-11 6 24 0.8827 -0.0294
-11 6 25 2.0423 0.0380
-11 6 26 -1.8283 0.0120
-11 6 27 -3.2659 -0.0418
-11 6 28 -0.0855 0.0052
-11 6 29 4.9816 -0.0212
-11 6 30 3.7993 0.0653
-11 6 31 -2.7483 0.1566
-11 7 1 -1.6692 -0.2344
-11 7 2 -1.5153 0.0072
-11 7 3 2.9598 -0.0317
-11 7 4 2.0076 -0.0647
-11 7 5 -1.5024 0.1118
-11 7 6 -0.3517 0.1033
-11 7 7 3.2342 -0.0118
-11 7 8 1.1041 0.0301
-11 7 9 -3.0775 0.0058
-11 7 10 -1.7653 -0.0219
-11 7 11 -0.3009 0.0626
-11 7 12 -1.5153 0.0467
-11 7 13 -3.7830 0.0001
-11 7 14 -2.3026 0.0268
-11 7 15 2.2469 0.0212
-11 7 16 0.2297 -0.0055
-11 7 17 -1.2511 0.0190
-11 7 18 1.9512 0.0032
-11 7 19 -0.3257 -0.0441
-11 7 20 -2.4300 0.0002
-11 7 21 1.4536 0.0272
-11 7 22 2.9558 0.0218
-11 7 23 0.8645 0.0004
-11 7 24 -0.9549 -0.0351
-11 7 25 -3.7558 0.0199
-11 7 26 -3.9341 0.0417
-11 7 27 0.4739 0.0305
-11 7 28 3.0127 -0.0320
-11 7 29 2.5326 -0.1069
-11 7 30 0.4804 0.0800
-11 8 1 -2.2117 -0.2604
-11 8 2 2.9968 -0.0888
-11 8 3 3.3891 -0.0596
-11 8 4 -2.2079 -0.0146
-11 8 5 -2.0087 0.0189
-11 8 6 2.2807 -0.0793
-11 8 7 2.7717 -0.0600
-11 8 8 -0.6416 0.0322
-11 8 9 -0.4374 -0.0551
-11 8 10 1.8322 -0.0697
-11 8 11 -0.6083 0.0629
-11 8 12 -2.6731 0.0710
-11 8 13 -1.5975 -0.0115
-11 8 14 0.6307 -0.0257
-11 8 15 0.7357 -0.0044
-11 8 16 -1.4611 0.0049
-11 8 17 0.0907 0.0455
-11 8 18 1.1301 0.0349
-11 8 19 -1.0017 0.0007
-11 8 20 0.0606 0.0106
-11 8 21 1.6694 -0.0299
-11 8 22 0.2412 -0.0204
-11 8 23 0.6014 0.0068
-11 8 24 2.4659 -0.0074
-11 8 25 -0.9497 0.0231
-11 8 26 -5.0887 0.0219
-11 8 27 -2.1378 -0.0022
-11 8 28 2.5802 -0.0777
-11 8 29 3.0545 -0.0375
-11 8 30 0.6031 0.1563
-11 9 1 -0.6104 0.1051
-11 9 2 0.7784 0.0448
-11 9 3 0.1721 -0.0165
-11 9 4 -0.0058 -0.0264
-11 9 5 0.8161 -0.0915
-11 9 6 -1.0955 -0.1199
-11 9 7 -0.3103 -0.0356
-11 9 8 1.7461 0.0096
-11 9 9 -0.1787 -0.0240
-11 9 10 -1.4949 -0.0338
-11 9 11 2.0865 -0.0289
-11 9 12 3.0311 -0.0267
-11 9 13 -2.0009 -0.0404
-11 9 14 -2.2561 -0.0302
-11 9 15 1.0108 -0.0011
-11 9 16 1.3076 0.0021
-11 9 17 1.1217 0.0420
-11 9 18 0.2890 0.0436
-11 9 19 -0.1758 0.0095
-11 9 20 -0.1192 -0.0140
-11 9 21 -0.1166 -0.0507
-11 9 22 1.1768 -0.0094
-11 9 23 2.3662 0.0350
-11 9 24 2.1252 0.0209
-11 9 25 -1.2606 -0.0468
-11 9 26 -3.5677 -0.0709
-11 9 27 0.5650 0.0136
-11 9 28 3.2363 -0.0228
-11 9 29 -0.3995 -0.0028
-11 10 1 -0.5335 0.2857
-11 10 2 3.3447 0.1171
-11 10 3 2.8293 0.0712
-11 10 4 -0.1653 -0.0220
-11 10 5 -1.1938 -0.0808
-11 10 6 -2.3134 0.0341
-11 10 7 -0.8069 0.0552
-11 10 8 2.3154 -0.0164
-11 10 9 1.6278 0.0284
-11 10 10 -1.2613 0.0060
-11 10 11 -0.6801 -0.1025
-11 10 12 0.3927 -0.0678
-11 10 13 0.6661 -0.0101
-11 10 14 1.5957 0.0096
-11 10 15 -0.7500 0.0217
-11 10 16 -0.5153 -0.0155
-11 10 17 2.7338 -0.0186
-11 10 18 1.1282 0.0067
-11 10 19 -0.6389 0.0276
-11 10 20 0.5012 0.0101
-11 10 21 1.9755 -0.0133
-11 10 22 0.3289 0.0033
-11 10 23 -2.4279 -0.0006
-11 10 24 1.4972 -0.0005
-11 10 25 4.4597 -0.0256
-11 10 26 -0.2561 0.0086
-11 10 27 -2.1978 -0.0056
-11 10 28 0.3076 -0.1828
-11 10 29 0.9899 -0.0415
-11 11 1 3.2078 -0.0054
-11 11 2 2.8819 -0.0037
-11 11 3 -0.1008 0.1442
-11 11 4 -0.2999 0.0601
-11 11 5 1.1591 0.0156
-11 11 6 -0.6313 0.1194
-11 11 7 -0.0535 0.0654
-11 11 8 3.4521 -0.0128
-11 11 9 0.3251 0.0551
-11 11 10 -4.6675 0.0235
-11 11 11 -0.2704 -0.0498
-11 11 12 3.4247 -0.0010
-11 11 13 0.8410 0.0132
-11 11 14 -1.2128 0.0190
-11 11 15 -1.7852 0.0270
-11 11 16 0.7240 -0.0225
-11 11 17 2.1285 -0.0280
-11 11 18 0.9934 0.0119
-11 11 19 0.8129 0.0257
-11 11 20 -0.4569 0.0105
-11 11 21 0.6505 0.0319
-11 11 22 1.5587 0.0207
-11 11 23 -1.2559 -0.0062
-11 11 24 -0.0683 0.0174
-11 11 25 1.8083 -0.0263
-11 11 26 0.1245 0.0055
-11 11 27 1.2136 0.0028
-11 11 28 2.3682 -0.1262
-11 12 1 1.9013 -0.2877
-11 12 2 2.6353 -0.1663
-11 12 3 0.9824 0.0543
-11 12 4 0.0302 0.0984
-11 12 5 1.2607 0.0866
-11 12 6 1.0319 0.0294
-11 12 7 -0.6042 -0.0325
-11 12 8 0.2370 0.0123
-11 12 9 0.7295 0.0584
-11 12 10 0.5590 0.0109
-11 12 11 1.3191 0.0134
-11 12 12 -1.0417 0.0522
-11 12 13 -0.7029 0.0164
-11 12 14 1.4023 -0.0068
-11 12 15 -1.3797 -0.0094
-11 12 16 -1.5644 0.0021
-11 12 17 1.0623 0.0253
-11 12 18 1.3514 0.0139
-11 12 19 -0.9019 0.0004
-11 12 20 -1.5640 0.0217
-11 12 21 3.2741 0.0515
-11 12 22 3.1478 0.0105
-11 12 23 -3.1956 0.0068
-11 12 24 -2.9223 0.0044
-11 12 25 1.2447 -0.0582
-11 12 26 2.5251 0.0683
-11 12 27 2.2242 0.1138
-11 13 1 1.5164 -0.1625
-11 13 2 2.3875 -0.1120
-11 13 3 1.2465 -0.1175
-11 13 4 -1.0188 -0.0051
-11 13 5 -1.3817 0.0499
-11 13 6 -0.3308 -0.0803
-11 13 7 0.0286 -0.0784
-11 13 8 1.9801 0.0118
-11 13 9 1.8106 -0.0114
-11 13 10 -0.0196 -0.0059
-11 13 11 0.2449 0.0547
-11 13 12 -0.3036 0.0080
-11 13 13 0.1482 -0.0537
-11 13 14 0.1164 -0.0257
-11 13 15 -0.3357 -0.0007
-11 13 16 0.8486 0.0212
-11 13 17 -1.7620 0.0156
-11 13 18 -3.6437 -0.0157
-11 13 19 -0.2182 0.0016
-11 13 20 3.1128 0.0425
-11 13 21 2.7444 0.0221
-11 13 22 -1.3693 -0.0464
-11 13 23 -3.0113 -0.0031
-11 13 24 -0.4882 0.0348
-11 13 25 0.6100 0.0078
-11 13 26 0.5311 0.0596
-11 14 1 -0.6214 0.2045
-11 14 2 -0.2400 0.0981
-11 14 3 -1.1543 -0.1891
-11 14 4 -2.5819 -0.1398
-11 14 5 0.3565 -0.0265
-11 14 6 3.0333 -0.0523
-11 14 7 -0.4040 -0.0083
-11 14 8 -1.7157 -0.0164
-11 14 9 0.2014 -0.0741
-11 14 10 1.4457 -0.0088
-11 14 11 0.5610 0.0267
-11 14 12 -0.9395 -0.0512
-11 14 13 0.9067 -0.0685
-11 14 14 1.4165 -0.0411
-11 14 15 0.1083 -0.0292
-11 14 16 -0.6458 0.0284
-11 14 17 -2.6981 0.0441
-11 14 18 -2.1443 -0.0098
-11 14 19 0.6707 -0.0484
-11 14 20 1.2515 -0.0443
-11 14 21 -0.2959 -0.0262
-11 14 22 -1.1916 0.0086
-11 14 23 0.0566 0.0543
-11 14 24 -0.0938 -0.0117
-11 14 25 -1.3084 -0.0539
-11 15 1 -0.5956 0.2802
-11 15 2 -3.3066 0.1662
-11 15 3 -2.0127 -0.0699
-11 15 4 0.6672 -0.1020
-11 15 5 2.8702 -0.0333
-11 15 6 1.0459 0.0461
-11 15 7 -2.5178 0.0748
-11 15 8 -0.8554 -0.0186
-11 15 9 0.7776 -0.0489
-11 15 10 -0.1453 -0.0161
-11 15 11 -0.4424 -0.0517
-11 15 12 1.5628 -0.0606
-11 15 13 2.8940 0.0061
-11 15 14 -0.6715 0.0363
-11 15 15 -2.1401 0.0140
-11 15 16 0.2624 -0.0189
-11 15 17 -0.1589 -0.0357
-11 15 18 -1.8192 -0.0027
-11 15 19 -1.6959 0.0082
-11 15 20 -0.7720 -0.0185
-11 15 21 -0.0609 -0.0317
-11 15 22 1.0887 -0.0207
-11 15 23 1.1492 -0.0323
-11 16 1 -1.5731 -0.0999
-11 16 2 -2.8886 0.0137
-11 16 3 -0.8653 0.1776
-11 16 4 0.6663 0.1110
-11 16 5 2.6259 -0.0037
-11 16 6 1.9125 0.0403
-11 16 7 -1.2448 0.0446
-11 16 8 -2.2344 0.0061
-11 16 9 -0.8561 0.0372
-11 16 10 2.4792 -0.0312
-11 16 11 3.9262 -0.0658
-11 16 12 2.2674 0.0563
-11 16 13 -1.0488 0.0866
-11 16 14 -3.1704 0.0150
-11 16 15 0.2123 -0.0129
-11 16 16 2.3949 -0.0213
-11 16 17 -1.4385 0.0358
-11 16 18 -3.6152 0.1030
-11 16 19 -1.5425 0.0259
-11 16 20 -0.1360 -0.0592
-11 16 21 -0.0437 -0.0459
-11 16 22 0.9444 0.0023
-11 17 1 1.2254 -0.3832
-11 17 2 -1.1742 -0.0486
-11 17 3 -0.6376 0.2453
-11 17 4 1.2477 0.1067
-11 17 5 1.1526 -0.0351
-11 17 6 -0.6462 0.0207
-11 17 7 -0.2675 0.0059
-11 17 8 0.7460 0.0395
-11 17 9 1.3205 0.1072
-11 17 10 2.9772 -0.0230
-11 17 11 3.0627 -0.0538
-11 17 12 1.7933 0.0418
-11 17 13 0.0065 0.0155
-11 17 14 -0.5036 0.0483
-11 17 15 1.4895 0.1002
-11 17 16 0.1827 -0.0017
-11 17 17 -3.2285 -0.0099
-11 17 18 -1.8155 0.0700
-11 17 19 0.3904 0.0692
-11 17 20 -1.4372 0.0829
-11 18 1 1.3490 -0.2518
-11 18 2 -0.5829 -0.1235
-11 18 3 0.4117 0.0133
-11 18 4 -0.5234 0.0308
-11 18 5 -2.1297 0.0216
-11 18 6 0.4082 0.0122
-11 18 7 2.6471 -0.0425
-11 18 8 0.2518 0.0387
-11 18 9 -0.7732 0.0881
-11 18 10 0.8856 -0.0332
-11 18 11 3.0069 -0.0028
-11 18 12 5.6015 0.0311
-11 18 13 3.3071 -0.0751
-11 18 14 -1.2902 -0.0091
-11 18 15 0.0626 0.0813
-11 18 16 2.2642 0.0264
-11 18 17 0.0640 0.0550
-11 18 18 -2.0932 0.0501
-11 19 1 0.1484 0.0739
-11 19 2 -1.2527 -0.0196
-11 19 3 -0.1288 -0.1001
-11 19 4 -1.1590 -0.0452
-11 19 5 -1.5478 -0.0160
-11 19 6 0.9323 -0.0291
-11 19 7 0.0258 -0.0408
-11 19 8 -2.4262 0.0678
-11 19 9 -0.7801 0.1171
-11 19 10 0.8608 0.0194
-11 19 11 2.2401 -0.0185
-11 19 12 4.1743 -0.0794
-11 19 13 2.2962 -0.1050
-11 19 14 0.9557 0.0570
-11 19 15 3.3390 0.0910
-11 20 1 -0.5816 0.4628
-11 20 2 1.8854 0.0159
-11 20 3 1.1920 -0.2198
-11 20 4 -4.1853 -0.0498
-11 20 5 -3.3655 0.0359
-11 20 6 2.0603 -0.0054
-11 20 7 0.3839 -0.0175
-11 20 8 -2.6096 0.0916
-11 20 9 -0.9081 0.1077
-11 20 10 -0.6411 -0.0141
-11 20 11 -0.9611 -0.0249
-11 20 12 1.0305 0.0179
-10 -17 1 2.2026 0.1543
-10 -17 3 2.2733 -0.1188
-10 -17 4 -0.3403 0.0191
-10 -17 5 -2.6386 0.0854
-10 -17 6 1.1258 -0.0269
-10 -17 7 5.6105 -0.0650
-10 -17 8 0.9385 0.1094
-10 -17 9 -5.0909 0.0694
-10 -17 10 -0.8916 -0.1628
-10 -17 11 3.8583 -0.0479
-10 -17 12 3.5314 0.1864
-10 -17 13 3.3990 -0.0143
-10 -16 1 4.2559 0.0093
-10 -16 2 1.1435 -0.0210
-10 -16 3 -1.4337 0.0215
-10 -16 4 -0.2972 0.0133
-10 -16 5 1.6045 0.0209
-10 -16 6 2.8991 -0.0287
-10 -16 7 1.9949 -0.0600
-10 -16 8 -2.9847 0.0578
-10 -16 9 -5.8280 0.1039
-10 -16 10 1.0746 -0.0526
-10 -16 11 6.1352 -0.0885
-10 -16 12 3.0277 0.0667
-10 -16 13 -0.4426 0.0151
-10 -16 14 -1.9078 -0.1342
-10 -16 15 0.1532 -0.0489
-10 -16 16 1.1787 0.0781
-10 -16 17 -1.1743 0.0486
-10 -15 1 -1.4528 -0.0557
-10 -15 2 1.5333 0.1650
-10 -15 3 4.1781 0.1548
-10 -15 4 1.4719 -0.0112
-10 -15 5 -2.6551 -0.0407
-10 -15 6 -2.9021 -0.0110
-10 -15 7 1.7201 -0.0083
-10 -15 8 2.1018 0.0056
-10 -15 9 -3.2847 0.0340
-10 -15 10 -1.4510 0.0003
-10 -15 11 3.2213 -0.0308
-10 -15 12 2.8908 0.0246
-10 -15 13 -0.1546 0.0094
-10 -15 14 -3.9285 -0.0373
-10 -15 15 -3.2896 -0.0018
-10 -15 16 0.7579 0.0221
-10 -15 17 2.3358 0.0117
-10 -15 18 -0.2241 -0.0783
-10 -15 19 -3.2390 -0.0924
-10 -15 20 -2.4827 0.1523
-10 -14 1 0.8361 -0.0619
-10 -14 2 2.5637 0.1606
-10 -14 3 0.2293 0.0590
-10 -14 4 -2.2042 -0.0660
-10 -14 5 -0.9646 0.0218
-10 -14 6 -0.7090 0.0818
-10 -14 7 1.6663 -0.0023
-10 -14 8 1.7201 -0.0797
-10 -14 9 -2.9185 0.0069
-10 -14 10 -0.9495 0.0887
-10 -14 11 3.6235 0.0225
-10 -14 12 2.6235 -0.0349
-10 -14 13 -3.1073 -0.0327
-10 -14 14 -6.1632 0.0138
-10 -14 15 0.2005 0.0407
-10 -14 16 5.3068 -0.0004
-10 -14 17 -0.7682 0.0064
-10 -14 18 -7.8655 -0.0311
-10 -14 19 -3.7018 -0.0468
-10 -14 20 2.9458 0.1663
-10 -14 21 0.9555 0.1345
-10 -14 22 -0.9906 -0.1771
-10 -13 1 -0.5196 0.0152
-10 -13 2 0.9724 -0.0748
-10 -13 3 -0.0355 -0.1888
-10 -13 4 -0.5060 -0.0238
-10 -13 5 -0.4266 0.1048
-10 -13 6 -2.8540 0.0370
-10 -13 7 0.2827 0.0014
-10 -13 8 2.4603 -0.0242
-10 -13 9 -0.4232 -0.0301
-10 -13 10 -0.3879 0.0282
-10 -13 11 -0.1048 0.0514
-10 -13 12 0.2523 0.0100
-10 -13 13 1.0396 -0.0429
-10 -13 14 0.7375 -0.0031
-10 -13 15 0.6838 0.0360
-10 -13 16 -0.6189 -0.0139
-10 -13 17 -3.1308 0.0330
-10 -13 18 -4.2013 0.0468
-10 -13 19 -1.1601 -0.0423
-10 -13 20 0.5520 0.0648
-10 -13 21 -2.2301 0.0937
-10 -13 22 -0.4823 -0.0952
-10 -13 23 4.0154 -0.0389
-10 -13 24 3.1686 0.0210
-10 -12 1 -1.0145 0.0769
-10 -12 2 0.4563 -0.2249
-10 -12 3 -0.5199 -0.2200
-10 -12 4 0.4464 0.0450
-10 -12 5 0.0091 0.0382
-10 -12 6 -2.8570 -0.0609
-10 -12 7 0.2008 0.0139
-10 -12 8 1.6279 -0.0057
-10 -12 9 -0.4109 -0.0737
-10 -12 10 -1.9279 -0.0182
-10 -12 11 -2.1001 0.0591
-10 -12 12 2.8564 0.0683
-10 -12 13 4.1587 -0.0159
-10 -12 14 -0.7525 -0.0547
-10 -12 15 -1.6599 -0.0072
-10 -12 16 1.3270 0.0015
-10 -12 17 0.5626 0.0374
-10 -12 18 -3.7341 0.0362
-10 -12 19 -2.2606 -0.0399
-10 -12 20 0.9886 0.0379
-10 -12 21 -1.8658 0.0650
-10 -12 22 -2.5646 -0.0874
-10 -12 23 1.9446 -0.0278
-10 -12 24 4.8397 0.0464
-10 -12 25 2.8469 -0.1156
-10 -11 1 -0.9851 0.1201
-10 -11 2 1.9979 -0.0334
-10 -11 3 0.5740 0.0300
-10 -11 4 -0.0956 0.0642
-10 -11 5 -1.2759 -0.1204
-10 -11 6 -0.4621 -0.1395
-10 -11 7 3.1993 0.0202
-10 -11 8 0.9852 0.0318
-10 -11 9 -1.4509 -0.0125
-10 -11 10 -2.7032 -0.0393
-10 -11 11 -3.0085 -0.0385
-10 -11 12 1.0120 0.0445
-10 -11 13 1.4354 0.0399
-10 -11 14 0.6865 -0.0256
-10 -11 15 2.2436 -0.0166
-10 -11 16 0.4929 -0.0260
-10 -11 17 -2.2303 -0.0121
-10 -11 18 -1.2277 0.0320
-10 -11 19 1.8729 -0.0079
-10 -11 20 -0.3361 -0.0058
-10 -11 21 -5.7804 0.0201
-10 -11 22 -4.8744 -0.0615
-10 -11 23 1.7466 -0.0322
-10 -11 24 7.1416 0.0447
-10 -11 25 4.8165 -0.0917
-10 -11 26 -1.1230 -0.0707
-10 -10 1 -0.8325 0.0176
-10 -10 2 0.2254 0.2215
-10 -10 3 -1.0335 0.2712
-10 -10 4 0.7084 0.0121
-10 -10 5 1.3660 -0.1519
-10 -10 6 2.8470 -0.0164
-10 -10 7 2.5752 0.0450
-10 -10 8 -1.1486 -0.0173
-10 -10 9 0.1044 0.0294
-10 -10 10 -1.4278 0.0026
-10 -10 11 -3.7412 -0.0777
-10 -10 12 -0.0060 0.0101
-10 -10 13 0.4017 0.0673
-10 -10 14 0.3064 -0.0013
-10 -10 15 2.1074 -0.0330
-10 -10 16 0.6761 -0.0269
-10 -10 17 -1.2596 0.0003
-10 -10 18 -0.9480 0.0228
-10 -10 19 -0.8398 -0.0312
-10 -10 20 -2.9369 -0.0328
-10 -10 21 -2.5300 0.0321
-10 -10 22 -0.4262 -0.0394
-10 -10 23 -0.2591 -0.0734
-10 -10 24 0.6481 0.0389
-10 -10 25 0.9611 -0.0334
-10 -10 26 1.4805 -0.0891
-10 -10 27 1.6099 0.1460
-10 -9 1 0.1532 -0.1320
-10 -9 2 -0.1850 0.1860
-10 -9 3 -1.5924 0.1956
-10 -9 4 -0.4336 -0.0138
-10 -9 5 0.8443 -0.0142
-10 -9 6 3.3644 0.0909
-10 -9 7 1.5548 0.0134
-10 -9 8 0.2620 -0.0374
-10 -9 9 3.3729 0.0772
-10 -9 10 -2.1236 0.0724
-10 -9 11 -4.6397 -0.0411
-10 -9 12 1.2888 -0.0479
-10 -9 13 0.8121 0.0056
-10 -9 14 -0.0140 0.0378
-10 -9 15 2.3800 0.0375
-10 -9 16 0.1238 -0.0080
-10 -9 17 -3.5523 -0.0313
-10 -9 18 -1.2173 0.0051
-10 -9 19 1.8434 -0.0019
-10 -9 20 -0.4435 -0.0275
-10 -9 21 -1.6211 0.0152
-10 -9 22 -2.4295 -0.0102
-10 -9 23 -3.5860 -0.0702
-10 -9 24 -0.7491 0.0036
-10 -9 25 2.2663 0.0169
-10 -9 26 3.4509 -0.0287
-10 -9 27 -0.0975 0.0989
-10 -9 28 -4.3939 0.0857
-10 -8 1 1.3111 -0.2139
-10 -8 2 -1.0715 -0.1849
-10 -8 3 -2.6339 -0.1239
-10 -8 4 -0.7417 0.0329
-10 -8 5 1.2069 0.1422
-10 -8 6 3.5522 0.0774
-10 -8 7 1.2669 -0.0365
-10 -8 8 1.0183 -0.0436
-10 -8 9 2.1552 0.0270
-10 -8 10 -3.1971 0.0692
-10 -8 11 -1.4437 0.0476
-10 -8 12 2.8288 -0.0232
-10 -8 13 -1.0796 -0.0505
-10 -8 14 -1.9551 0.0086
-10 -8 15 1.7084 0.0584
-10 -8 16 3.0111 0.0322
-10 -8 17 1.2927 -0.0137
-10 -8 18 -0.2455 -0.0062
-10 -8 19 -2.4128 0.0063
-10 -8 20 -3.4342 -0.0177
-10 -8 21 0.7998 -0.0108
-10 -8 22 2.3605 0.0046
-10 -8 23 -0.1590 -0.0012
-10 -8 24 -2.0322 0.0379
-10 -8 25 -1.5864 0.0101
-10 -8 26 1.8456 -0.0704
-10 -8 27 0.4207 0.0588
-10 -8 28 -1.9540 0.1366
-10 -8 29 0.2303 -0.0719
-10 -7 1 3.5404 -0.0187
-10 -7 2 -0.2234 -0.3550
-10 -7 3 -2.1296 -0.2988
-10 -7 4 0.1427 0.0889
-10 -7 5 4.2730 0.1264
-10 -7 6 4.8147 -0.0778
-10 -7 7 -2.4433 -0.0785
-10 -7 8 -1.2821 -0.0027
-10 -7 9 4.2191 -0.0228
-10 -7 10 0.3169 -0.0092
-10 -7 11 -2.4118 0.0451
-10 -7 12 -1.5562 0.0218
-10 -7 13 0.1210 -0.0326
-10 -7 14 1.1314 -0.0308
-10 -7 15 1.1161 0.0128
-10 -7 16 3.2240 0.0367
-10 -7 17 1.1549 0.0076
-10 -7 18 -2.9072 -0.0207
-10 -7 19 -1.3529 0.0028
-10 -7 20 2.4081 0.0149
-10 -7 21 2.3824 -0.0027
-10 -7 22 -0.6281 0.0162
-10 -7 23 -0.4013 0.0306
-10 -7 24 -0.1975 0.0214
-10 -7 25 0.5891 -0.0048
-10 -7 26 3.3209 -0.0459
-10 -7 27 0.2479 0.0300
-10 -7 28 -2.2156 0.1069
-10 -7 29 -1.7033 0.0076
-10 -7 30 -2.0797 -0.0353
-10 -6 1 5.9067 0.2957
-10 -6 2 1.9546 -0.0539
-10 -6 3 0.6185 -0.1314
-10 -6 4 2.5281 0.0001
-10 -6 5 3.2260 -0.0557
-10 -6 6 -0.5342 -0.0853
-10 -6 7 -2.2591 0.0029
-10 -6 8 6.1276 -0.0085
-10 -6 9 6.2618 -0.0667
-10 -6 10 -2.2550 -0.0460
-10 -6 11 -3.1531 0.0124
-10 -6 12 -0.4031 0.0400
-10 -6 13 2.0584 -0.0114
-10 -6 14 -0.3356 -0.0805
-10 -6 15 -2.5627 -0.0568
-10 -6 16 2.3376 0.0293
-10 -6 17 2.9916 0.0568
-10 -6 18 -0.2619 -0.0107
-10 -6 19 -0.2765 -0.0424
-10 -6 20 0.3096 0.0089
-10 -6 21 -0.3632 0.0301
-10 -6 22 0.8259 0.0099
-10 -6 23 2.7428 -0.0007
-10 -6 24 0.3144 0.0274
-10 -6 25 0.7968 0.0272
-10 -6 26 2.4361 -0.0462
-10 -6 27 -0.3857 -0.0050
-10 -6 28 0.3755 0.1144
-10 -6 29 -0.6018 0.0516
-10 -6 30 -3.3918 -0.0581
-10 -5 1 5.3689 0.3437
-10 -5 2 2.1292 0.3470
-10 -5 3 0.6952 0.1344
-10 -5 4 -0.8722 -0.1300
-10 -5 5 1.5583 -0.1379
-10 -5 6 3.2384 0.0708
-10 -5 7 2.9257 0.0937
-10 -5 8 4.1989 -0.0269
-10 -5 9 1.1865 -0.0184
-10 -5 10 0.5673 0.0051
-10 -5 11 0.9591 -0.0324
-10 -5 12 -0.1881 -0.0280
-10 -5 13 2.8966 -0.0107
-10 -5 14 -0.9625 -0.0041
-10 -5 15 -4.8921 -0.0185
-10 -5 16 1.8128 -0.0345
-10 -5 17 3.7602 0.0075
-10 -5 18 -1.2309 0.0120
-10 -5 19 -1.7817 -0.0293
-10 -5 20 1.9593 -0.0108
-10 -5 21 1.2056 0.0132
-10 -5 22 -1.6707 -0.0057
-10 -5 23 -0.8864 -0.0090
-10 -5 24 1.3190 0.0249
-10 -5 25 3.9767 0.0313
-10 -5 26 1.1300 -0.0053
-10 -5 27 -1.2476 -0.0193
-10 -5 28 1.8889 0.0110
-10 -5 29 -2.2918 0.0419
-10 -5 30 -4.9742 0.0266
-10 -5 31 0.9658 0.0534
-10 -4 1 3.0452 -0.0590
-10 -4 2 2.2256 0.3034
-10 -4 3 -0.1111 0.2543
-10 -4 4 -0.4131 -0.0821
-10 -4 5 4.1522 -0.0765
-10 -4 6 1.6515 0.1340
-10 -4 7 -0.7619 0.1061
-10 -4 8 1.7817 0.0035
-10 -4 9 0.8755 0.0286
-10 -4 10 2.7873 0.0251
-10 -4 11 3.2271 -0.0122
-10 -4 12 1.2633 -0.0097
-10 -4 13 1.5868 0.0088
-10 -4 14 -1.8583 0.0480
-10 -4 15 -2.2073 0.0147
-10 -4 16 0.5448 -0.0641
-10 -4 17 -0.2265 -0.0212
-10 -4 18 -0.3516 0.0367
-10 -4 19 0.4102 -0.0087
-10 -4 20 0.4827 -0.0371
-10 -4 21 -0.8008 -0.0020
-10 -4 22 -1.3867 0.0040
-10 -4 23 -1.4509 -0.0232
-10 -4 24 0.7321 -0.0180
-10 -4 25 4.5620 0.0161
-10 -4 26 -0.4387 0.0243
-10 -4 27 -3.8927 -0.0291
-10 -4 28 0.6749 -0.0201
-10 -4 29 -0.1916 0.0471
-10 -4 30 -1.6557 -0.0267
-10 -4 31 -0.0209 -0.0000
-10 -3 1 -1.4410 -0.4683
-10 -3 2 0.1862 -0.1239
-10 -3 3 2.4849 0.0998
-10 -3 4 1.4157 0.1037
-10 -3 5 0.2408 0.0684
-10 -3 6 -1.8327 -0.0099
-10 -3 7 1.2983 -0.0371
-10 -3 8 1.1045 0.0362
-10 -3 9 -1.6748 0.0480
-10 -3 10 3.5418 0.0066
-10 -3 11 3.0996 0.0386
-10 -3 12 -0.9529 0.0398
-10 -3 13 0.9747 -0.0040
-10 -3 14 1.4853 0.0309
-10 -3 15 -1.0926 0.0465
-10 -3 16 -2.7535 -0.0160
-10 -3 17 0.5698 -0.0299
-10 -3 18 0.8205 0.0196
-10 -3 19 -3.8078 0.0352
-10 -3 20 -1.2444 -0.0032
-10 -3 21 2.7287 -0.0367
-10 -3 22 0.0085 -0.0399
-10 -3 23 -3.6587 -0.0260
-10 -3 24 0.5116 -0.0174
-10 -3 25 4.4450 0.0129
-10 -3 26 -3.1875 0.0408
-10 -3 27 -5.5964 -0.0304
-10 -3 28 0.8795 -0.0496
-10 -3 29 1.2614 0.0103
-10 -3 30 -0.6061 -0.0564
-10 -3 31 0.1735 -0.0289
-10 -3 32 -0.7338 0.1483
-10 -2 1 -2.3945 -0.3403
-10 -2 2 2.7165 -0.3493
-10 -2 3 1.0086 -0.1038
-10 -2 4 -2.6352 0.1821
-10 -2 5 -0.8907 0.0813
-10 -2 6 1.8558 -0.1887
-10 -2 7 4.0641 -0.1443
-10 -2 8 -1.2642 0.0374
-10 -2 9 -4.3351 0.0230
-10 -2 10 0.8730 -0.0278
-10 -2 11 2.2237 0.0188
-10 -2 12 1.7254 0.0269
-10 -2 13 0.6169 -0.0076
-10 -2 14 -0.2680 -0.0115
-10 -2 15 0.7399 0.0186
-10 -2 16 -0.5517 0.0451
-10 -2 17 -1.9084 0.0131
-10 -2 18 -3.6981 -0.0059
-10 -2 19 -2.0314 0.0260
-10 -2 20 2.1376 0.0030
-10 -2 21 0.9500 -0.0435
-10 -2 22 -0.3262 -0.0128
-10 -2 23 -1.3351 0.0088
-10 -2 24 -1.1134 -0.0419
-10 -2 25 1.3906 -0.0183
-10 -2 26 -0.8904 0.0476
-10 -2 27 -3.7723 0.0000
-10 -2 28 -2.8802 -0.0341
-10 -2 29 -0.5076 -0.0417
-10 -2 30 1.2565 -0.0737
-10 -2 31 1.8913 0.0159
-10 -2 32 0.8895 0.0620
-10 -1 1 -1.2502 0.2671
-10 -1 2 0.2031 -0.1065
-10 -1 3 -0.7022 -0.2033
-10 -1 4 0.4336 0.0004
-10 -1 5 0.2086 0.0152
-10 -1 6 -0.0696 -0.0985
-10 -1 7 1.3410 -0.0940
-10 -1 8 -2.6675 -0.0282
-10 -1 9 -1.8851 -0.0053
-10 -1 10 3.1978 -0.0183
-10 -1 11 2.0162 -0.0540
-10 -1 12 -0.7241 -0.0469
-10 -1 13 -1.1247 -0.0037
-10 -1 14 1.5335 -0.0250
-10 -1 15 1.0960 -0.0156
-10 -1 16 -1.7282 0.0579
-10 -1 17 -1.2464 0.0219
-10 -1 18 -1.8392 -0.0482
-10 -1 19 -0.3176 0.0011
-10 -1 20 0.1720 0.0385
-10 -1 21 -1.5809 -0.0056
-10 -1 22 1.5029 -0.0052
-10 -1 23 0.9328 0.0083
-10 -1 24 -1.2999 -0.0308
-10 -1 25 0.8808 -0.0203
-10 -1 26 -0.5756 0.0158
-10 -1 27 -4.3827 0.0154
-10 -1 28 -3.5585 0.0016
-10 -1 29 -0.4277 -0.0441
-10 -1 30 0.4916 0.0201
-10 -1 31 2.7270 0.1090
-10 -1 32 3.6162 -0.0852
-10 0 1 0.2171 0.5302
-10 0 2 2.0107 0.1906
-10 0 3 0.4964 -0.0840
-10 0 4 -1.0760 -0.1584
-10 0 5 -3.2916 -0.0270
-10 0 6 -0.1540 0.1381
-10 0 7 2.3651 0.0690
-10 0 8 -1.5296 -0.0624
-10 0 9 -0.3773 -0.0328
-10 0 10 1.2351 0.0007
-10 0 11 -0.1142 -0.0659
-10 0 12 0.8183 -0.0605
-10 0 13 0.8044 0.0171
-10 0 14 -0.7883 0.0006
-10 0 15 -1.3854 -0.0438
-10 0 16 1.7880 -0.0058
-10 0 17 0.5314 0.0181
-10 0 18 -3.3865 -0.0212
-10 0 19 1.9006 -0.0145
-10 0 20 1.3683 0.0227
-10 0 21 -3.4203 0.0052
-10 0 22 2.0561 0.0026
-10 0 23 3.1615 0.0217
-10 0 24 -1.5470 0.0059
-10 0 25 -0.4813 -0.0210
-10 0 26 0.6565 -0.0376
-10 0 27 -3.3679 0.0129
-10 0 28 -4.8133 0.0520
-10 0 29 -0.6817 -0.0080
-10 0 30 2.0266 0.0306
-10 0 31 2.7116 0.0961
-10 0 32 1.5306 -0.0301
-10 1 1 0.1626 0.1014
-10 1 2 1.3553 0.1871
-10 1 3 1.9327 0.1209
-10 1 4 1.4389 -0.0937
-10 1 5 -1.9130 0.0103
-10 1 6 -0.4631 0.2086
-10 1 7 -0.7411 0.0998
-10 1 8 -3.0550 -0.0393
-10 1 9 1.3281 0.0009
-10 1 10 3.9112 0.0302
-10 1 11 1.1723 -0.0042
-10 1 12 -2.4449 -0.0048
-10 1 13 -2.2957 0.0291
-10 1 14 0.6977 0.0371
-10 1 15 1.1821 -0.0304
-10 1 16 0.9557 -0.0592
-10 1 17 -2.4988 0.0195
-10 1 18 -1.5467 0.0216
-10 1 19 5.4788 -0.0373
-10 1 20 1.1872 -0.0089
-10 1 21 -2.6819 0.0317
-10 1 22 2.5664 0.0227
-10 1 23 1.6099 0.0055
-10 1 24 -0.4332 0.0096
-10 1 25 2.1493 0.0019
-10 1 26 -0.0845 -0.0346
-10 1 27 -5.7288 -0.0206
-10 1 28 -4.0296 0.0166
-10 1 29 1.9436 0.0068
-10 1 30 2.6187 0.0026
-10 1 31 0.3387 0.0294
-10 1 32 -0.8766 0.0823
-10 2 1 1.0652 -0.4391
-10 2 2 -0.0172 -0.0452
-10 2 3 2.6269 0.1676
-10 2 4 2.3096 0.0710
-10 2 5 -2.6506 0.0200
-10 2 6 -1.2830 0.0028
-10 2 7 0.2566 0.0066
-10 2 8 0.2093 0.0490
-10 2 9 2.0142 0.0158
-10 2 10 1.9245 -0.0071
-10 2 11 -0.0836 0.0839
-10 2 12 -2.1232 0.0818
-10 2 13 0.0832 -0.0075
-10 2 14 0.8942 0.0206
-10 2 15 -1.9686 0.0101
-10 2 16 -0.8560 -0.0502
-10 2 17 -0.9218 0.0156
-10 2 18 0.6584 0.0466
-10 2 19 4.2552 -0.0097
-10 2 20 0.9409 -0.0075
-10 2 21 -0.5367 0.0198
-10 2 22 1.2156 0.0038
-10 2 23 1.1781 -0.0216
-10 2 24 2.7348 -0.0018
-10 2 25 2.6479 0.0430
-10 2 26 -1.3435 0.0215
-10 2 27 -5.0036 -0.0686
-10 2 28 -3.7173 -0.0631
-10 2 29 1.6514 0.0371
-10 2 30 3.9217 -0.0130
-10 2 31 0.0344 -0.1039
-10 2 32 -3.4173 0.0539
-10 3 1 -2.1536 -0.3516
-10 3 2 -2.8548 -0.1281
-10 3 3 2.6021 -0.0099
-10 3 4 1.4459 0.0574
-10 3 5 -2.5774 -0.0333
-10 3 6 0.1623 -0.1674
-10 3 7 1.1743 -0.0661
-10 3 8 0.1728 0.0554
-10 3 9 0.3897 -0.0123
-10 3 10 1.6454 -0.0290
-10 3 11 1.4673 0.0899
-10 3 12 -1.3150 0.0538
-10 3 13 -0.4188 -0.0711
-10 3 14 -0.0744 -0.0153
-10 3 15 -1.0746 0.0528
-10 3 16 0.3644 0.0162
-10 3 17 -1.0543 -0.0056
-10 3 18 -1.0390 0.0119
-10 3 19 1.0298 0.0388
-10 3 20 1.6547 0.0155
-10 3 21 2.5556 -0.0364
-10 3 22 0.6603 -0.0258
-10 3 23 0.0081 0.0050
-10 3 24 2.1211 -0.0081
-10 3 25 1.7718 0.0147
-10 3 26 0.8349 0.0521
-10 3 27 -0.9730 -0.0222
-10 3 28 -2.9073 -0.0680
-10 3 29 -0.3441 -0.0126
-10 3 30 2.1155 -0.0511
-10 3 31 -0.6312 -0.1156
-10 3 32 -2.3942 -0.0161
-10 4 1 0.3715 0.2233
-10 4 2 -1.9429 -0.0108
-10 4 3 0.2882 -0.2024
-10 4 4 0.2819 -0.0722
-10 4 5 -1.5575 -0.0427
-10 4 6 -1.7144 -0.0968
-10 4 7 -0.6070 -0.0496
-10 4 8 1.4704 -0.0130
-10 4 9 -0.2016 -0.0256
-10 4 10 -1.2201 -0.0384
-10 4 11 0.1993 -0.0217
-10 4 12 0.4587 -0.0126
-10 4 13 1.4126 -0.0332
-10 4 14 0.0964 -0.0401
-10 4 15 -1.4924 0.0079
-10 4 16 -1.2614 0.0492
-10 4 17 -1.0125 -0.0122
-10 4 18 0.5614 -0.0337
-10 4 19 0.5645 0.0396
-10 4 20 1.2689 0.0206
-10 4 21 1.3611 -0.0457
-10 4 22 -2.2953 -0.0090
-10 4 23 -0.9458 0.0329
-10 4 24 2.7941 -0.0244
-10 4 25 2.7328 -0.0373
-10 4 26 2.3713 0.0327
-10 4 27 -0.3903 0.0289
-10 4 28 -2.8568 -0.0407
-10 4 29 1.3447 -0.0609
-10 4 30 2.9456 0.0098
-10 4 31 -2.2532 0.0139
-10 4 32 -2.9005 -0.1025
-10 5 1 0.7225 0.4508
-10 5 2 -2.6628 0.0747
-10 5 3 1.2253 -0.1115
-10 5 4 -0.0755 -0.0668
-10 5 5 -3.1967 0.0014
-10 5 6 -1.1707 0.0857
-10 5 7 1.3727 0.0177
-10 5 8 -0.9309 -0.0710
-10 5 9 -4.3340 0.0105
-10 5 10 -1.0063 0.0016
-10 5 11 1.4926 -0.1142
-10 5 12 -0.9502 -0.0491
-10 5 13 -1.8202 0.0632
-10 5 14 -0.6566 -0.0242
-10 5 15 1.1804 -0.0670
-10 5 16 0.3018 0.0208
-10 5 17 -0.7244 -0.0079
-10 5 18 -0.0423 -0.0461
-10 5 19 -0.9835 0.0144
-10 5 20 0.7237 0.0298
-10 5 21 0.9083 -0.0012
-10 5 22 -2.3300 0.0040
-10 5 23 -0.4214 0.0146
-10 5 24 1.0574 -0.0158
-10 5 25 -0.6278 -0.0450
-10 5 26 1.2797 -0.0340
-10 5 27 2.4267 0.0373
-10 5 28 1.1904 0.0408
-10 5 29 2.0123 -0.0464
-10 5 30 0.0550 0.0266
-10 5 31 -2.6857 0.0700
-10 5 32 0.4654 -0.0757
-10 6 1 -0.1865 0.0019
-10 6 2 -0.9156 0.0299
-10 6 3 1.5421 0.1841
-10 6 4 1.2537 0.0765
-10 6 5 0.0203 0.0404
-10 6 6 -1.4750 0.1488
-10 6 7 -1.4641 0.0374
-10 6 8 -0.4102 -0.0593
-10 6 9 -0.6919 0.0557
-10 6 10 -1.3443 0.0605
-10 6 11 -3.1736 -0.0717
-10 6 12 -3.6816 -0.0332
-10 6 13 -1.9757 0.0856
-10 6 14 1.6807 0.0148
-10 6 15 3.5994 -0.0679
-10 6 16 -1.6489 -0.0278
-10 6 17 -3.3281 0.0054
-10 6 18 0.4492 0.0069
-10 6 19 0.7127 -0.0093
-10 6 20 1.5223 0.0019
-10 6 21 0.9457 0.0386
-10 6 22 -2.5252 0.0162
-10 6 23 -1.7002 -0.0337
-10 6 24 0.2549 0.0044
-10 6 25 0.0485 0.0372
-10 6 26 0.2534 -0.0350
-10 6 27 -0.7495 -0.0069
-10 6 28 0.3741 0.0292
-10 6 29 5.7103 -0.0375
-10 6 30 4.3554 0.0368
-10 6 31 -2.7455 0.0818
-10 7 1 0.0621 -0.4612
-10 7 2 -0.0952 -0.0503
-10 7 3 2.3919 0.2962
-10 7 4 0.3967 0.1393
-10 7 5 -2.1936 -0.0079
-10 7 6 0.1272 0.0139
-10 7 7 3.7343 0.0271
-10 7 8 0.3890 0.0291
-10 7 9 -3.8117 0.0238
-10 7 10 -1.8183 0.0592
-10 7 11 -0.4688 0.0722
-10 7 12 -1.9976 0.0026
-10 7 13 -2.3745 -0.0206
-10 7 14 0.7934 0.0209
-10 7 15 0.9015 0.0219
-10 7 16 -2.6748 -0.0172
-10 7 17 0.5507 0.0017
-10 7 18 2.2044 0.0210
-10 7 19 -1.9659 -0.0106
-10 7 20 0.0853 0.0025
-10 7 21 2.2300 0.0305
-10 7 22 -0.6745 0.0045
-10 7 23 0.3757 -0.0307
-10 7 24 1.0341 0.0313
-10 7 25 -3.9704 0.0676
-10 7 26 -3.7828 -0.0258
-10 7 27 3.0146 -0.0295
-10 7 28 5.8766 -0.0039
-10 7 29 3.1833 0.0023
-10 7 30 -1.1896 0.0617
-10 7 31 -2.7024 0.0140
-10 8 1 -0.1100 -0.2824
-10 8 2 0.9718 -0.0842
-10 8 3 -0.9859 0.0067
-10 8 4 -1.6609 0.0194
-10 8 5 1.9713 -0.0331
-10 8 6 2.1544 -0.1257
-10 8 7 -1.3985 -0.0073
-10 8 8 -2.2409 0.0966
-10 8 9 2.0599 -0.0315
-10 8 10 3.1660 -0.0036
-10 8 11 -1.5893 0.1270
-10 8 12 -3.4764 0.0070
-10 8 13 -1.3092 -0.1168
-10 8 14 0.8048 -0.0011
-10 8 15 -0.4766 0.0769
-10 8 16 -0.5762 0.0061
-10 8 17 2.9687 -0.0056
-10 8 18 0.5023 0.0165
-10 8 19 -3.3154 0.0104
-10 8 20 0.1245 -0.0075
-10 8 21 2.2251 -0.0166
-10 8 22 0.7715 0.0165
-10 8 23 1.2770 0.0012
-10 8 24 -0.6619 -0.0071
-10 8 25 -4.0576 0.0158
-10 8 26 0.7305 0.0133
-10 8 27 5.5618 0.0185
-10 8 28 0.6920 -0.0203
-10 8 29 -2.1767 0.0051
-10 8 30 1.6466 0.0332
-10 8 31 2.0813 -0.0371
-10 9 1 -0.7506 0.3161
-10 9 2 1.8669 -0.0510
-10 9 3 1.0138 -0.3588
-10 9 4 -0.0165 -0.1129
-10 9 5 -1.3831 0.0442
-10 9 6 -2.4282 -0.0933
-10 9 7 0.6822 -0.0336
-10 9 8 2.6052 0.0652
-10 9 9 1.5124 -0.0467
-10 9 10 0.1809 -0.0648
-10 9 11 -1.0995 0.0301
-10 9 12 -1.7529 -0.0009
-10 9 13 0.0632 -0.0684
-10 9 14 1.7747 -0.0210
-10 9 15 -0.6549 0.0246
-10 9 16 -0.4257 0.0238
-10 9 17 2.1672 0.0123
-10 9 18 -0.3478 -0.0259
-10 9 19 -1.3356 -0.0049
-10 9 20 1.4641 -0.0018
-10 9 21 0.5134 -0.0311
-10 9 22 -1.9320 0.0134
-10 9 23 0.5811 0.0287
-10 9 24 2.3892 -0.0086
-10 9 25 -1.4651 -0.0493
-10 9 26 -1.5058 -0.0051
-10 9 27 2.9111 0.0394
-10 9 28 2.4515 -0.0284
-10 9 29 0.3068 0.0116
-10 9 30 0.7453 0.0415
-10 10 1 1.7421 0.5372
-10 10 2 3.9925 0.0380
-10 10 3 -0.3540 -0.3106
-10 10 4 -2.2063 -0.0830
-10 10 5 -0.6381 0.1295
-10 10 6 0.7201 0.0566
-10 10 7 1.9157 -0.0594
-10 10 8 0.8513 -0.0559
-10 10 9 -0.4350 0.0120
-10 10 10 -0.3743 -0.0297
-10 10 11 -0.8467 -0.0890
-10 10 12 -0.3735 0.0069
-10 10 13 2.2339 0.0712
-10 10 14 0.7459 -0.0070
-10 10 15 -2.8587 -0.0632
-10 10 16 -0.0285 -0.0105
-10 10 17 1.8256 0.0106
-10 10 18 0.3790 -0.0165
-10 10 19 1.4974 0.0103
-10 10 20 0.0107 -0.0088
-10 10 21 -2.7226 -0.0256
-10 10 22 -0.5075 0.0164
-10 10 23 2.3575 0.0344
-10 10 24 -0.5502 0.0055
-10 10 25 -4.3978 -0.0692
-10 10 26 0.3954 -0.0373
-10 10 27 6.2496 0.0068
-10 10 28 2.7240 -0.0046
-10 10 29 -1.6368 0.0868
-10 11 1 1.3965 0.0863
-10 11 2 0.0010 0.1766
-10 11 3 -0.4308 0.1690
-10 11 4 2.8540 0.0017
-10 11 5 1.4213 -0.0025
-10 11 6 -1.8828 0.1352
-10 11 7 0.7540 0.0144
-10 11 8 2.3093 -0.1035
-10 11 9 -0.3103 0.0448
-10 11 10 -0.4971 0.0349
-10 11 11 0.4063 -0.0764
-10 11 12 -0.5265 0.0398
-10 11 13 0.0624 0.1051
-10 11 14 -0.5535 -0.0172
-10 11 15 -1.0262 -0.0701
-10 11 16 1.2453 -0.0018
-10 11 17 0.0849 0.0238
-10 11 18 -0.8044 0.0120
-10 11 19 0.1436 0.0074
-10 11 20 -0.4425 0.0101
-10 11 21 1.7893 0.0410
-10 11 22 1.5406 -0.0154
-10 11 23 -4.1059 -0.0436
-10 11 24 -4.6072 0.0107
-10 11 25 1.3415 -0.0092
-10 11 26 4.8880 0.0218
-10 11 27 1.9822 0.0246
-10 11 28 -1.6279 -0.0219
-10 11 29 -0.4066 0.0381
-10 12 1 1.2076 -0.4517
-10 12 2 1.0549 0.1421
-10 12 3 0.7743 0.4580
-10 12 4 1.8336 0.0347
-10 12 5 -0.7291 -0.1823
-10 12 6 -1.8795 0.0711
-10 12 7 1.8093 0.1038
-10 12 8 2.6910 -0.0298
-10 12 9 0.9021 0.0236
-10 12 10 1.1306 0.0372
-10 12 11 -1.0007 0.0033
-10 12 12 -2.9381 0.0377
-10 12 13 0.5010 0.0118
-10 12 14 1.4167 -0.0229
-10 12 15 0.4593 0.0060
-10 12 16 -0.2139 0.0180
-10 12 17 -3.4938 0.0254
-10 12 18 -1.6152 0.0643
-10 12 19 2.2011 0.0277
-10 12 20 0.6239 -0.0044
-10 12 21 0.1215 0.0167
-10 12 22 0.7122 -0.0455
-10 12 23 -1.2570 -0.0095
-10 12 24 -3.0601 0.0701
-10 12 25 -1.8087 0.0190
-10 12 26 1.4591 0.0082
-10 12 27 2.3608 -0.0188
-10 12 28 1.1680 -0.0267
-10 13 1 2.8640 -0.4410
-10 13 2 -0.1943 -0.0844
-10 13 3 -1.8670 0.1962
-10 13 4 -0.1946 0.0188
-10 13 5 -0.1260 -0.1580
-10 13 6 0.4627 -0.0495
-10 13 7 1.7218 0.0881
-10 13 8 0.6819 0.0676
-10 13 9 0.8240 -0.0004
-10 13 10 2.0633 -0.0092
-10 13 11 -1.4448 0.0185
-10 13 12 -2.8975 -0.0370
-10 13 13 1.3079 -0.0820
-10 13 14 2.1531 0.0184
-10 13 15 0.9121 0.0839
-10 13 16 -1.9746 0.0116
-10 13 17 -4.8613 -0.0148
-10 13 18 0.1230 0.0353
-10 13 19 3.2559 0.0051
-10 13 20 -0.9247 0.0067
-10 13 21 -0.6683 0.0490
-10 13 22 2.6797 0.0118
-10 13 23 -0.6999 0.0194
-10 13 24 -5.8392 -0.0093
-10 13 25 -2.4540 -0.0569
-10 13 26 3.6092 0.0222
-10 13 27 2.5439 0.0671
-10 14 1 -1.6281 0.0782
-10 14 2 -2.3637 -0.2971
-10 14 3 -0.5988 -0.3235
-10 14 4 1.9318 0.0395
-10 14 5 1.5695 0.0958
-10 14 6 -0.1853 -0.0946
-10 14 7 -1.7069 -0.0344
-10 14 8 -0.9695 0.0627
-10 14 9 2.3917 -0.0161
-10 14 10 2.2658 -0.0392
-10 14 11 -2.0426 -0.0039
-10 14 12 -0.7155 -0.0669
-10 14 13 1.7854 -0.0679
-10 14 14 -1.0787 0.0313
-10 14 15 0.0877 0.0355
-10 14 16 1.3006 -0.0361
-10 14 17 -3.1025 -0.0327
-10 14 18 -2.4714 0.0127
-10 14 19 2.2257 0.0029
-10 14 20 1.4497 0.0164
-10 14 21 -1.5359 0.0289
-10 14 22 -0.0778 0.0071
-10 14 23 1.6550 0.0043
-10 14 24 -0.6874 -0.0182
-10 14 25 -2.3314 0.0101
-10 14 26 -1.5736 0.0343
-10 15 1 0.4849 0.4352
-10 15 2 -0.2195 -0.1697
-10 15 3 -0.0758 -0.4206
-10 15 4 -0.2546 0.0550
-10 15 5 -0.1026 0.2123
-10 15 6 0.3926 -0.0436
-10 15 7 -1.4160 -0.0996
-10 15 8 -1.5060 -0.0319
-10 15 9 2.7718 -0.0171
-10 15 10 2.9347 0.0111
-10 15 11 -1.3512 -0.0017
-10 15 12 -0.1429 -0.0409
-10 15 13 0.6264 -0.0092
-10 15 14 -2.2983 -0.0050
-10 15 15 0.3587 -0.0339
-10 15 16 1.6089 -0.0200
-10 15 17 -3.4130 -0.0136
-10 15 18 -2.8792 -0.0271
-10 15 19 1.8416 -0.0179
-10 15 20 0.4746 0.0070
-10 15 21 -1.1096 0.0026
-10 15 22 2.9192 0.0081
-10 15 23 3.0381 0.0061
-10 15 24 -2.0794 0.0018
-10 16 1 0.4996 0.3239
-10 16 2 -2.3839 0.1376
-10 16 3 -1.9984 -0.0865
-10 16 4 0.5775 0.0164
-10 16 5 2.5843 0.0785
-10 16 6 -0.1228 0.0281
-10 16 7 -4.9734 -0.0349
-10 16 8 -1.5696 -0.0678
-10 16 9 7.3954 -0.0190
-10 16 10 5.9328 0.0305
-10 16 11 -2.2514 0.0352
-10 16 12 -1.8173 0.0504
-10 16 13 0.2953 0.0153
-10 16 14 -1.9308 -0.0817
-10 16 15 -0.1197 -0.0537
-10 16 16 1.6346 0.0525
-10 16 17 -2.2974 0.0430
-10 16 18 -3.6121 -0.0339
-10 16 19 -0.8281 -0.0499
-10 16 20 -0.0935 -0.0103
-10 16 21 0.8013 0.0246
-10 16 22 2.1391 0.0213
-10 16 23 0.1136 -0.0420
-10 17 1 2.4976 -0.1293
-10 17 2 0.2768 0.2558
-10 17 3 1.1078 0.2615
-10 17 4 -0.3198 -0.0393
-10 17 5 -3.4698 -0.1112
-10 17 6 -2.1040 0.0742
-10 17 7 0.6127 0.0659
-10 17 8 2.2433 -0.0304
-10 17 9 5.0896 -0.0002
-10 17 10 3.8720 0.0184
-10 17 11 -1.0589 0.0136
-10 17 12 -0.8806 0.0422
-10 17 13 1.5996 0.0226
-10 17 14 1.4795 -0.0306
-10 17 15 1.1955 -0.0064
-10 17 16 -0.9937 0.0455
-10 17 17 -3.7975 0.0300
-10 17 18 -1.4380 -0.0142
-10 17 19 0.0680 0.0118
-10 17 20 -2.9522 0.0414
-10 17 21 -2.0570 -0.0212
-10 18 1 3.9244 -0.3295
-10 18 2 0.1321 0.0796
-10 18 3 -0.6546 0.2233
-10 18 4 -3.3945 -0.0397
-10 18 5 -3.1951 -0.1216
-10 18 6 3.0095 0.0459
-10 18 7 2.5120 0.0823
-10 18 8 -3.4954 0.0419
-10 18 9 -1.2677 0.0079
-10 18 10 4.5437 -0.0170
-10 18 11 4.6316 0.0019
-10 18 12 2.6563 -0.0018
-10 18 13 1.2569 -0.0052
-10 18 14 0.2205 0.0295
-10 18 15 1.1138 0.0343
-10 18 16 0.8674 0.0317
-10 18 17 -0.6526 0.0226
-10 18 18 -0.2772 -0.0353
-10 18 19 -1.9802 -0.0138
-10 19 1 -1.1577 -0.1902
-10 19 2 -4.1141 -0.1918
-10 19 3 1.8515 -0.0419
-10 19 4 1.9049 0.0107
-10 19 5 -2.9584 -0.0219
-10 19 6 -1.5858 -0.0058
-10 19 7 -0.5859 0.0517
-10 19 8 -3.2487 0.0592
-10 19 9 -0.9037 0.0032
-10 19 10 4.3671 0.0090
-10 19 11 3.4762 -0.0213
-10 19 12 -0.3244 -0.0804
-10 19 13 -0.0074 0.0466
-10 19 14 2.7830 0.1256
-10 19 15 3.9047 -0.0172
-10 19 16 1.5137 -0.0527
-10 19 17 -0.6369 -0.0141
-10 20 1 -0.5238 0.1017
-10 20 2 1.6583 -0.3559
-10 20 3 2.7588 -0.2037
-10 20 4 -4.7950 0.1681
-10 20 5 -7.0063 0.0709
-10 20 6 2.2611 -0.1151
-10 20 7 5.6614 -0.0083
-10 20 8 -1.9085 0.0393
-10 20 9 -5.8386 -0.0235
-10 20 10 -1.8868 0.0542
-10 20 11 0.3715 0.0417
-10 20 12 1.1428 -0.0428
-10 20 13 3.2197 0.0433
-10 20 14 2.2748 0.0313
-10 21 1 2.0319 0.2656
-10 21 2 -2.8997 -0.2122
-10 21 3 -4.4987 -0.0898
-10 21 4 -2.3315 0.1814
-10 21 5 2.1202 -0.0020
-10 21 6 4.3872 -0.1285
-10 21 7 0.7035 -0.0109
-10 21 8 -5.4511 -0.0363
-10 21 9 -4.2447 -0.0031
-10 21 10 2.0020 0.1617
-9 -18 1 2.7245 -0.0224
-9 -18 2 3.2463 -0.0316
-9 -18 3 3.1611 -0.1268
-9 -18 4 0.3013 -0.0978
-9 -18 5 -1.0543 0.1980
-9 -18 6 0.8461 0.0570
-9 -18 7 -0.0997 -0.2287
-9 -18 8 -1.4338 0.0467
-9 -18 9 1.1039 0.1564
-9 -18 10 2.7312 -0.0975
-9 -18 11 -0.4561 -0.0005
-9 -18 12 -0.6366 0.1124
-9 -18 13 2.8710 -0.0819
-9 -17 1 3.1392 -0.0026
-9 -17 2 2.2913 -0.1425
-9 -17 3 1.8434 -0.1935
-9 -17 4 -0.3239 -0.0308
-9 -17 5 -0.0049 0.1860
-9 -17 6 3.5335 -0.0111
-9 -17 7 1.4253 -0.1857
-9 -17 8 -3.5727 0.0570
-9 -17 9 -1.3334 0.0770
-9 -17 10 2.6012 -0.1233
-9 -17 11 0.6770 0.0196
-9 -17 12 1.4359 0.1352
-9 -17 13 2.6849 -0.0584
-9 -17 14 -0.2457 -0.1486
-9 -17 15 -0.0416 -0.0650
-9 -17 16 -0.0339 0.1091
-9 -17 17 -1.1761 0.1708
-9 -16 1 1.8649 0.1427
-9 -16 2 1.1634 0.1182
-9 -16 3 1.8654 -0.0486
-9 -16 4 0.2216 -0.1086
-9 -16 5 -0.0783 0.0266
-9 -16 6 2.1783 -0.0015
-9 -16 7 0.6393 -0.0821
-9 -16 8 -3.0911 0.0379
-9 -16 9 -0.3339 0.0466
-9 -16 10 3.7965 -0.1051
-9 -16 11 1.5324 -0.0612
-9 -16 12 -1.0929 0.0516
-9 -16 13 -3.1250 0.0157
-9 -16 14 -1.1549 -0.0621
-9 -16 15 3.9950 -0.0722
-9 -16 16 0.0535 0.0915
-9 -16 17 -3.3459 0.1235
-9 -16 18 1.1886 -0.1460
-9 -16 19 0.2509 -0.1184
-9 -16 20 -3.7509 0.1640
-9 -15 1 1.4766 0.1006
-9 -15 2 2.5422 0.2873
-9 -15 3 1.9338 0.1985
-9 -15 4 -2.1056 -0.1417
-9 -15 5 -3.1117 -0.1461
-9 -15 6 1.0819 0.0912
-9 -15 7 3.9257 0.0982
-9 -15 8 1.6029 -0.0216
-9 -15 9 0.6179 -0.0214
-9 -15 10 0.3580 -0.0161
-9 -15 11 -1.6789 -0.0593
-9 -15 12 -1.0019 -0.0316
-9 -15 13 -1.8934 0.0765
-9 -15 14 -2.0911 0.0328
-9 -15 15 0.9643 -0.1497
-9 -15 16 0.0763 -0.0497
-9 -15 17 -0.5335 0.1212
-9 -15 18 -0.2233 -0.0177
-9 -15 19 -3.1586 -0.0376
-9 -15 20 -1.9465 0.1021
-9 -15 21 2.2667 0.0352
-9 -15 22 -0.0006 -0.0010
-9 -14 1 1.3052 -0.2080
-9 -14 2 -0.8342 0.1406
-9 -14 3 -1.8410 0.2756
-9 -14 4 -1.1374 -0.0123
-9 -14 5 0.0127 -0.0934
-9 -14 6 1.1653 0.0786
-9 -14 7 2.7342 0.0859
-9 -14 8 1.2769 -0.0107
-9 -14 9 0.1966 0.0248
-9 -14 10 0.5635 0.0712
-9 -14 11 0.6786 -0.0025
-9 -14 12 -0.2270 -0.0787
-9 -14 13 -4.0647 -0.0017
-9 -14 14 -1.4496 0.0539
-9 -14 15 4.0815 -0.0630
-9 -14 16 -1.7514 -0.0425
-9 -14 17 -7.1707 0.0819
-9 -14 18 -0.7237 0.0064
-9 -14 19 5.0530 -0.0330
-9 -14 20 1.1731 0.0293
-9 -14 21 -3.4955 0.0133
-9 -14 22 -1.5766 0.0725
-9 -14 23 0.7715 0.0145
-9 -14 24 -0.9906 -0.1984
-9 -13 1 -0.1461 -0.3333
-9 -13 2 0.1490 -0.2170
-9 -13 3 -0.0757 0.0435
-9 -13 4 -0.5608 0.1726
-9 -13 5 -2.4633 0.0581
-9 -13 6 -1.9207 -0.0843
-9 -13 7 1.7583 -0.0228
-9 -13 8 2.3092 0.0639
-9 -13 9 2.6444 0.0405
-9 -13 10 0.7172 0.0469
-9 -13 11 -2.8830 0.0503
-9 -13 12 -0.5509 -0.0578
-9 -13 13 2.8491 -0.0463
-9 -13 14 1.7801 0.0988
-9 -13 15 -3.2153 0.0540
-9 -13 16 -5.9426 -0.0568
-9 -13 17 -1.2465 -0.0282
-9 -13 18 3.4256 0.0011
-9 -13 19 2.2106 0.0294
-9 -13 20 -1.7650 0.0194
-9 -13 21 -2.5257 -0.0423
-9 -13 22 1.4421 0.0599
-9 -13 23 3.3885 0.0569
-9 -13 24 0.8341 -0.1616
-9 -13 25 -1.6864 -0.0229
-9 -12 1 1.0167 -0.0625
-9 -12 2 0.9051 -0.3444
-9 -12 3 -1.2563 -0.2619
-9 -12 4 -1.2645 0.1599
-9 -12 5 -1.8479 0.1413
-9 -12 6 -0.3194 -0.1705
-9 -12 7 2.1750 -0.1245
-9 -12 8 0.6450 0.0515
-9 -12 9 -0.6197 0.0022
-9 -12 10 -2.2890 -0.0264
-9 -12 11 -0.5793 0.0691
-9 -12 12 4.5986 0.0378
-9 -12 13 1.5913 -0.0429
-9 -12 14 -4.3666 0.0121
-9 -12 15 -2.6912 0.0434
-9 -12 16 0.8519 -0.0015
-9 -12 17 -1.5649 -0.0086
-9 -12 18 -2.6660 0.0058
-9 -12 19 3.0092 0.0198
-9 -12 20 2.0799 -0.0273
-9 -12 21 -4.3264 -0.0672
-9 -12 22 -0.4943 0.0819
-9 -12 23 5.9679 0.0965
-9 -12 24 2.8892 -0.1653
-9 -12 25 -2.5697 -0.1099
-9 -12 26 -1.9642 0.1889
-9 -11 1 2.8263 0.4085
-9 -11 2 1.9276 -0.0275
-9 -11 3 -1.3529 -0.3153
-9 -11 4 -0.1125 -0.0660
-9 -11 5 0.4925 0.0638
-9 -11 6 1.4468 -0.0632
-9 -11 7 0.3740 -0.0794
-9 -11 8 -2.0634 0.0006
-9 -11 9 -0.0337 -0.0159
-9 -11 10 -0.9565 -0.0615
-9 -11 11 -2.8204 -0.0081
-9 -11 12 0.7313 0.0281
-9 -11 13 3.3129 -0.0185
-9 -11 14 0.9098 -0.0245
-9 -11 15 -3.7414 0.0192
-9 -11 16 -4.7618 0.0315
-9 -11 17 -2.5162 -0.0046
-9 -11 18 0.5398 -0.0340
-9 -11 19 3.0584 0.0047
-9 -11 20 -0.8711 0.0198
-9 -11 21 -5.0379 -0.0290
-9 -11 22 -1.3267 0.0143
-9 -11 23 3.2835 0.0477
-9 -11 24 4.3629 -0.0998
-9 -11 25 2.4082 -0.1251
-9 -11 27 -3.0458 0.1744
-9 -10 1 1.3377 0.4494
-9 -10 2 -0.1398 0.3309
-9 -10 3 -1.3154 -0.0619
-9 -10 4 1.4535 -0.2471
-9 -10 5 1.5311 -0.0292
-9 -10 6 0.8850 0.1802
-9 -10 7 -0.4064 0.0556
-9 -10 8 0.3962 -0.0618
-9 -10 9 0.8985 -0.0185
-9 -10 10 -5.0986 -0.0443
-9 -10 11 -3.4348 -0.0653
-9 -10 12 5.6854 0.0235
-9 -10 13 3.8762 0.0527
-9 -10 14 -4.4427 -0.0362
-9 -10 15 -4.4248 -0.0747
-9 -10 16 0.6336 -0.0023
-9 -10 17 -1.2362 0.0320
-9 -10 18 -3.7796 -0.0092
-9 -10 19 -0.8942 -0.0068
-9 -10 20 -1.5294 0.0111
-9 -10 21 -2.5840 -0.0389
-9 -10 22 0.2553 -0.0340
-9 -10 23 1.8157 0.0610
-9 -10 24 1.6990 0.0153
-9 -10 25 0.2204 -0.1066
-9 -10 26 -1.9529 0.0106
-9 -10 27 -2.7408 0.1326
-9 -10 28 -0.4557 -0.0262
-9 -9 1 -0.0195 -0.0923
-9 -9 2 -0.8385 0.3352
-9 -9 3 -3.3367 0.2769
-9 -9 4 -0.8500 -0.1619
-9 -9 5 2.1421 -0.0853
-9 -9 6 2.2068 0.2107
-9 -9 7 -0.4412 0.1092
-9 -9 8 1.0045 -0.0212
-9 -9 9 0.6791 0.0350
-9 -9 10 -5.0935 0.0177
-9 -9 11 -2.0591 -0.0446
-9 -9 12 3.2604 -0.0091
-9 -9 13 1.0235 0.0510
-9 -9 14 0.7123 0.0136
-9 -9 15 1.9450 -0.0494
-9 -9 16 -2.7507 -0.0210
-9 -9 17 -6.5912 0.0159
-9 -9 18 -1.0831 -0.0187
-9 -9 19 1.9446 -0.0426
-9 -9 20 -1.7088 -0.0047
-9 -9 21 -0.3274 0.0160
-9 -9 22 -0.5056 -0.0091
-9 -9 23 -4.3100 0.0029
-9 -9 24 -0.9574 0.0205
-9 -9 25 4.7523 -0.0157
-9 -9 26 2.9718 0.0097
-9 -9 27 -4.4471 0.0369
-9 -9 28 -5.4414 -0.0458
-9 -9 29 0.1363 -0.0215
-9 -8 1 -0.6839 -0.6146
-9 -8 2 -0.7028 -0.0347
-9 -8 3 -2.4437 0.3258
-9 -8 4 -0.5766 0.0821
-9 -8 5 1.8730 -0.0709
-9 -8 6 1.1427 -0.0017
-9 -8 7 -0.7539 0.0464
-9 -8 8 2.0742 0.0576
-9 -8 9 -0.0935 0.0272
-9 -8 10 -5.8926 0.0249
-9 -8 11 -0.7930 0.0407
-9 -8 12 3.8482 -0.0017
-9 -8 13 0.2986 0.0062
-9 -8 14 -0.4676 0.0534
-9 -8 15 2.1400 0.0172
-9 -8 16 0.4210 -0.0362
-9 -8 17 -2.2273 -0.0273
-9 -8 18 0.1876 0.0030
-9 -8 19 -0.8600 0.0142
-9 -8 20 -2.9202 -0.0005
-9 -8 21 1.0881 -0.0208
-9 -8 22 1.3123 -0.0184
-9 -8 23 -0.9303 0.0019
-9 -8 24 -0.3239 0.0165
-9 -8 25 1.0009 0.0090
-9 -8 26 1.1804 0.0182
-9 -8 27 -2.3063 0.0159
-9 -8 28 -2.4180 -0.0417
-9 -8 29 1.2400 -0.0042
-9 -8 30 0.6244 0.0503
-9 -7 1 1.8684 -0.4261
-9 -7 2 2.7348 -0.3293
-9 -7 3 -1.3971 0.0509
-9 -7 4 -1.0678 0.2203
-9 -7 5 3.0550 -0.0261
-9 -7 6 1.6168 -0.2434
-9 -7 7 -1.7534 -0.0687
-9 -7 8 2.0179 0.1015
-9 -7 9 1.7289 0.0086
-9 -7 10 -2.4286 -0.0056
-9 -7 11 -0.9702 0.0638
-9 -7 12 -0.4441 -0.0154
-9 -7 13 -0.7511 -0.0697
-9 -7 14 2.1396 0.0234
-9 -7 15 4.0168 0.0748
-9 -7 16 0.2819 0.0131
-9 -7 17 -2.6425 -0.0391
-9 -7 18 0.6219 0.0017
-9 -7 19 0.4869 0.0630
-9 -7 20 -0.2845 0.0126
-9 -7 21 2.5257 -0.0453
-9 -7 22 1.5846 0.0055
-9 -7 23 -0.9442 0.0058
-9 -7 24 -2.2425 -0.0325
-9 -7 25 0.8988 0.0177
-9 -7 26 4.2838 0.0456
-9 -7 27 -0.0248 -0.0107
-9 -7 28 -2.8446 -0.0316
-9 -7 29 -0.9509 0.0464
-9 -7 30 0.2696 0.0630
-9 -7 31 0.5895 -0.0612
-9 -6 1 5.0733 0.3091
-9 -6 2 4.7482 -0.2658
-9 -6 3 0.8429 -0.2962
-9 -6 4 -0.2859 0.0961
-9 -6 5 0.1408 0.0594
-9 -6 6 -0.0158 -0.1760
-9 -6 7 3.1218 -0.0918
-9 -6 8 6.1625 0.0478
-9 -6 9 1.0576 0.0031
-9 -6 10 -2.2084 -0.0425
-9 -6 11 -0.8088 -0.0269
-9 -6 12 0.0687 -0.0394
-9 -6 13 1.6041 -0.0515
-9 -6 14 0.5073 -0.0100
-9 -6 15 0.2859 0.0291
-9 -6 16 1.6480 0.0293
-9 -6 17 0.9276 -0.0018
-9 -6 18 0.5143 -0.0179
-9 -6 19 0.2397 0.0340
-9 -6 20 1.2575 0.0426
-9 -6 21 0.8157 -0.0042
-9 -6 22 0.1441 0.0049
-9 -6 23 1.6926 0.0067
-9 -6 24 0.2528 -0.0068
-9 -6 25 0.6154 -0.0025
-9 -6 26 1.2808 0.0005
-9 -6 27 -1.4363 0.0334
-9 -6 28 -1.0140 0.0282
-9 -6 29 0.3955 -0.0264
-9 -6 30 0.0625 0.0131
-9 -6 31 -0.7349 0.0922
-9 -5 1 5.2540 0.6708
-9 -5 2 3.1104 0.0138
-9 -5 3 -1.5334 -0.3311
-9 -5 4 -2.2326 -0.0868
-9 -5 5 2.1776 0.1519
-9 -5 6 4.5807 0.1224
-9 -5 7 3.0516 -0.0483
-9 -5 8 -0.3899 -0.0847
-9 -5 9 -0.2410 0.0205
-9 -5 10 4.6197 -0.0077
-9 -5 11 2.3765 -0.0828
-9 -5 12 -0.3474 -0.0208
-9 -5 13 1.1624 0.0250
-9 -5 14 -2.0306 -0.0299
-9 -5 15 -0.5773 -0.0652
-9 -5 16 3.9939 -0.0017
-9 -5 17 1.5682 0.0364
-9 -5 18 -1.1440 -0.0261
-9 -5 19 0.6351 -0.0223
-9 -5 20 1.8209 0.0456
-9 -5 21 -0.8487 0.0418
-9 -5 22 0.4044 -0.0024
-9 -5 23 2.6126 -0.0093
-9 -5 24 0.3569 0.0196
-9 -5 25 0.6943 0.0184
-9 -5 26 -0.4747 0.0019
-9 -5 27 -2.1129 -0.0021
-9 -5 28 -0.3040 -0.0188
-9 -5 29 -0.6852 0.0029
-9 -5 30 -1.5891 0.0879
-9 -5 31 -0.9258 0.1387
-9 -5 32 2.0724 0.0583
-9 -4 1 3.3588 0.1671
-9 -4 2 0.2434 0.2312
-9 -4 3 -0.5047 0.0605
-9 -4 4 2.5726 -0.1098
-9 -4 5 1.2592 0.0709
-9 -4 6 -3.1742 0.2350
-9 -4 7 -1.1296 0.0074
-9 -4 8 1.2673 -0.1149
-9 -4 9 3.2898 0.0482
-9 -4 10 5.6975 0.0605
-9 -4 11 0.3803 -0.0231
-9 -4 12 -1.5012 0.0044
-9 -4 13 0.7883 0.0340
-9 -4 14 -0.7148 0.0013
-9 -4 15 1.2897 -0.0672
-9 -4 16 1.8335 -0.0523
-9 -4 17 -1.2813 0.0425
-9 -4 18 -0.7833 0.0225
-9 -4 19 1.8819 -0.0572
-9 -4 20 1.3126 -0.0153
-9 -4 21 -1.3944 0.0436
-9 -4 22 -0.0086 -0.0046
-9 -4 23 1.0737 -0.0104
-9 -4 24 2.4386 0.0363
-9 -4 25 3.0165 -0.0050
-9 -4 26 -4.3305 -0.0369
-9 -4 27 -5.3917 0.0075
-9 -4 28 1.2494 0.0451
-9 -4 29 1.6665 0.0021
-9 -4 30 -1.5212 -0.0454
-9 -4 31 -2.2472 0.0923
-9 -4 32 0.0124 0.2145
-9 -3 1 0.8183 -0.4929
-9 -3 2 1.1762 0.2574
-9 -3 3 2.3582 0.3861
-9 -3 4 0.8699 -0.0634
-9 -3 5 -3.6843 -0.1480
-9 -3 6 -2.4357 0.0662
-9 -3 7 2.6712 0.0826
-9 -3 8 -0.8882 0.0171
-9 -3 9 -0.8667 -0.0022
-9 -3 10 3.9157 0.0053
-9 -3 11 0.4845 0.0712
-9 -3 12 -0.1999 0.0575
-9 -3 13 1.6036 -0.0085
-9 -3 14 -0.3488 0.0177
-9 -3 15 -1.1337 0.0080
-9 -3 16 -0.8484 -0.0377
-9 -3 17 0.5758 0.0142
-9 -3 18 -0.2660 0.0384
-9 -3 19 -1.8488 -0.0372
-9 -3 20 -0.7862 -0.0428
-9 -3 21 0.8724 0.0073
-9 -3 22 1.7791 -0.0036
-9 -3 23 0.5302 -0.0042
-9 -3 24 2.6931 -0.0084
-9 -3 25 1.0664 -0.0124
-9 -3 26 -7.1529 0.0216
-9 -3 27 -3.6225 -0.0083
-9 -3 28 3.9185 -0.0245
-9 -3 29 1.0360 -0.0232
-9 -3 30 -3.1473 -0.0670
-9 -3 31 -1.0606 0.0444
-9 -3 32 0.8175 0.1823
-9 -2 1 1.1761 -0.4387
-9 -2 2 0.4737 0.0254
-9 -2 3 -0.0695 0.1820
-9 -2 4 1.4446 -0.0079
-9 -2 5 0.1476 -0.1839
-9 -2 6 0.2656 -0.1401
-9 -2 7 0.5852 0.0759
-9 -2 8 -4.2758 0.1206
-9 -2 9 -1.6355 -0.0810
-9 -2 10 3.8711 -0.0877
-9 -2 11 1.8386 0.1043
-9 -2 12 -0.5332 0.0675
-9 -2 13 -0.9679 -0.0680
-9 -2 14 1.9711 -0.0007
-9 -2 15 1.8848 0.0866
-9 -2 16 -3.3146 0.0184
-9 -2 17 -3.9435 -0.0404
-9 -2 18 -2.0714 0.0008
-9 -2 19 0.1166 0.0130
-9 -2 20 1.3072 -0.0139
-9 -2 21 1.3410 -0.0136
-9 -2 22 0.0391 -0.0006
-9 -2 23 -2.5125 -0.0094
-9 -2 24 1.9343 -0.0254
-9 -2 25 3.4653 0.0253
-9 -2 26 -3.4607 0.0149
-9 -2 27 -4.2934 -0.0801
-9 -2 28 -1.1709 -0.0173
-9 -2 29 -0.9120 0.0374
-9 -2 30 0.5912 -0.0532
-9 -2 31 4.7459 -0.0369
-9 -2 32 1.3900 0.0271
-9 -2 33 -6.5312 0.0165
-9 -1 1 -2.5919 0.1647
-9 -1 2 -1.5968 -0.2389
-9 -1 3 3.7718 -0.2616
-9 -1 4 5.0504 0.0546
-9 -1 5 -1.7843 0.0285
-9 -1 6 -1.8715 -0.1656
-9 -1 7 0.7281 -0.0374
-9 -1 8 -2.7478 0.0942
-9 -1 9 -0.4650 -0.0324
-9 -1 10 3.3285 -0.0979
-9 -1 11 1.2608 -0.0295
-9 -1 12 -1.5054 -0.0000
-9 -1 13 0.2218 -0.0100
-9 -1 14 3.8871 0.0042
-9 -1 15 -0.8636 0.0528
-9 -1 16 -4.1640 0.0278
-9 -1 17 -0.0936 -0.0631
-9 -1 18 0.1052 -0.0365
-9 -1 19 -1.2058 0.0494
-9 -1 20 -1.8173 0.0206
-9 -1 21 -0.5212 -0.0282
-9 -1 22 1.1349 0.0150
-9 -1 23 0.5395 0.0069
-9 -1 24 2.5351 -0.0440
-9 -1 25 1.1773 0.0095
-9 -1 26 -3.7591 0.0183
-9 -1 27 -4.1709 -0.0249
-9 -1 28 -1.3372 0.0180
-9 -1 29 0.6092 0.0329
-9 -1 30 1.7983 0.0145
-9 -1 31 4.2595 -0.0463
-9 -1 32 -0.2059 -0.1478
-9 -1 33 -6.2283 -0.0514
-9 0 1 -1.0348 0.4917
-9 0 2 1.8090 -0.2216
-9 0 3 3.6574 -0.3385
-9 0 4 -0.1683 0.0807
-9 0 5 -3.5300 0.2074
-9 0 6 2.1987 0.0106
-9 0 7 2.7678 -0.1006
-9 0 8 -2.5787 -0.0436
-9 0 9 -1.0277 0.0441
-9 0 10 1.2761 -0.0130
-9 0 11 0.8149 -0.1250
-9 0 12 -0.7490 -0.0249
-9 0 13 -0.0221 0.0865
-9 0 14 2.1265 -0.0131
-9 0 15 0.6787 -0.0547
-9 0 16 0.9481 0.0136
-9 0 17 -0.9038 -0.0092
-9 0 18 -3.0082 -0.0342
-9 0 19 0.7708 0.0182
-9 0 20 0.2447 0.0188
-9 0 21 -0.1901 -0.0041
-9 0 22 2.4549 0.0124
-9 0 23 0.2547 -0.0238
-9 0 24 -1.6566 -0.0241
-9 0 25 0.7556 0.0395
-9 0 26 1.2979 0.0225
-9 0 27 -3.1507 0.0150
-9 0 28 -2.8296 0.0104
-9 0 29 0.6914 -0.0126
-9 0 30 -0.1758 0.0732
-9 0 31 2.2566 0.0441
-9 0 32 2.6679 -0.1143
-9 0 33 -2.2873 -0.0564
-9 1 1 -0.1240 0.0962
-9 1 2 0.7430 0.0640
-9 1 3 2.2499 0.1093
-9 1 4 0.8137 0.0567
-9 1 5 -0.2072 0.0894
-9 1 6 1.7947 0.1348
-9 1 7 -0.7268 -0.0455
-9 1 8 -1.1869 -0.1216
-9 1 9 2.1005 0.0809
-9 1 10 0.8367 0.0986
-9 1 11 -1.8676 -0.0680
-9 1 12 -2.4229 -0.0166
-9 1 13 1.5110 0.0724
-9 1 14 2.9201 -0.0286
-9 1 15 -0.6517 -0.0818
-9 1 16 -0.7853 0.0125
-9 1 17 -1.4447 0.0487
-9 1 18 0.8071 -0.0181
-9 1 19 4.3571 -0.0287
-9 1 20 -0.2870 0.0151
-9 1 21 -1.5426 0.0216
-9 1 22 2.5038 -0.0101
-9 1 23 1.8372 -0.0234
-9 1 24 -0.7789 0.0200
-9 1 25 0.4710 0.0047
-9 1 26 -0.0174 -0.0206
-9 1 27 -4.2875 0.0528
-9 1 28 -0.0888 0.0156
-9 1 29 3.7284 -0.0528
-9 1 30 -2.0468 0.0528
-9 1 31 -1.7888 0.1006
-9 1 32 1.6028 0.0345
-9 1 33 -0.0753 -0.0030
-9 2 1 -1.6703 -0.4307
-9 2 2 1.2088 0.2662
-9 2 3 4.0884 0.4423
-9 2 4 0.4056 -0.0461
-9 2 5 -1.2908 -0.1667
-9 2 6 1.3732 0.0996
-9 2 7 0.8226 0.0915
-9 2 8 1.4511 -0.0424
-9 2 9 1.4591 0.0182
-9 2 10 -0.8804 0.0900
-9 2 11 -1.4179 0.0650
-9 2 12 -0.4974 -0.0031
-9 2 13 1.6186 -0.0348
-9 2 14 -0.9021 0.0009
-9 2 15 -2.7939 -0.0141
-9 2 16 0.5095 -0.0160
-9 2 17 -0.1029 0.0524
-9 2 18 0.8155 0.0300
-9 2 19 2.8836 -0.0300
-9 2 20 0.1962 -0.0017
-9 2 21 0.2584 0.0201
-9 2 22 3.0811 -0.0266
-9 2 23 1.9659 -0.0227
-9 2 24 -1.5398 0.0343
-9 2 25 0.7724 0.0016
-9 2 26 1.1779 -0.0254
-9 2 27 -4.3347 0.0163
-9 2 28 0.9282 0.0040
-9 2 29 5.4263 -0.0205
-9 2 30 -3.8907 -0.0224
-9 2 31 -6.1008 0.0247
-9 2 32 0.9089 0.1204
-9 2 33 2.1523 0.0598
-9 3 1 0.5069 -0.3683
-9 3 2 3.1515 0.0559
-9 3 3 0.9517 0.1482
-9 3 4 -1.6189 -0.0927
-9 3 5 1.5527 -0.1794
-9 3 6 1.3130 -0.0281
-9 3 7 -1.6378 0.1153
-9 3 8 1.8920 0.0809
-9 3 9 2.7514 -0.0576
-9 3 10 -0.2025 -0.0242
-9 3 11 -1.2122 0.1090
-9 3 12 -0.7732 -0.0041
-9 3 13 0.5239 -0.0984
-9 3 14 -0.9342 0.0491
-9 3 15 -0.7624 0.0586
-9 3 16 -0.0309 -0.0396
-9 3 17 -3.0264 0.0021
-9 3 18 -1.7287 0.0344
-9 3 19 2.7024 -0.0035
-9 3 20 3.4176 -0.0144
-9 3 21 -0.0148 -0.0120
-9 3 22 -0.8454 -0.0087
-9 3 23 1.6423 0.0216
-9 3 24 0.2100 0.0145
-9 3 25 1.2956 -0.0216
-9 3 26 2.2938 -0.0091
-9 3 27 -1.5865 -0.0135
-9 3 28 1.0162 -0.0055
-9 3 29 1.8082 0.0168
-9 3 30 -4.6124 -0.0661
-9 3 31 -3.2194 -0.0722
-9 3 32 0.6470 0.0822
-9 3 33 -1.8185 0.1160
-9 4 1 2.8282 0.1740
-9 4 2 -1.5815 -0.3005
-9 4 3 -1.8387 -0.4047
-9 4 4 2.2970 -0.0138
-9 4 5 2.5625 0.0837
-9 4 6 -3.2424 -0.0933
-9 4 7 -2.1214 -0.0277
-9 4 8 3.2383 0.0717
-9 4 9 -0.0640 -0.0734
-9 4 10 -1.9237 -0.0950
-9 4 11 0.9956 0.0591
-9 4 12 1.3837 0.0080
-9 4 13 -0.0044 -0.0603
-9 4 14 -1.9939 0.0413
-9 4 15 -1.8523 0.0502
-9 4 16 -0.7346 -0.0340
-9 4 17 -0.4547 -0.0488
-9 4 18 -0.8233 -0.0007
-9 4 19 -0.2113 0.0278
-9 4 20 1.5097 -0.0044
-9 4 21 -1.3815 -0.0217
-9 4 22 -1.7033 0.0247
-9 4 23 1.0772 0.0291
-9 4 24 -0.9948 -0.0439
-9 4 25 2.4738 -0.0265
-9 4 26 5.0782 0.0314
-9 4 27 -2.0233 -0.0297
-9 4 28 -1.8247 -0.0376
-9 4 29 3.1516 0.0440
-9 4 30 0.4078 0.0148
-9 4 31 -2.4907 -0.0769
-9 4 32 -3.0262 -0.0459
-9 4 33 -3.9002 0.0827
-9 5 1 1.1149 0.4860
-9 5 2 0.3952 -0.2615
-9 5 3 0.8533 -0.4216
-9 5 4 1.6215 0.0927
-9 5 5 0.3723 0.2110
-9 5 6 -3.0326 -0.0760
-9 5 7 -1.8375 -0.1472
-9 5 8 0.3615 -0.0132
-9 5 9 -0.7587 0.0007
-9 5 10 0.3230 -0.0618
-9 5 11 0.1478 -0.0368
-9 5 12 -2.0346 0.0338
-9 5 13 -1.7585 0.0360
-9 5 14 0.0941 -0.0390
-9 5 15 1.2334 -0.0303
-9 5 16 0.3392 0.0262
-9 5 17 -1.3934 -0.0187
-9 5 18 -3.5299 -0.0314
-9 5 19 -0.1480 0.0239
-9 5 20 4.1299 0.0155
-9 5 21 -2.1800 -0.0106
-9 5 22 -4.1067 0.0150
-9 5 23 0.9472 0.0071
-9 5 24 -0.7683 -0.0419
-9 5 25 -0.7014 -0.0162
-9 5 26 1.9497 0.0233
-9 5 27 1.4166 -0.0021
-9 5 28 3.0216 -0.0213
-9 5 29 2.4087 0.0196
-9 5 30 -1.3567 0.0579
-9 5 31 -0.9803 -0.0395
-9 5 32 -1.5645 -0.0946
-9 6 1 3.9544 0.2304
-9 6 2 -0.9303 0.1967
-9 6 3 -0.8304 0.1193
-9 6 4 3.2327 0.0376
-9 6 5 1.1804 0.0256
-9 6 6 -3.6643 0.0313
-9 6 7 -1.0783 -0.0721
-9 6 8 1.3521 -0.0650
-9 6 9 -1.0716 0.0661
-9 6 10 -1.7310 0.0175
-9 6 11 -1.6567 -0.0826
-9 6 12 -2.0500 0.0371
-9 6 13 -0.3247 0.0804
-9 6 14 2.6735 -0.0866
-9 6 15 0.2783 -0.0688
-9 6 16 -3.9825 0.0711
-9 6 17 -1.2460 0.0450
-9 6 18 1.4821 -0.0207
-9 6 19 2.1906 -0.0179
-9 6 20 1.1294 0.0081
-9 6 21 -3.1587 0.0187
-9 6 22 -0.6769 0.0008
-9 6 23 1.7780 -0.0082
-9 6 24 -3.4743 0.0116
-9 6 25 -2.9462 -0.0012
-9 6 26 2.1318 -0.0173
-9 6 27 2.7005 0.0338
-9 6 28 2.8977 0.0095
-9 6 29 3.3009 -0.0407
-9 6 30 0.8188 0.0139
-9 6 31 -2.6922 0.0053
-9 6 32 -3.8546 0.0025
-9 7 1 -0.2620 -0.2653
-9 7 2 -2.3701 0.4489
-9 7 3 1.6375 0.4910
-9 7 4 2.4229 -0.1199
-9 7 5 -1.1130 -0.1898
-9 7 6 -0.7886 0.1444
-9 7 7 1.5741 0.0963
-9 7 8 -1.0453 -0.0470
-9 7 9 -2.2696 0.0528
-9 7 10 0.2282 0.0689
-9 7 11 0.3913 -0.0444
-9 7 12 -1.1184 -0.0126
-9 7 13 -1.3723 0.0364
-9 7 14 -0.3866 -0.0201
-9 7 15 -1.0738 -0.0250
-9 7 16 0.1176 0.0159
-9 7 17 1.9121 0.0434
-9 7 18 -2.0391 0.0291
-9 7 19 -0.8458 -0.0150
-9 7 20 4.5143 -0.0032
-9 7 21 1.1029 0.0175
-9 7 22 -2.6444 -0.0099
-9 7 23 -0.8568 -0.0017
-9 7 24 0.0037 0.0462
-9 7 25 -0.4099 0.0008
-9 7 26 0.6111 -0.0366
-9 7 27 2.7581 0.0346
-9 7 28 3.0660 0.0167
-9 7 29 0.8577 -0.0336
-9 7 30 -0.4059 -0.0189
-9 7 31 -0.7044 -0.0051
-9 7 32 -1.3802 0.0613
-9 8 1 -0.3284 -0.4764
-9 8 2 -0.9614 0.1020
-9 8 3 -0.4114 0.2485
-9 8 4 1.2992 -0.1218
-9 8 5 1.3296 -0.1316
-9 8 6 -0.7155 0.1042
-9 8 7 -1.7640 0.1211
-9 8 8 -0.1369 0.0213
-9 8 9 2.4083 0.0031
-9 8 10 0.8933 0.0483
-9 8 11 -1.6094 0.0248
-9 8 12 -1.4828 -0.0632
-9 8 13 -1.0785 -0.0450
-9 8 14 -0.1427 0.0679
-9 8 15 0.4535 0.0382
-9 8 16 1.0885 -0.0560
-9 8 17 0.0760 -0.0002
-9 8 18 -2.1783 0.0461
-9 8 19 0.5804 0.0073
-9 8 20 2.0673 -0.0062
-9 8 21 -1.5568 -0.0001
-9 8 22 -1.0198 -0.0033
-9 8 23 2.5534 0.0052
-9 8 24 1.6633 0.0276
-9 8 25 -0.9266 -0.0044
-9 8 26 0.1209 -0.0257
-9 8 27 1.6948 0.0065
-9 8 28 1.4541 0.0242
-9 8 29 2.8077 0.0279
-9 8 30 2.9516 -0.0510
-9 8 31 -2.1454 -0.0723
-9 9 1 0.9838 -0.2258
-9 9 2 0.3999 -0.4023
-9 9 3 -0.7811 -0.2189
-9 9 4 0.1519 0.0620
-9 9 5 0.6026 0.0650
-9 9 6 -0.0751 -0.0820
-9 9 7 0.0546 0.0114
-9 9 8 1.4315 0.0832
-9 9 9 1.9625 -0.0529
-9 9 10 -1.6336 -0.0326
-9 9 11 -3.5454 0.0685
-9 9 12 0.5532 -0.0350
-9 9 13 3.3826 -0.0645
-9 9 14 -0.3762 0.0758
-9 9 15 -3.4858 0.0401
-9 9 16 0.6420 -0.0695
-9 9 17 2.2793 -0.0473
-9 9 18 -1.8117 -0.0061
-9 9 19 -1.8498 0.0264
-9 9 20 1.0705 0.0152
-9 9 21 0.9498 -0.0025
-9 9 22 -1.1224 0.0285
-9 9 23 -1.3440 0.0043
-9 9 24 -0.3839 -0.0530
-9 9 25 -0.1648 -0.0305
-9 9 26 1.9007 0.0434
-9 9 27 4.1244 0.0280
-9 9 28 2.5394 -0.0006
-9 9 29 -0.0613 0.0043
-9 9 30 -0.6802 -0.0790
-9 9 31 -0.4367 -0.0582
-9 10 1 -0.2638 0.2632
-9 10 2 0.9059 -0.4250
-9 10 3 -1.3426 -0.3743
-9 10 4 -0.5022 0.2038
-9 10 5 2.5377 0.1692
-9 10 6 2.6061 -0.2130
-9 10 7 0.2086 -0.1304
-9 10 8 -0.4877 0.0648
-9 10 9 0.2950 -0.0236
-9 10 10 -1.1512 -0.0558
-9 10 11 -1.3061 0.0512
-9 10 12 1.9044 0.0462
-9 10 13 1.7104 -0.0104
-9 10 14 -2.8673 -0.0292
-9 10 15 -2.6970 -0.0422
-9 10 16 0.7410 -0.0024
-9 10 17 -0.2244 -0.0206
-9 10 18 0.1734 -0.0530
-9 10 19 1.9720 0.0268
-9 10 20 -0.9479 0.0362
-9 10 21 -3.1584 -0.0092
-9 10 22 -1.8380 -0.0098
-9 10 23 -0.7079 -0.0262
-9 10 24 -0.8672 -0.0187
-9 10 25 0.1156 0.0418
-9 10 26 2.7970 0.0408
-9 10 27 2.6261 -0.0447
-9 10 28 0.1551 -0.0080
-9 10 29 -0.0265 0.0468
-9 10 30 0.5113 -0.0440
-9 11 1 -0.5147 0.4897
-9 11 2 1.3958 0.0646
-9 11 3 -0.6167 -0.1052
-9 11 4 -0.0879 0.0806
-9 11 5 1.6456 0.0592
-9 11 6 1.4136 -0.0985
-9 11 7 0.4868 -0.1140
-9 11 8 0.5803 -0.0158
-9 11 9 1.8101 0.0513
-9 11 10 1.0287 0.0182
-9 11 11 -2.1465 0.0011
-9 11 12 -2.1857 0.0351
-9 11 13 0.8262 0.0044
-9 11 14 0.9252 -0.0734
-9 11 15 -0.9249 -0.0309
-9 11 16 -2.6349 0.0691
-9 11 17 -2.2438 0.0075
-9 11 18 0.9885 -0.0469
-9 11 19 0.3795 0.0011
-9 11 20 -1.3170 -0.0097
-9 11 21 0.5576 -0.0235
-9 11 22 -0.6256 -0.0059
-9 11 23 -3.2310 0.0144
-9 11 24 -1.7445 0.0193
-9 11 25 0.6902 -0.0010
-9 11 26 1.2308 -0.0082
-9 11 27 1.1094 0.0262
-9 11 28 1.3842 0.0929
-9 11 29 0.4471 0.0242
-9 12 1 -1.3836 0.2367
-9 12 2 -1.2229 0.4713
-9 12 3 -0.7579 0.1910
-9 12 4 0.7171 -0.1985
-9 12 5 -0.0753 -0.0885
-9 12 6 -0.3112 0.1872
-9 12 7 2.2626 0.0404
-9 12 8 3.0019 -0.0923
-9 12 9 1.1923 0.0620
-9 12 10 -0.9855 0.0608
-9 12 11 -2.5815 -0.0484
-9 12 12 -0.6731 -0.0088
-9 12 13 2.4215 0.0358
-9 12 14 1.7499 -0.0011
-9 12 15 -1.2064 0.0081
-9 12 16 -4.5182 0.0409
-9 12 17 -3.8252 0.0165
-9 12 18 0.6979 0.0008
-9 12 19 1.2166 -0.0200
-9 12 20 0.0548 -0.0112
-9 12 21 0.6885 0.0149
-9 12 22 -0.1043 -0.0310
-9 12 23 -2.2614 -0.0219
-9 12 24 -3.9192 0.0275
-9 12 25 -1.6626 0.0256
-9 12 26 3.0500 0.0218
-9 12 27 3.2320 0.0332
-9 12 28 0.4417 0.0355
-9 13 1 -1.0941 -0.2891
-9 13 2 -0.4324 0.2718
-9 13 3 -0.3020 0.2365
-9 13 4 0.2610 -0.2276
-9 13 5 -0.3946 -0.1079
-9 13 6 0.1440 0.2617
-9 13 7 1.8228 0.1308
-9 13 8 0.8139 -0.0659
-9 13 9 -0.3562 -0.0119
-9 13 10 0.3711 0.0043
-9 13 11 -0.3688 -0.0090
-9 13 12 -1.0688 0.0072
-9 13 13 1.1482 0.0231
-9 13 14 2.9121 0.0510
-9 13 15 -0.6072 0.0269
-9 13 16 -5.2564 -0.0331
-9 13 17 -2.1117 0.0118
-9 13 18 2.1458 0.0691
-9 13 19 -0.2083 0.0043
-9 13 20 -1.0121 -0.0087
-9 13 21 1.3211 0.0034
-9 13 22 0.7309 -0.0266
-9 13 23 -2.5660 0.0213
-9 13 24 -3.9617 0.0224
-9 13 25 0.0461 -0.0397
-9 13 26 3.4615 -0.0149
-9 13 27 0.8814 0.0471
-9 14 1 -0.5594 -0.5170
-9 14 2 -1.5163 -0.2160
-9 14 3 -0.4935 0.0864
-9 14 4 2.2854 0.0284
-9 14 5 1.1985 -0.0471
-9 14 6 -1.3797 0.0090
-9 14 7 -1.1825 0.0642
-9 14 8 -0.0779 0.0494
-9 14 9 0.6667 -0.0513
-9 14 10 1.2662 -0.0643
-9 14 11 0.1960 0.0273
-9 14 12 -1.7651 0.0135
-9 14 13 -0.8973 0.0019
-9 14 14 2.0978 0.0486
-9 14 15 0.8867 -0.0104
-9 14 16 -2.7867 -0.0638
-9 14 17 -1.8283 0.0336
-9 14 18 0.7430 0.0612
-9 14 19 0.9441 -0.0194
-9 14 20 -0.6556 0.0078
-9 14 21 -1.5710 0.0307
-9 14 22 2.4257 0.0125
-9 14 23 4.3315 0.0259
-9 14 24 -2.3226 -0.0323
-9 14 25 -6.0092 -0.0739
-9 14 26 -1.2430 0.0021
-9 15 1 -0.5236 -0.1502
-9 15 2 -1.4711 -0.4018
-9 15 3 -0.1816 -0.1138
-9 15 4 1.0425 0.2241
-9 15 5 0.0040 0.0304
-9 15 6 -1.9500 -0.2329
-9 15 7 -1.4584 -0.0726
-9 15 8 1.9324 0.1056
-9 15 9 3.3585 -0.0089
-9 15 10 1.0493 -0.0622
-9 15 11 -1.6798 0.0085
-9 15 12 -3.2317 -0.0045
-9 15 13 -1.8136 -0.0134
-9 15 14 1.7935 0.0011
-9 15 15 1.4027 -0.0316
-9 15 16 -2.0032 -0.0487
-9 15 17 -2.5136 -0.0148
-9 15 18 -0.6819 0.0026
-9 15 19 0.4234 0.0256
-9 15 20 0.0630 0.0486
-9 15 21 1.5391 -0.0104
-9 15 22 4.4952 -0.0385
-9 15 23 1.4091 0.0014
-9 15 24 -4.6342 0.0140
-9 15 25 -3.3118 -0.0088
-9 16 1 -1.2057 0.3762
-9 16 2 -0.3522 -0.1215
-9 16 3 -0.8034 -0.1727
-9 16 4 -1.8746 0.1271
-9 16 5 -1.5376 0.0420
-9 16 6 -1.5895 -0.1717
-9 16 7 0.6359 -0.1009
-9 16 8 5.7385 0.0290
-9 16 9 4.7551 0.0367
-9 16 10 -1.8474 0.0360
-9 16 11 -4.0152 0.0085
-9 16 12 -1.3709 -0.0503
-9 16 13 0.9716 -0.0817
-9 16 14 1.0820 -0.0640
-9 16 15 -0.3237 0.0170
-9 16 16 -1.9209 0.0392
-9 16 17 -3.1442 -0.0294
-9 16 18 -1.8072 -0.0593
-9 16 19 0.8760 -0.0154
-9 16 20 0.4858 0.0166
-9 16 21 -1.0969 -0.0019
-9 16 22 -0.3862 -0.0264
-9 16 23 1.6935 -0.0137
-9 16 24 2.6281 0.0241
-9 17 1 2.1788 0.4508
-9 17 2 0.1110 0.1930
-9 17 3 -3.4892 -0.0880
-9 17 4 -4.9179 -0.1036
-9 17 5 -0.0340 0.0370
-9 17 6 2.2319 0.0995
-9 17 7 -0.2390 -0.0300
-9 17 8 1.4611 -0.0670
-9 17 9 3.9956 0.0611
-9 17 10 1.0379 0.0656
-9 17 11 -1.9550 -0.0358
-9 17 12 0.0964 -0.0344
-9 17 13 2.4293 -0.0331
-9 17 14 0.7190 -0.0271
-9 17 15 -0.8848 0.0530
-9 17 16 -1.0188 0.0160
-9 17 17 -0.9526 -0.0760
-9 17 18 -0.5781 -0.0463
-9 17 19 -3.4649 0.0034
-9 17 20 -5.2880 0.0177
-9 17 21 -0.0789 0.0307
-9 17 22 3.6026 -0.0225
-9 18 1 -1.6498 0.0142
-9 18 2 1.1801 0.1859
-9 18 3 1.0425 0.0690
-9 18 4 -3.1069 -0.1539
-9 18 5 -1.8225 0.0228
-9 18 6 -0.9269 0.2130
-9 18 7 -2.7534 0.0202
-9 18 8 0.8422 -0.0915
-9 18 9 5.0394 0.0113
-9 18 10 2.0731 0.0243
-9 18 11 -2.1846 0.0314
-9 18 12 -0.2090 0.0899
-9 18 13 2.9410 0.0046
-9 18 14 2.4367 -0.0635
-9 18 15 1.5956 0.0043
-9 18 16 -0.2205 0.0245
-9 18 17 -1.1043 0.0128
-9 18 18 -0.2294 -0.0111
-9 18 19 -2.6645 -0.0576
-9 18 20 -2.8696 0.0221
-9 18 21 0.6682 0.1243
-9 19 1 -1.2502 -0.3316
-9 19 2 2.3045 0.0154
-9 19 3 1.5237 0.1199
-9 19 4 -4.7780 -0.0783
-9 19 5 -2.8529 -0.0105
-9 19 6 1.8818 0.0970
-9 19 7 -0.0790 -0.0181
-9 19 8 -2.6410 -0.0472
-9 19 9 -0.7080 0.0310
-9 19 10 0.9146 0.0149
-9 19 11 -0.3603 0.0016
-9 19 12 0.4910 0.0596
-9 19 13 1.7568 0.0624
-9 19 14 1.2438 0.0271
-9 19 15 1.6658 -0.0124
-9 19 16 1.1547 -0.0537
-9 19 17 1.6490 -0.0296
-9 19 18 2.0808 0.0332
-9 20 1 -2.4690 -0.2782
-9 20 2 -0.4928 -0.1413
-9 20 3 -0.1084 0.0876
-9 20 4 -2.4479 0.0439
-9 20 5 0.8904 -0.0850
-9 20 6 2.9206 -0.0781
-9 20 7 -1.3565 -0.0023
-9 20 8 -4.9158 -0.0035
-9 20 9 -2.2117 -0.0331
-9 20 10 0.7775 -0.0322
-9 20 11 -0.7697 0.0004
-9 20 12 -0.7600 0.0850
-9 20 13 0.2344 0.0815
-9 20 14 0.3352 -0.0637
-9 20 15 1.6585 -0.1179
-9 20 16 2.0333 0.0060
-9 21 1 -2.4846 0.0533
-9 21 2 -3.7869 -0.0908
-9 21 3 -1.0311 0.0192
-9 21 4 1.2185 0.0411
-9 21 5 1.3967 -0.0944
-9 21 6 0.2382 -0.0721
-9 21 7 -0.8909 -0.0305
-9 21 8 -2.3417 -0.0850
-9 21 9 -0.6132 0.0329
-9 21 10 -0.2799 0.0918
-9 21 11 -3.4368 -0.0810
-9 21 12 -0.6983 -0.0945
-9 21 13 3.0116 -0.0025
-9 22 1 -1.3383 0.2044
-9 22 2 -1.4955 -0.2089
-9 22 3 -0.6156 -0.0361
-9 22 4 -1.0422 0.1402
-9 22 5 -1.4548 -0.0152
-9 22 6 1.1992 -0.0515
-9 22 7 2.0043 -0.0238
-8 -19 1 -0.4555 -0.2096
-8 -19 2 1.4155 0.2893
-8 -19 3 3.6741 0.1730
-8 -19 4 0.8690 -0.2921
-8 -19 5 -1.9932 -0.0043
-8 -19 6 -3.9467 0.2478
-8 -19 7 -2.3262 -0.0473
-8 -19 8 1.5019 -0.0847
-8 -19 9 1.8481 0.1040
-8 -19 10 2.4271 0.0490
-8 -19 11 2.2602 -0.0548
-8 -19 12 -0.6229 -0.0104
-8 -18 1 2.0966 -0.4546
-8 -18 2 6.2149 0.0217
-8 -18 3 1.7485 0.1627
-8 -18 4 -3.6529 -0.0585
-8 -18 5 -0.1737 -0.0004
-8 -18 6 0.9896 -0.0067
-8 -18 7 -1.6273 -0.0660
-8 -18 8 -0.9217 0.0568
-8 -18 9 1.2297 0.0733
-8 -18 10 1.5193 0.0248
-8 -18 11 -0.6267 0.0251
-8 -18 12 -0.1558 -0.0383
-8 -18 13 3.4677 -0.0209
-8 -18 14 4.0630 -0.0062
-8 -18 15 -1.3333 -0.0868
-8 -18 16 -6.5541 0.0770
-8 -17 1 1.7037 -0.1812
-8 -17 2 2.0229 -0.1066
-8 -17 3 0.4481 -0.0684
-8 -17 4 0.6351 0.0378
-8 -17 5 3.2637 0.0762
-8 -17 6 -0.0486 -0.1286
-8 -17 7 -4.3692 -0.1074
-8 -17 8 -2.4428 0.0799
-8 -17 9 2.0876 0.0164
-8 -17 10 2.6128 -0.0223
-8 -17 11 -0.1842 0.0487
-8 -17 12 -0.8268 -0.0245
-8 -17 13 -0.1506 -0.0447
-8 -17 14 1.3369 0.0008
-8 -17 15 0.8150 0.0030
-8 -17 16 -2.0972 0.1041
-8 -17 17 -1.1299 0.0474
-8 -17 18 -0.7200 -0.1035
-8 -17 19 -2.6878 0.0195
-8 -16 1 -0.0025 0.3503
-8 -16 2 2.4858 -0.1543
-8 -16 3 1.1882 -0.3188
-8 -16 4 -1.0327 0.0756
-8 -16 5 0.5328 0.1707
-8 -16 6 0.5326 -0.1266
-8 -16 7 -0.5900 -0.1184
-8 -16 8 1.1233 0.0563
-8 -16 9 3.6540 -0.0065
-8 -16 10 0.4916 -0.0591
-8 -16 11 -4.9192 -0.0041
-8 -16 12 -5.3879 -0.0008
-8 -16 13 -0.6070 0.0267
-8 -16 14 6.4695 -0.0150
-8 -16 15 3.2721 -0.0714
-8 -16 16 -6.0683 0.0614
-8 -16 17 -3.0768 0.0599
-8 -16 18 1.3604 -0.0589
-8 -16 19 -2.5516 0.0111
-8 -16 20 -1.3740 0.0491
-8 -16 21 1.4406 0.0403
-8 -15 1 1.2059 0.4294
-8 -15 2 -0.9105 0.0994
-8 -15 3 -2.3819 -0.1722
-8 -15 4 -0.9186 -0.0961
-8 -15 5 2.3312 0.0880
-8 -15 6 3.3342 0.1122
-8 -15 7 2.5256 -0.0198
-8 -15 8 2.2370 -0.0757
-8 -15 9 1.2826 0.0054
-8 -15 10 -3.1643 0.0258
-8 -15 11 -3.7017 -0.0391
-8 -15 12 -0.2576 -0.0138
-8 -15 13 0.5746 0.0485
-8 -15 14 1.6845 -0.0739
-8 -15 15 -1.0206 -0.1217
-8 -15 16 -4.0309 0.0840
-8 -15 17 0.8560 0.1018
-8 -15 18 0.7860 -0.0467
-8 -15 19 -3.5733 -0.0357
-8 -15 20 1.4647 0.0116
-8 -15 21 2.8690 0.0774
-8 -15 22 -5.3478 0.0924
-8 -15 23 -5.6036 -0.1303
-8 -14 1 -3.2744 -0.0089
-8 -14 2 -4.0309 0.3045
-8 -14 3 0.3203 0.1679
-8 -14 4 2.4375 -0.1776
-8 -14 5 0.6945 -0.0563
-8 -14 6 -0.4173 0.2123
-8 -14 7 1.2786 0.0714
-8 -14 8 4.3536 -0.0915
-8 -14 9 3.8724 0.0274
-8 -14 10 -1.6572 0.0770
-8 -14 11 -2.1344 -0.0430
-8 -14 12 -0.5030 -0.0578
-8 -14 13 -1.1678 0.0550
-8 -14 14 2.1571 0.0270
-8 -14 15 0.0648 -0.0783
-8 -14 16 -5.8895 -0.0243
-8 -14 17 0.0381 0.0557
-8 -14 18 6.2085 0.0205
-8 -14 19 0.8746 -0.0612
-8 -14 20 -3.6748 -0.0649
-8 -14 21 -2.3544 0.0954
-8 -14 22 0.3980 0.1387
-8 -14 23 1.5392 -0.1032
-8 -14 24 -1.8836 -0.1151
-8 -14 25 -3.4076 0.1140
-8 -13 1 -0.2686 -0.5188
-8 -13 2 -0.4845 0.2048
-8 -13 3 -1.2249 0.3889
-8 -13 4 -2.3251 -0.0553
-8 -13 5 -1.7912 -0.1913
-8 -13 6 0.7779 0.0493
-8 -13 7 2.6153 0.1052
-8 -13 8 5.0568 -0.0054
-8 -13 9 3.7770 -0.0184
-8 -13 10 -3.6415 0.0338
-8 -13 11 -3.3910 0.0263
-8 -13 12 1.9821 -0.0111
-8 -13 13 1.7394 0.0300
-8 -13 14 -0.3064 0.0610
-8 -13 15 -3.3392 -0.0088
-8 -13 16 -2.7337 -0.0552
-8 -13 17 3.9386 -0.0123
-8 -13 18 3.7935 0.0211
-8 -13 19 -2.2635 -0.0311
-8 -13 20 -1.3996 -0.0676
-8 -13 21 2.6063 0.0541
-8 -13 22 1.7516 0.1238
-8 -13 23 -1.6141 -0.0542
-8 -13 24 -2.4100 -0.0863
-8 -13 25 0.1893 0.0953
-8 -13 26 1.2299 0.0600
-8 -12 1 0.9976 -0.3939
-8 -12 2 -2.1167 -0.1214
-8 -12 3 -2.8211 0.1415
-8 -12 4 0.0172 0.1082
-8 -12 5 1.9029 -0.1367
-8 -12 6 0.9099 -0.1718
-8 -12 7 -0.7621 0.0500
-8 -12 8 1.3496 0.0982
-8 -12 9 1.0947 -0.0613
-8 -12 10 -2.0794 -0.0491
-8 -12 11 1.5929 0.0695
-8 -12 12 1.7517 0.0128
-8 -12 13 -4.4453 -0.0498
-8 -12 14 -2.5565 0.0486
-8 -12 15 0.9165 0.0893
-8 -12 16 -2.0094 -0.0284
-8 -12 17 -1.9832 -0.0785
-8 -12 18 3.3256 0.0127
-8 -12 19 4.8107 0.0406
-8 -12 20 -0.9288 -0.0250
-8 -12 21 -4.2021 0.0002
-8 -12 22 -0.0065 0.0335
-8 -12 23 2.6378 -0.0641
-8 -12 24 0.8549 -0.0396
-8 -12 25 -0.4633 0.0980
-8 -12 26 -0.8692 0.0394
-8 -12 27 -0.8227 0.0078
-8 -11 1 3.1379 0.2146
-8 -11 2 -0.3583 -0.3980
-8 -11 3 -1.4820 -0.3209
-8 -11 4 1.0732 0.1875
-8 -11 5 1.3867 0.1063
-8 -11 6 -0.0335 -0.1899
-8 -11 7 -1.2076 -0.0603
-8 -11 8 0.1217 0.0935
-8 -11 9 0.5736 -0.0231
-8 -11 10 0.0331 -0.0839
-8 -11 11 1.1912 -0.0090
-8 -11 12 -1.4892 0.0030
-8 -11 13 -3.4710 -0.0360
-8 -11 14 -1.1720 0.0007
-8 -11 15 -2.7354 0.0669
-8 -11 16 -3.8229 0.0184
-8 -11 17 0.0860 -0.0604
-8 -11 18 1.9458 -0.0071
-8 -11 19 -0.1703 0.0613
-8 -11 20 -1.7172 0.0164
-8 -11 21 0.3499 -0.0269
-8 -11 22 1.3034 -0.0103
-8 -11 23 -0.7871 -0.0088
-8 -11 24 -0.2213 -0.0224
-8 -11 25 0.1455 -0.0221
-8 -11 26 -2.7484 0.0247
-8 -11 27 -2.9536 0.1024
-8 -11 28 0.8552 0.0805
-8 -10 1 1.1760 0.5322
-8 -10 2 -2.0592 -0.2766
-8 -10 3 -1.0266 -0.4001
-8 -10 4 1.7662 0.1151
-8 -10 5 0.2990 0.2476
-8 -10 6 -0.6758 -0.0059
-8 -10 7 0.9022 -0.1046
-8 -10 8 1.1990 -0.0176
-8 -10 9 -2.4717 0.0286
-8 -10 10 -1.9922 -0.0249
-8 -10 11 3.5019 -0.0596
-8 -10 12 1.0162 0.0083
-8 -10 13 -4.4333 0.0194
-8 -10 14 -2.7376 -0.0585
-8 -10 15 -0.0083 -0.0282
-8 -10 16 -1.9709 0.0320
-8 -10 17 -5.9003 -0.0040
-8 -10 18 -3.6713 -0.0181
-8 -10 19 2.5550 0.0114
-8 -10 20 3.2617 0.0270
-8 -10 21 0.4485 0.0168
-8 -10 22 -2.3005 -0.0151
-8 -10 23 -2.0001 0.0051
-8 -10 24 1.2936 0.0276
-8 -10 25 -0.4539 -0.0260
-8 -10 26 -5.1903 -0.0175
-8 -10 27 -4.0175 0.0163
-8 -10 28 1.7061 -0.0245
-8 -10 29 2.6951 0.0165
-8 -9 1 0.3633 0.2308
-8 -9 2 -2.0413 0.2046
-8 -9 3 -2.5787 -0.0194
-8 -9 4 -0.4780 -0.0934
-8 -9 5 0.0876 0.1186
-8 -9 6 1.3652 0.1801
-8 -9 7 1.9587 -0.0403
-8 -9 8 -1.2998 -0.1151
-8 -9 9 -4.7553 0.0482
-8 -9 10 -1.0290 0.0865
-8 -9 11 2.8816 -0.0276
-8 -9 12 -0.3602 -0.0047
-8 -9 13 0.3668 0.0395
-8 -9 14 3.0020 -0.0554
-8 -9 15 -3.1489 -0.0692
-8 -9 16 -8.5409 0.0179
-8 -9 17 -3.3289 0.0301
-8 -9 18 3.7564 -0.0299
-8 -9 19 1.1174 -0.0590
-8 -9 20 -2.1733 0.0236
-8 -9 21 0.9850 0.0695
-8 -9 22 -0.1590 -0.0232
-8 -9 23 -1.5949 -0.0086
-8 -9 24 1.6363 0.0688
-8 -9 25 0.4268 -0.0254
-8 -9 26 -4.0261 -0.0673
-8 -9 27 -4.0152 0.0066
-8 -9 28 0.4311 0.0152
-8 -9 29 1.1745 0.0368
-8 -9 30 -1.9117 -0.0235
-8 -8 1 -0.6444 -0.3013
-8 -8 2 0.3075 0.4869
-8 -8 3 -0.9642 0.3442
-8 -8 4 -0.6881 -0.2198
-8 -8 5 0.1439 -0.1383
-8 -8 6 -0.0488 0.1624
-8 -8 7 -0.7438 0.0926
-8 -8 8 -0.6909 -0.0781
-8 -8 9 -1.8514 -0.0121
-8 -8 10 -1.4668 0.1126
-8 -8 11 0.5493 0.0474
-8 -8 12 0.3636 -0.0305
-8 -8 13 0.6463 0.0104
-8 -8 14 0.8634 0.0160
-8 -8 15 -0.7063 -0.0366
-8 -8 16 -2.0614 -0.0354
-8 -8 17 -0.7036 0.0327
-8 -8 18 0.1347 0.0330
-8 -8 19 -3.6058 -0.0511
-8 -8 20 -0.8572 -0.0328
-8 -8 21 5.6730 0.0331
-8 -8 22 1.8965 -0.0202
-8 -8 23 -2.5153 -0.0316
-8 -8 24 -1.2848 0.0436
-8 -8 25 0.7915 0.0240
-8 -8 26 1.1831 -0.0124
-8 -8 27 -1.7065 -0.0240
-8 -8 28 -2.4262 -0.0317
-8 -8 29 -0.0411 0.0514
-8 -8 30 1.0717 0.0037
-8 -8 31 -0.2583 -0.1465
-8 -7 1 4.1874 -0.3971
-8 -7 2 6.2263 0.2588
-8 -7 3 -1.7090 0.2306
-8 -7 4 -3.9062 -0.1682
-8 -7 5 0.2624 -0.2247
-8 -7 6 1.4096 -0.0019
-8 -7 7 0.9100 0.1649
-8 -7 8 1.8293 0.0562
-8 -7 9 -0.7256 -0.0908
-8 -7 10 -2.9280 -0.0001
-8 -7 11 -1.7647 0.0661
-8 -7 12 -0.3620 -0.0235
-8 -7 13 2.5191 -0.0254
-8 -7 14 4.2570 0.0555
-8 -7 15 -0.2649 0.0280
-8 -7 16 -5.8790 -0.0374
-8 -7 17 -0.5785 0.0078
-8 -7 18 5.2317 0.0620
-8 -7 19 -0.8744 -0.0032
-8 -7 20 -1.2651 -0.0696
-8 -7 21 3.0882 -0.0085
-8 -7 22 -0.1727 0.0272
-8 -7 23 -1.3096 -0.0330
-8 -7 24 0.5936 -0.0130
-8 -7 25 1.5223 0.0446
-8 -7 26 1.0667 0.0031
-8 -7 27 -1.3552 -0.0670
-8 -7 28 -1.6107 -0.0276
-8 -7 29 0.7903 0.0899
-8 -7 30 1.8850 0.0390
-8 -7 31 -0.7984 -0.1179
-8 -6 1 7.5751 -0.0298
-8 -6 2 5.0394 -0.3172
-8 -6 3 -4.0989 -0.1948
-8 -6 4 -3.6967 0.1048
-8 -6 5 2.9181 -0.0122
-8 -6 6 3.2862 -0.1634
-8 -6 7 0.5787 0.0525
-8 -6 8 1.1659 0.1101
-8 -6 9 0.7426 -0.0977
-8 -6 10 -0.6663 -0.1002
-8 -6 11 -0.7021 0.0266
-8 -6 12 0.8402 0.0133
-8 -6 13 1.4095 -0.0131
-8 -6 14 0.2224 0.0300
-8 -6 15 -0.2981 0.0318
-8 -6 16 -0.2737 -0.0102
-8 -6 17 2.9171 -0.0332
-8 -6 18 2.1413 0.0189
-8 -6 19 -3.0894 0.0644
-8 -6 20 0.3350 -0.0129
-8 -6 21 3.0642 -0.0263
-8 -6 22 0.7842 0.0356
-8 -6 23 0.5766 -0.0116
-8 -6 24 -1.7477 -0.0298
-8 -6 25 -1.7322 0.0144
-8 -6 26 2.1411 -0.0048
-8 -6 27 1.4783 -0.0262
-8 -6 28 -2.8338 -0.0063
-8 -6 29 -1.5535 0.0313
-8 -6 30 2.5458 0.0519
-8 -6 31 0.7922 -0.0010
-8 -6 32 1.0982 -0.0409
-8 -5 1 5.0706 0.2722
-8 -5 2 2.2894 -0.4824
-8 -5 3 -3.8542 -0.2832
-8 -5 4 -1.9786 0.2948
-8 -5 5 2.8441 0.1641
-8 -5 6 1.0812 -0.1938
-8 -5 7 -1.0772 -0.1321
-8 -5 8 0.8620 0.0529
-8 -5 9 2.2167 0.0264
-8 -5 10 1.7857 -0.0840
-8 -5 11 0.5884 -0.0593
-8 -5 12 0.2977 0.0452
-8 -5 13 -0.8027 0.0368
-8 -5 14 0.1080 -0.0481
-8 -5 15 2.3638 -0.0202
-8 -5 16 0.2353 0.0424
-8 -5 17 0.7666 -0.0357
-8 -5 18 1.5308 -0.0324
-8 -5 19 -0.2404 0.0856
-8 -5 20 1.3216 0.0272
-8 -5 21 0.5938 -0.0359
-8 -5 22 -0.3870 0.0244
-8 -5 23 1.1987 0.0165
-8 -5 24 1.3409 -0.0100
-8 -5 25 -0.0548 -0.0028
-8 -5 26 -2.8347 -0.0096
-8 -5 27 -3.3367 -0.0023
-8 -5 28 -0.7745 0.0015
-8 -5 29 2.9022 0.0078
-8 -5 30 1.4785 0.0710
-8 -5 31 -2.7733 0.0793
-8 -5 32 1.3868 -0.0205
-8 -4 1 4.7987 0.2235
-8 -4 2 0.5043 -0.0326
-8 -4 3 -1.4419 0.0388
-8 -4 4 -0.9668 0.1474
-8 -4 5 -2.7192 0.0884
-8 -4 6 -3.1827 -0.0311
-8 -4 7 0.5553 -0.1401
-8 -4 8 1.8550 -0.0404
-8 -4 9 1.8645 0.1111
-8 -4 10 2.2659 0.0054
-8 -4 11 -0.2146 -0.0888
-8 -4 12 -1.9350 0.0198
-8 -4 13 -1.6583 0.0477
-8 -4 14 1.9239 -0.0623
-8 -4 15 3.5007 -0.0472
-8 -4 16 -0.2579 0.0602
-8 -4 17 -0.3495 0.0201
-8 -4 18 -0.2834 -0.0438
-8 -4 19 -0.8071 -0.0037
-8 -4 20 1.2573 0.0254
-8 -4 21 1.4901 0.0242
-8 -4 22 1.9636 0.0010
-8 -4 23 2.3050 -0.0089
-8 -4 24 0.5218 0.0055
-8 -4 25 -4.0144 -0.0073
-8 -4 26 -5.1401 -0.0019
-8 -4 27 1.1316 0.0296
-8 -4 28 3.2143 0.0162
-8 -4 29 -0.1967 -0.0333
-8 -4 30 -3.9579 0.0090
-8 -4 31 -2.1440 0.1035
-8 -4 32 4.6172 0.0555
-8 -4 33 2.1175 0.0048
-8 -3 1 2.0132 -0.0650
-8 -3 2 1.1794 0.4320
-8 -3 3 2.0803 0.2810
-8 -3 4 -1.7685 -0.2006
-8 -3 5 -6.1466 -0.0681
-8 -3 6 -1.6005 0.2211
-8 -3 7 3.7450 0.0153
-8 -3 8 -0.3747 -0.1139
-8 -3 9 -2.4982 0.0597
-8 -3 10 0.2773 0.0832
-8 -3 11 1.1495 -0.0186
-8 -3 12 0.5097 -0.0334
-8 -3 13 -0.8787 -0.0065
-8 -3 14 0.6732 -0.0039
-8 -3 15 0.4326 -0.0044
-8 -3 16 -1.7224 0.0166
-8 -3 17 0.0846 0.0212
-8 -3 18 -0.4356 -0.0165
-8 -3 19 -1.3766 -0.0344
-8 -3 20 0.8237 0.0221
-8 -3 21 3.0946 0.0289
-8 -3 22 2.1507 -0.0216
-8 -3 23 -0.6879 0.0077
-8 -3 24 0.5786 0.0061
-8 -3 25 -0.8554 -0.0303
-8 -3 26 -3.6087 -0.0018
-8 -3 27 -1.1084 0.0138
-8 -3 28 0.3658 0.0138
-8 -3 29 0.1107 -0.0252
-8 -3 30 -0.9573 -0.0404
-8 -3 31 1.0826 0.0691
-8 -3 32 2.1578 0.0874
-8 -3 33 -2.6916 -0.0067
-8 -2 1 0.9397 -0.2551
-8 -2 2 1.2564 0.2620
-8 -2 3 4.3893 0.0830
-8 -2 4 1.8243 -0.2963
-8 -2 5 -3.9532 -0.0557
-8 -2 6 -1.6398 0.2537
-8 -2 7 1.1836 0.1196
-8 -2 8 -2.9144 -0.0750
-8 -2 9 -1.9511 -0.0560
-8 -2 10 2.8780 0.0711
-8 -2 11 2.7369 0.0861
-8 -2 12 -1.4487 -0.0577
-8 -2 13 -2.0557 -0.0665
-8 -2 14 2.0095 0.0706
-8 -2 15 -0.4856 0.0358
-8 -2 16 -3.0486 -0.0696
-8 -2 17 0.1221 -0.0027
-8 -2 18 -0.1839 0.0362
-8 -2 19 -1.3490 -0.0299
-8 -2 20 0.0458 0.0041
-8 -2 21 2.1343 0.0315
-8 -2 22 0.9193 0.0041
-8 -2 23 0.5774 0.0101
-8 -2 24 3.4012 -0.0309
-8 -2 25 -1.4762 -0.0306
-8 -2 26 -5.5796 0.0045
-8 -2 27 -1.6003 -0.0097
-8 -2 28 1.2954 0.0274
-8 -2 29 1.2647 0.0161
-8 -2 30 1.1278 -0.0469
-8 -2 31 2.4301 -0.0132
-8 -2 32 -2.6820 -0.0078
-8 -2 33 -6.2793 -0.0331
-8 -1 1 -2.8562 -0.1763
-8 -1 2 3.8638 -0.2743
-8 -1 3 10.1996 -0.2334
-8 -1 4 2.5830 -0.0312
-8 -1 5 -7.3980 0.0480
-8 -1 6 -2.5627 -0.0004
-8 -1 7 3.5201 0.0634
-8 -1 8 0.1712 0.0388
-8 -1 9 -1.4355 -0.0970
-8 -1 10 0.6328 -0.0172
-8 -1 11 0.8858 0.0926
-8 -1 12 -1.3857 -0.0048
-8 -1 13 0.4803 -0.0327
-8 -1 14 2.7612 0.0564
-8 -1 15 -1.4902 0.0104
-8 -1 16 -1.2071 -0.0742
-8 -1 17 0.7667 -0.0163
-8 -1 18 -1.6192 0.0272
-8 -1 19 -1.6653 0.0029
-8 -1 20 -0.1635 0.0034
-8 -1 21 1.9594 -0.0103
-8 -1 22 2.1814 0.0120
-8 -1 23 1.6658 0.0235
-8 -1 24 0.6799 -0.0280
-8 -1 25 -2.3079 -0.0056
-8 -1 26 -1.0185 0.0091
-8 -1 27 -0.2011 -0.0073
-8 -1 28 -1.1665 0.0470
-8 -1 29 0.1928 0.0424
-8 -1 30 2.0879 -0.0569
-8 -1 31 2.6674 -0.1164
-8 -1 32 -3.5767 -0.0493
-8 -1 33 -4.3065 0.0812
-8 0 1 -1.0730 0.1252
-8 0 2 3.8782 -0.4029
-8 0 3 4.8298 -0.2331
-8 0 4 -0.9813 0.2480
-8 0 5 -1.8642 0.0669
-8 0 6 4.1408 -0.2645
-8 0 7 3.3295 -0.0760
-8 0 8 -2.7032 0.1032
-8 0 9 -3.9382 -0.0135
-8 0 10 -0.3309 -0.0652
-8 0 11 2.0359 0.0064
-8 0 12 -0.1149 0.0511
-8 0 13 1.0047 0.0270
-8 0 14 2.0812 -0.0232
-8 0 15 -0.5945 -0.0232
-8 0 16 -0.1147 -0.0013
-8 0 17 -1.0468 -0.0076
-8 0 18 -0.6748 -0.0027
-8 0 19 2.1582 0.0215
-8 0 20 1.0284 -0.0160
-8 0 21 0.1681 -0.0484
-8 0 22 0.2468 0.0131
-8 0 23 0.9389 0.0259
-8 0 24 1.2347 0.0042
-8 0 25 1.3988 0.0251
-8 0 26 0.8291 0.0137
-8 0 27 -3.0197 -0.0016
-8 0 28 -1.8769 -0.0093
-8 0 29 0.4839 0.0099
-8 0 30 1.4058 0.0354
-8 0 31 4.6041 -0.0306
-8 0 32 -0.6636 -0.0381
-8 0 33 -5.3174 0.0434
-8 1 1 -3.3836 0.3258
-8 1 2 0.5912 0.1109
-8 1 3 4.8410 0.1118
-8 1 4 4.1749 0.1434
-8 1 5 1.3366 -0.0734
-8 1 6 -0.0868 -0.1829
-8 1 7 0.5201 -0.0714
-8 1 8 1.3942 0.0542
-8 1 9 -1.4475 0.0917
-8 1 10 -1.9038 -0.0246
-8 1 11 0.8497 -0.0972
-8 1 12 0.2279 0.0273
-8 1 13 0.0983 0.0472
-8 1 14 -0.7363 -0.0663
-8 1 15 -0.2036 -0.0186
-8 1 16 2.1197 0.0709
-8 1 17 -0.2274 0.0063
-8 1 18 0.3720 -0.0355
-8 1 19 2.5214 0.0131
-8 1 20 0.5632 -0.0072
-8 1 21 -0.2530 -0.0300
-8 1 22 1.6598 0.0020
-8 1 23 2.7847 0.0026
-8 1 24 -0.5379 0.0088
-8 1 25 -0.9023 0.0075
-8 1 26 0.5815 0.0159
-8 1 27 -0.4502 0.0250
-8 1 28 2.4364 -0.0300
-8 1 29 0.2841 0.0105
-8 1 30 -3.5749 0.0818
-8 1 31 0.5727 0.0083
-8 1 32 0.5485 -0.0336
-8 1 33 -0.8013 -0.0106
-8 2 1 0.0358 0.1681
-8 2 2 2.6663 0.5207
-8 2 3 1.3411 0.2863
-8 2 4 -0.1076 -0.1811
-8 2 5 2.3360 -0.0910
-8 2 6 2.9765 0.1936
-8 2 7 2.5400 0.0373
-8 2 8 2.1313 -0.0789
-8 2 9 -2.0981 0.0818
-8 2 10 -2.2159 0.0444
-8 2 11 1.0651 -0.0811
-8 2 12 0.4955 -0.0224
-8 2 13 -0.7510 0.0089
-8 2 14 -1.8796 -0.0262
-8 2 15 -0.4210 0.0110
-8 2 16 0.5267 0.0455
-8 2 17 -0.4799 0.0006
-8 2 18 1.7474 -0.0267
-8 2 19 2.0157 0.0018
-8 2 20 0.6306 0.0163
-8 2 21 0.7326 0.0057
-8 2 22 1.3654 -0.0321
-8 2 23 0.2495 -0.0247
-8 2 24 -1.7874 0.0235
-8 2 25 2.2775 0.0015
-8 2 26 2.4473 0.0122
-8 2 27 -0.7403 0.0399
-8 2 28 2.8029 -0.0119
-8 2 29 -2.1516 -0.0283
-8 2 30 -8.1890 0.0114
-8 2 31 0.3680 0.0670
-8 2 32 5.2819 0.0435
-8 2 33 -0.0611 -0.0735
-8 3 1 2.8183 -0.3450
-8 3 2 -0.8464 0.1890
-8 3 3 -3.1312 0.1749
-8 3 4 3.9057 -0.1944
-8 3 5 6.3202 0.0087
-8 3 6 -2.5366 0.2999
-8 3 7 -1.4677 0.0870
-8 3 8 6.5288 -0.0897
-8 3 9 1.4460 -0.0073
-8 3 10 -3.8343 0.0417
-8 3 11 -0.0443 0.0217
-8 3 12 1.9199 -0.0292
-8 3 13 -0.9024 -0.0132
-8 3 14 -2.5296 0.0546
-8 3 15 -0.4528 0.0023
-8 3 16 -0.8040 -0.0472
-8 3 17 -1.6245 0.0016
-8 3 18 0.2159 0.0037
-8 3 19 2.2299 -0.0278
-8 3 20 2.3107 0.0071
-8 3 21 -2.7665 0.0348
-8 3 22 -2.7394 -0.0028
-8 3 23 2.1173 -0.0057
-8 3 24 1.8553 -0.0015
-8 3 25 2.2331 -0.0264
-8 3 26 0.1431 -0.0043
-8 3 27 -1.4605 0.0243
-8 3 28 1.7534 0.0318
-8 3 29 -1.8370 -0.0184
-8 3 30 -3.7113 -0.0466
-8 3 31 0.8700 0.0750
-8 3 32 -1.7609 0.0819
-8 3 33 -4.9598 -0.0517
-8 4 1 3.2575 -0.5436
-8 4 2 -1.4911 -0.4202
-8 4 3 -1.4708 -0.0834
-8 4 4 4.2551 0.0893
-8 4 5 2.1921 0.0818
-8 4 6 -4.5588 -0.0145
-8 4 7 1.0913 -0.0010
-8 4 8 6.1002 0.0388
-8 4 9 -1.5212 -0.0597
-8 4 10 -2.7700 -0.0254
-8 4 11 3.3956 0.0901
-8 4 12 2.0307 0.0054
-8 4 13 -3.2672 -0.0038
-8 4 14 -2.3710 0.0739
-8 4 15 0.1833 -0.0318
-8 4 16 -1.0607 -0.0851
-8 4 17 -0.7358 0.0097
-8 4 18 -0.0467 0.0156
-8 4 19 0.9226 -0.0312
-8 4 20 -0.5890 0.0021
-8 4 21 -5.8747 0.0381
-8 4 22 -0.9988 0.0196
-8 4 23 3.9978 -0.0141
-8 4 24 -0.4028 -0.0365
-8 4 25 -0.3497 -0.0108
-8 4 26 -0.5618 -0.0085
-8 4 27 -1.0608 -0.0063
-8 4 28 3.5065 0.0664
-8 4 29 2.3200 0.0228
-8 4 30 -2.6536 -0.0450
-8 4 31 -4.6332 0.0236
-8 4 32 -4.8760 0.0310
-8 4 33 -1.8428 0.0296
-8 5 1 5.4870 -0.0345
-8 5 2 -0.9412 -0.5008
-8 5 3 -2.3964 -0.2289
-8 5 4 4.3209 0.2420
-8 5 5 2.5756 0.0143
-8 5 6 -6.6028 -0.3158
-8 5 7 -2.4500 -0.0667
-8 5 8 6.6954 0.1256
-8 5 9 3.1264 -0.0609
-8 5 10 -2.7709 -0.0573
-8 5 11 -1.2822 0.0710
-8 5 12 0.4325 0.0080
-8 5 13 -0.8804 -0.0110
-8 5 14 0.1729 0.0217
-8 5 15 1.0922 -0.0174
-8 5 16 -0.1694 -0.0191
-8 5 17 -1.8953 -0.0005
-8 5 18 -3.4847 -0.0005
-8 5 19 1.8489 0.0111
-8 5 20 3.3387 0.0007
-8 5 21 -4.2746 -0.0196
-8 5 22 -2.8733 -0.0026
-8 5 23 -0.3842 -0.0039
-8 5 24 -3.4779 -0.0052
-8 5 25 -0.6564 0.0297
-8 5 26 2.9954 -0.0121
-8 5 27 3.7477 -0.0324
-8 5 28 1.1707 0.0352
-8 5 29 -3.5510 0.0333
-8 5 30 -1.3062 -0.0002
-8 5 31 1.1183 -0.0511
-8 5 32 -3.6992 -0.0250
-8 5 33 -4.5927 0.1762
-8 6 1 3.2891 0.6229
-8 6 2 -2.5760 0.0231
-8 6 3 0.4458 -0.1725
-8 6 4 3.7249 0.0559
-8 6 5 -1.8221 -0.0392
-8 6 6 -5.1817 -0.1852
-8 6 7 2.1800 -0.0543
-8 6 8 5.5070 0.0288
-8 6 9 -1.5649 -0.0044
-8 6 10 -4.1846 0.0040
-8 6 11 1.6457 -0.0097
-8 6 12 3.2759 -0.0185
-8 6 13 -0.4151 -0.0212
-8 6 14 -1.0073 -0.0491
-8 6 15 -1.6006 0.0271
-8 6 16 -1.6399 0.0806
-8 6 17 0.4085 -0.0105
-8 6 18 1.8400 -0.0376
-8 6 19 4.4977 0.0134
-8 6 20 -0.1604 -0.0048
-8 6 21 -6.7307 -0.0286
-8 6 22 -1.3791 0.0031
-8 6 23 1.7985 0.0173
-8 6 24 -1.2287 0.0248
-8 6 25 -0.7074 0.0175
-8 6 26 0.6142 -0.0199
-8 6 27 1.4047 -0.0100
-8 6 28 1.1742 -0.0192
-8 6 29 0.9624 -0.0055
-8 6 30 1.0483 0.0515
-8 6 31 -3.9742 -0.0385
-8 6 32 -6.1350 -0.0322
-8 6 33 1.2587 0.1703
-8 7 1 -0.2320 0.5535
-8 7 2 -1.0652 0.4534
-8 7 3 1.7799 0.0360
-8 7 4 1.2398 -0.1895
-8 7 5 -0.7225 -0.0216
-8 7 6 -1.4040 0.1741
-8 7 7 -1.5110 0.0334
-8 7 8 -0.3141 -0.0921
-8 7 9 1.7729 0.0387
-8 7 10 2.3341 0.0455
-8 7 11 1.6425 -0.0708
-8 7 12 -0.9775 -0.0081
-8 7 13 -2.7877 0.0171
-8 7 14 -0.8113 -0.0452
-8 7 15 0.5830 0.0311
-8 7 16 1.6600 0.0615
-8 7 17 0.8405 -0.0196
-8 7 18 -1.2422 -0.0192
-8 7 19 0.9949 0.0099
-8 7 20 0.7875 -0.0049
-8 7 21 -1.1615 -0.0004
-8 7 22 0.8870 0.0127
-8 7 23 1.2019 0.0161
-8 7 24 -0.8720 0.0129
-8 7 25 -2.4768 -0.0347
-8 7 26 0.2681 -0.0146
-8 7 27 5.7770 0.0518
-8 7 28 3.0255 -0.0078
-8 7 29 -3.1658 -0.0129
-8 7 30 -2.5535 0.0191
-8 7 31 -1.2115 -0.0842
-8 7 32 -1.0036 -0.0298
-8 8 1 -2.0731 -0.2048
-8 8 2 -0.4663 0.2912
-8 8 3 3.9410 0.1778
-8 8 4 2.1766 -0.1774
-8 8 5 -2.7035 0.0531
-8 8 6 -3.6903 0.2993
-8 8 7 -0.1603 0.0443
-8 8 8 3.2710 -0.1045
-8 8 9 1.8496 0.0363
-8 8 10 -1.5675 0.0180
-8 8 11 -0.7093 -0.0459
-8 8 12 0.5201 0.0542
-8 8 13 -0.0453 0.0659
-8 8 14 0.5215 -0.0158
-8 8 15 0.4307 -0.0318
-8 8 16 -0.5504 -0.0147
-8 8 17 -2.1825 0.0245
-8 8 18 -1.3220 0.0330
-8 8 19 2.5280 -0.0114
-8 8 20 2.0987 -0.0055
-8 8 21 -1.4608 0.0308
-8 8 22 -2.3776 -0.0020
-8 8 23 0.8527 -0.0242
-8 8 24 3.3149 -0.0025
-8 8 25 -0.1395 -0.0155
-8 8 26 -1.4041 0.0253
-8 8 27 2.1352 0.0520
-8 8 28 2.7288 -0.0290
-8 8 29 2.5270 -0.0368
-8 8 30 1.1982 -0.0221
-8 8 31 -5.1315 -0.0474
-8 8 32 -6.3344 0.0223
-8 9 1 -0.1743 -0.7402
-8 9 2 1.0109 -0.1411
-8 9 3 1.1796 0.1620
-8 9 4 0.1607 0.0219
-8 9 5 0.5251 0.0195
-8 9 6 1.6310 0.0416
-8 9 7 0.4484 -0.0080
-8 9 8 -1.6442 -0.0082
-8 9 9 -1.9337 -0.0114
-8 9 10 -0.7581 -0.0043
-8 9 11 1.6594 0.0413
-8 9 12 2.6544 0.0332
-8 9 13 0.1361 0.0215
-8 9 14 -3.1445 0.0264
-8 9 15 -2.3883 -0.0469
-8 9 16 1.0058 -0.0578
-8 9 17 0.5642 0.0345
-8 9 18 -1.2644 0.0479
-8 9 19 -0.2622 0.0018
-8 9 20 0.8152 -0.0060
-8 9 21 -1.1120 0.0031
-8 9 22 -3.5497 -0.0114
-8 9 23 -0.3080 -0.0020
-8 9 24 2.9397 0.0217
-8 9 25 -0.2255 -0.0027
-8 9 26 -0.6604 -0.0209
-8 9 27 3.3074 -0.0209
-8 9 28 3.4310 0.0052
-8 9 29 0.4682 0.0344
-8 9 30 -1.9820 -0.0174
-8 9 31 -3.2095 -0.0697
-8 10 1 -1.9626 -0.3786
-8 10 2 -1.5780 -0.2733
-8 10 3 -0.2681 0.0065
-8 10 4 3.5417 0.1079
-8 10 5 4.3893 -0.1108
-8 10 6 0.5784 -0.2459
-8 10 7 -2.9382 -0.0027
-8 10 8 -1.7163 0.1070
-8 10 9 1.7850 -0.0527
-8 10 10 1.0517 -0.0239
-8 10 11 -1.4731 0.0573
-8 10 12 -0.5099 -0.0459
-8 10 13 0.1872 -0.0445
-8 10 14 -1.9118 0.0263
-8 10 15 -1.9879 -0.0130
-8 10 16 -0.3481 -0.0112
-8 10 17 -0.0090 -0.0062
-8 10 18 -0.0198 -0.0216
-8 10 19 -0.6824 0.0147
-8 10 20 -1.0285 0.0160
-8 10 21 -1.6654 0.0059
-8 10 22 -2.7559 0.0004
-8 10 23 -0.1303 -0.0274
-8 10 24 2.2829 -0.0101
-8 10 25 0.3892 0.0294
-8 10 26 -0.9261 0.0097
-8 10 27 -0.1109 -0.0121
-8 10 28 0.8030 0.0048
-8 10 29 1.4284 -0.0277
-8 10 30 1.2674 -0.0411
-8 11 1 -1.0617 0.3792
-8 11 2 0.5418 -0.1270
-8 11 3 -1.4318 -0.1568
-8 11 4 0.1369 0.0705
-8 11 5 1.8442 -0.1012
-8 11 6 2.0078 -0.2151
-8 11 7 1.2192 0.0387
-8 11 8 0.3708 0.0926
-8 11 9 0.8757 -0.0502
-8 11 10 -0.9993 -0.0032
-8 11 11 -3.2768 0.0015
-8 11 12 0.1268 -0.0975
-8 11 13 2.8698 -0.0311
-8 11 14 -0.9623 0.0250
-8 11 15 -4.5187 0.0044
-8 11 16 -3.1947 0.0091
-8 11 17 -0.0202 -0.0581
-8 11 18 0.4685 -0.0447
-8 11 19 -0.9313 0.0407
-8 11 20 -0.1870 0.0016
-8 11 21 -0.2408 -0.0256
-8 11 22 -1.2858 -0.0145
-8 11 23 -0.0989 -0.0254
-8 11 24 -0.3914 0.0337
-8 11 25 -1.5194 0.0704
-8 11 26 0.1170 -0.0060
-8 11 27 1.7754 -0.0257
-8 11 28 1.2218 -0.0201
-8 11 29 0.1940 -0.0656
-8 11 30 0.4770 0.0073
-8 12 1 -1.7957 0.6048
-8 12 2 -2.1426 0.0507
-8 12 3 -2.8456 -0.1459
-8 12 4 0.0351 0.0309
-8 12 5 1.7505 0.0687
-8 12 6 2.6760 0.0177
-8 12 7 1.6793 -0.0028
-8 12 8 -1.2151 -0.0002
-8 12 9 -0.7056 0.0454
-8 12 10 0.5787 0.0392
-8 12 11 -0.0548 -0.0540
-8 12 12 0.6377 -0.0371
-8 12 13 1.0931 0.0430
-8 12 14 -1.0438 -0.0130
-8 12 15 -3.6564 -0.0084
-8 12 16 -3.7959 0.0362
-8 12 17 -1.2902 -0.0442
-8 12 18 0.3571 -0.0309
-8 12 19 1.1233 0.0068
-8 12 20 0.9509 -0.0485
-8 12 21 -1.9650 -0.0116
-8 12 22 -2.2280 0.0418
-8 12 23 0.1232 0.0135
-8 12 24 -0.2040 0.0088
-8 12 25 0.4960 -0.0077
-8 12 26 2.2118 -0.0230
-8 12 27 1.0638 0.0498
-8 12 28 -0.2396 0.0180
-8 12 29 0.1245 -0.0699
-8 13 1 -0.1469 0.1284
-8 13 2 -0.5750 0.1011
-8 13 3 -1.5248 -0.0051
-8 13 4 1.1319 -0.0073
-8 13 5 0.7400 0.1742
-8 13 6 -0.3696 0.1758
-8 13 7 -0.2222 -0.0585
-8 13 8 -1.0470 -0.0683
-8 13 9 -0.3997 0.0807
-8 13 10 1.6182 0.0632
-8 13 11 1.3892 -0.0039
-8 13 12 -0.1762 0.0459
-8 13 13 0.3620 0.0652
-8 13 14 -0.1352 -0.0076
-8 13 15 -3.6501 0.0010
-8 13 16 -2.1724 0.0115
-8 13 17 2.1007 -0.0231
-8 13 18 -0.2811 0.0035
-8 13 19 -2.3133 -0.0067
-8 13 20 -0.2991 -0.0116
-8 13 21 -0.4605 0.0408
-8 13 22 0.3524 0.0090
-8 13 23 1.3900 -0.0450
-8 13 24 -0.8405 -0.0103
-8 13 25 -0.5739 0.0138
-8 13 26 1.4680 0.0377
-8 13 27 0.6740 0.0704
-8 13 28 -0.2827 -0.0283
-8 14 1 0.9454 -0.4020
-8 14 2 -1.1248 0.1170
-8 14 3 0.1167 0.1409
-8 14 4 3.0888 -0.0740
-8 14 5 -0.7256 0.0363
-8 14 6 -3.2719 0.0938
-8 14 7 -0.4845 -0.0347
-8 14 8 0.3940 -0.0369
-8 14 9 -0.2490 -0.0055
-8 14 10 1.5900 0.0225
-8 14 11 0.5768 0.0950
-8 14 12 -3.2334 0.0939
-8 14 13 -0.2875 0.0066
-8 14 14 2.6668 -0.0449
-8 14 15 -1.8722 -0.0047
-8 14 16 -1.9650 0.0309
-8 14 17 1.2603 0.0377
-8 14 18 -1.1685 0.0206
-8 14 19 -1.3419 -0.0173
-8 14 20 1.2101 -0.0142
-8 14 21 1.1310 -0.0087
-8 14 22 2.3080 0.0001
-8 14 23 0.9890 0.0346
-8 14 24 -3.7921 0.0025
-8 14 25 -2.4453 -0.0600
-8 14 26 2.1062 0.0095
-8 14 27 1.9640 0.0763
-8 15 1 1.4728 -0.3111
-8 15 2 -1.3786 0.0883
-8 15 3 -2.0921 0.0740
-8 15 4 0.3368 -0.1278
-8 15 5 -0.2084 -0.1457
-8 15 6 -0.1501 -0.0741
-8 15 7 2.6959 0.0504
-8 15 8 0.9463 0.0523
-8 15 9 -3.3162 -0.0927
-8 15 10 -0.5702 -0.0416
-8 15 11 0.7956 0.0615
-8 15 12 -3.2209 -0.0008
-8 15 13 0.0111 -0.0328
-8 15 14 2.3117 0.0047
-8 15 15 -4.0976 -0.0003
-8 15 16 -3.0425 -0.0084
-8 15 17 3.3323 0.0219
-8 15 18 1.3506 0.0049
-8 15 19 -2.1064 -0.0185
-8 15 20 -0.7311 0.0016
-8 15 21 1.7775 -0.0126
-8 15 22 2.9841 -0.0241
-8 15 23 0.4560 -0.0077
-8 15 24 -2.6129 -0.0326
-8 15 25 -0.4811 -0.0516
-8 15 26 2.5112 0.0215
-8 16 1 -1.5968 0.1363
-8 16 2 -2.7058 -0.0459
-8 16 3 -2.2132 -0.1009
-8 16 4 0.5228 -0.0425
-8 16 5 0.3570 -0.1101
-8 16 6 0.2172 -0.1169
-8 16 7 3.2670 0.0829
-8 16 8 1.2978 0.0804
-8 16 9 -3.1114 -0.0935
-8 16 10 0.3505 -0.0832
-8 16 11 0.5853 -0.0502
-8 16 12 -4.3412 -0.0493
-8 16 13 -0.3667 0.0042
-8 16 14 2.8405 -0.0025
-8 16 15 -1.8693 -0.0483
-8 16 16 -2.5204 -0.0254
-8 16 17 -0.5280 0.0150
-8 16 18 -1.4913 0.0003
-8 16 19 -0.8983 -0.0098
-8 16 20 0.2651 -0.0279
-8 16 21 -0.7272 -0.0707
-8 16 22 0.8570 -0.0317
-8 16 23 4.1251 0.0427
-8 16 24 2.4532 -0.0257
-8 17 1 0.7520 0.3190
-8 17 2 -0.2725 -0.1103
-8 17 3 -3.9875 -0.1148
-8 17 4 -3.2091 0.0807
-8 17 5 -0.2647 0.0595
-8 17 6 0.6382 -0.0152
-8 17 7 3.2552 0.0024
-8 17 8 2.3950 -0.0058
-8 17 9 -2.8290 0.0232
-8 17 10 -2.3490 0.0284
-8 17 11 0.2623 -0.0902
-8 17 12 1.5269 -0.1053
-8 17 13 3.0724 0.0014
-8 17 14 0.2286 0.0587
-8 17 15 -3.6412 0.0122
-8 17 16 -2.6319 -0.0724
-8 17 17 0.1891 -0.0661
-8 17 18 0.0838 -0.0155
-8 17 19 -2.5643 0.0035
-8 17 20 -2.9413 0.0468
-8 17 21 -0.1281 0.0533
-8 17 22 2.7764 -0.0573
-8 17 23 2.7939 -0.1236
-8 18 1 -0.4221 0.0666
-8 18 2 1.4173 -0.0568
-8 18 3 -2.4538 0.0325
-8 18 4 -2.1800 0.0965
-8 18 5 -0.1733 0.1012
-8 18 6 -1.7894 0.0351
-8 18 7 0.1460 -0.0445
-8 18 8 1.0649 0.0062
-8 18 9 -1.9999 0.0912
-8 18 10 -0.9926 0.0141
-8 18 11 1.6303 -0.0319
-8 18 12 1.6938 0.0594
-8 18 13 -0.2194 0.0502
-8 18 14 -0.7968 -0.0231
-8 18 15 1.4349 -0.0598
-8 18 16 1.5909 -0.0491
-8 18 17 -0.1102 0.0355
-8 18 18 -2.0574 0.0468
-8 18 19 -2.9373 0.0124
-8 18 20 -0.4599 0.0874
-8 18 21 0.2126 0.0522
-8 19 1 0.2728 -0.2229
-8 19 2 3.8776 0.0796
-8 19 3 -0.8476 0.1160
-8 19 4 -1.4574 -0.0308
-8 19 5 0.1762 0.0156
-8 19 6 -2.7729 0.0281
-8 19 7 -1.5184 -0.0398
-8 19 8 1.0325 -0.0240
-8 19 9 -0.9826 0.0087
-8 19 10 -3.1683 0.0553
-8 19 11 -2.4027 0.1536
-8 19 12 -0.1067 0.0705
-8 19 13 0.6531 -0.1117
-8 19 14 3.0126 -0.0533
-8 19 15 3.8207 0.0489
-8 19 16 -1.0113 0.0475
-8 19 17 -1.6759 0.0859
-8 19 18 1.2165 0.0493
-8 19 19 0.2659 -0.0253
-8 20 1 0.1683 -0.1071
-8 20 2 1.0308 0.1289
-8 20 3 -2.2008 -0.0353
-8 20 4 2.0547 -0.1307
-8 20 5 2.9721 -0.0331
-8 20 6 -2.4811 -0.0655
-8 20 7 -1.2371 -0.0500
-8 20 8 -0.3645 0.0333
-8 20 9 -3.9799 -0.0005
-8 20 10 -4.1945 -0.0232
-8 20 11 -0.4937 0.0179
-8 20 12 1.0257 -0.0164
-8 20 13 -0.6713 -0.0161
-8 20 14 0.2990 0.0378
-8 20 15 0.4134 -0.0104
-8 20 16 -0.8764 0.0103
-8 20 17 1.8938 0.1178
-8 21 1 -3.2065 0.1802
-8 21 2 -3.4066 0.0764
-8 21 3 0.1099 -0.2165
-8 21 4 6.4168 -0.1129
-8 21 5 1.4694 0.0040
-8 21 6 -4.7010 -0.0533
-8 21 7 -1.0219 0.0228
-8 21 8 0.3642 0.0212
-8 21 9 -1.3646 -0.1215
-8 21 10 -1.4696 -0.1097
-8 21 11 -0.9789 -0.0130
-8 21 12 -1.4368 -0.0134
-8 21 13 -2.4852 -0.0197
-8 21 14 -1.1011 -0.0100
-8 22 1 1.4787 0.2319
-8 22 2 -0.4536 -0.0504
-8 22 3 -2.0864 -0.1608
-8 22 4 0.6267 0.0927
-8 22 5 -1.1281 0.0832
-8 22 6 -0.2708 -0.0658
-8 22 7 2.5463 -0.0253
-8 22 8 -0.4469 -0.0071
-8 22 9 -2.1789 -0.0433
-8 22 10 -1.3100 -0.0582
-7 -20 1 0.7453 0.2539
-7 -20 2 0.6834 -0.0046
-7 -20 3 0.5198 -0.1241
-7 -20 4 -0.6853 -0.0173
-7 -20 5 -2.1978 0.0982
-7 -20 6 -1.7384 0.0427
-7 -20 7 0.8598 -0.0767
-7 -20 8 1.4388 -0.0266
-7 -20 9 2.8762 0.1090
-7 -20 10 4.3852 0.0029
-7 -20 11 -0.8483 -0.1390
-7 -19 1 0.3930 -0.0263
-7 -19 2 1.2835 0.2428
-7 -19 3 1.7253 0.0517
-7 -19 4 -1.6633 -0.2003
-7 -19 5 -4.1921 0.0347
-7 -19 6 -0.8391 0.1741
-7 -19 7 2.9975 -0.0401
-7 -19 8 -0.3265 -0.0918
-7 -19 9 0.2742 0.0799
-7 -19 10 5.4931 0.0532
-7 -19 11 1.1176 -0.0734
-7 -19 12 -3.3967 0.0116
-7 -19 13 0.1202 0.0550
-7 -19 14 1.5189 -0.0679
-7 -19 15 -0.1150 -0.0207
-7 -18 1 2.4924 -0.3154
-7 -18 2 2.2869 0.3673
-7 -18 3 -0.7966 0.2316
-7 -18 4 -0.5342 -0.2636
-7 -18 5 -0.3510 -0.0970
-7 -18 6 -2.3954 0.1819
-7 -18 7 -1.8690 0.0398
-7 -18 8 -0.5868 -0.1054
-7 -18 9 2.6278 0.0314
-7 -18 10 3.1140 0.0918
-7 -18 11 -1.7780 -0.0720
-7 -18 12 -0.4261 -0.0672
-7 -18 13 3.3842 0.0965
-7 -18 14 -0.2848 0.0266
-7 -18 15 -3.4766 -0.0586
-7 -18 16 -1.3823 0.0752
-7 -18 17 -0.0768 0.0950
-7 -18 18 0.8402 -0.0082
-7 -17 1 1.7328 -0.3236
-7 -17 2 0.5309 0.1544
-7 -17 3 -0.4024 0.1548
-7 -17 4 0.9652 -0.1044
-7 -17 5 -1.2891 -0.1065
-7 -17 6 -3.3641 0.0262
-7 -17 7 -0.3681 0.0813
-7 -17 8 0.8070 -0.0147
-7 -17 9 0.8710 -0.0605
-7 -17 10 0.0069 0.0373
-7 -17 11 -1.6740 0.0214
-7 -17 12 -0.3732 -0.0500
-7 -17 13 0.1503 0.0188
-7 -17 14 -0.7883 0.0292
-7 -17 15 0.0149 -0.0057
-7 -17 16 0.0148 0.0180
-7 -17 17 -1.9324 0.0126
-7 -17 18 -1.7330 0.0649
-7 -17 19 -0.1464 0.0333
-7 -17 20 0.2229 -0.0971
-7 -17 21 -0.4694 0.0012
-7 -16 1 0.1571 -0.0433
-7 -16 2 -1.5434 -0.3177
-7 -16 3 -2.5560 -0.0870
-7 -16 4 2.2275 0.1894
-7 -16 5 3.1090 -0.0152
-7 -16 6 -0.9707 -0.1588
-7 -16 7 -1.6386 0.0459
-7 -16 8 1.4146 0.0701
-7 -16 9 2.8583 -0.0500
-7 -16 10 -2.2103 0.0188
-7 -16 11 -5.8259 0.0283
-7 -16 13 3.5386 -0.0053
-7 -16 14 3.8580 0.0220
-7 -16 15 -2.3790 -0.0057
-7 -16 16 -6.1868 -0.0027
-7 -16 17 -1.4069 -0.0044
-7 -16 18 2.5940 0.0581
-7 -16 19 1.1087 0.0355
-7 -16 20 0.4457 -0.0599
-7 -16 21 -1.3909 0.0127
-7 -16 22 -4.6391 0.0342
-7 -16 23 -2.1865 -0.0961
-7 -15 1 -1.0459 0.2214
-7 -15 2 -2.9242 -0.4155
-7 -15 3 -0.2445 -0.2068
-7 -15 4 4.3285 0.2504
-7 -15 5 1.8135 0.1043
-7 -15 6 -0.9397 -0.1533
-7 -15 7 1.3207 -0.0661
-7 -15 8 3.0977 0.0641
-7 -15 9 0.5618 0.0299
-7 -15 10 -2.9142 -0.0151
-7 -15 11 -1.0061 -0.0076
-7 -15 12 1.5288 0.0076
-7 -15 13 1.5061 -0.0031
-7 -15 14 -0.1364 -0.0405
-7 -15 15 -4.4334 -0.0005
-7 -15 16 -2.5334 0.0289
-7 -15 17 4.4196 -0.0102
-7 -15 18 1.5685 0.0179
-7 -15 19 -3.4254 0.0087
-7 -15 20 1.0926 -0.0426
-7 -15 21 1.6879 0.0201
-7 -15 22 -3.1577 0.0332
-7 -15 23 -2.6119 -0.0471
-7 -15 24 -0.9366 -0.0347
-7 -14 1 -2.7036 0.2464
-7 -14 2 -1.9886 -0.0086
-7 -14 3 1.3444 -0.0485
-7 -14 4 1.9236 0.0419
-7 -14 5 -0.8084 0.0812
-7 -14 6 0.2162 0.0095
-7 -14 7 3.0616 -0.0998
-7 -14 8 3.8456 -0.0393
-7 -14 9 1.4686 0.0542
-7 -14 10 -0.8798 0.0230
-7 -14 11 0.0101 -0.0141
-7 -14 12 -0.3352 -0.0020
-7 -14 13 0.6908 0.0059
-7 -14 14 1.9597 -0.0052
-7 -14 15 -2.4425 0.0001
-7 -14 16 -1.6713 0.0114
-7 -14 17 4.5912 -0.0005
-7 -14 18 1.2389 -0.0423
-7 -14 19 -3.1940 -0.0616
-7 -14 20 0.8034 0.0144
-7 -14 21 1.5152 0.0875
-7 -14 22 -0.2074 0.0273
-7 -14 23 -0.0690 -0.0301
-7 -14 24 -1.4411 0.0186
-7 -14 25 0.3676 -0.0370
-7 -14 26 2.1747 -0.0879
-7 -13 1 -0.2178 0.0415
-7 -13 2 -1.5924 0.4495
-7 -13 3 -1.0144 0.1452
-7 -13 4 -0.7322 -0.2571
-7 -13 5 0.0812 -0.0122
-7 -13 6 2.7041 0.1988
-7 -13 7 3.3636 -0.0371
-7 -13 8 2.8144 -0.1066
-7 -13 9 -0.0419 0.0249
-7 -13 10 -2.2810 0.0362
-7 -13 11 -0.3606 0.0051
-7 -13 12 0.7881 -0.0049
-7 -13 13 1.9921 -0.0023
-7 -13 14 1.0306 0.0230
-7 -13 15 -3.6296 0.0064
-7 -13 16 0.0120 -0.0286
-7 -13 17 6.3941 -0.0223
-7 -13 18 0.4926 -0.0185
-7 -13 19 -4.3142 -0.0067
-7 -13 20 0.4196 0.0059
-7 -13 21 1.8865 0.0045
-7 -13 22 0.2343 0.0287
-7 -13 23 -0.0900 0.0312
-7 -13 24 -0.0610 0.0052
-7 -13 25 0.4999 -0.0305
-7 -13 26 -0.1300 -0.0104
-7 -13 27 0.4092 0.1424
-7 -12 1 -1.4163 -0.1878
-7 -12 2 -2.9535 0.3395
-7 -12 3 0.4245 0.1068
-7 -12 4 2.9648 -0.2832
-7 -12 5 2.2436 -0.0507
-7 -12 6 -0.2572 0.2072
-7 -12 7 -0.8694 0.0751
-7 -12 8 1.9357 -0.0567
-7 -12 9 1.3369 -0.0564
-7 -12 10 -0.0791 0.0063
-7 -12 11 -0.0104 0.0533
-7 -12 12 -3.0470 -0.0163
-7 -12 13 -2.6991 -0.0435
-7 -12 14 0.5270 0.0388
-7 -12 15 -0.1094 0.0271
-7 -12 16 1.7788 -0.0311
-7 -12 17 3.0088 -0.0142
-7 -12 18 -2.3110 0.0065
-7 -12 19 -2.1025 0.0292
-7 -12 20 2.3843 0.0021
-7 -12 21 -0.1231 -0.0598
-7 -12 22 -3.4344 -0.0130
-7 -12 23 -1.1308 0.0403
-7 -12 24 2.2762 0.0217
-7 -12 25 1.1506 0.0009
-7 -12 26 -1.8418 -0.0001
-7 -12 27 -1.2147 0.1059
-7 -12 28 1.5673 0.1913
-7 -11 1 -0.1458 -0.2550
-7 -11 2 0.6073 -0.1954
-7 -11 3 1.5166 -0.0520
-7 -11 4 -0.0942 0.0096
-7 -11 5 -0.5279 -0.0037
-7 -11 6 0.7665 -0.0032
-7 -11 7 1.6341 0.0524
-7 -11 8 1.4655 0.0416
-7 -11 9 0.5692 -0.0476
-7 -11 10 1.6704 -0.0380
-7 -11 11 -1.3548 0.0266
-7 -11 12 -7.3453 0.0004
-7 -11 13 -2.5283 -0.0237
-7 -11 14 3.6879 0.0192
-7 -11 15 -0.5009 0.0268
-7 -11 16 -2.7453 -0.0025
-7 -11 17 -1.5841 -0.0228
-7 -11 18 -1.3382 -0.0022
-7 -11 19 3.2575 0.0630
-7 -11 20 4.2924 0.0155
-7 -11 21 -3.2662 -0.0794
-7 -11 22 -6.8182 -0.0009
-7 -11 23 -0.8839 0.0611
-7 -11 24 3.1722 -0.0159
-7 -11 25 -1.9159 -0.0239
-7 -11 26 -5.6159 0.0194
-7 -11 27 -1.7001 0.0385
-7 -11 28 4.0687 0.0780
-7 -11 29 5.2554 0.0491
-7 -10 1 0.1950 -0.0950
-7 -10 2 -1.4558 -0.4382
-7 -10 3 -2.0798 -0.0282
-7 -10 4 -0.4075 0.2837
-7 -10 5 2.3902 -0.0331
-7 -10 6 2.4730 -0.2462
-7 -10 7 0.1986 -0.0320
-7 -10 8 -2.2788 0.1073
-7 -10 9 -1.2028 0.0219
-7 -10 10 4.1333 -0.0603
-7 -10 11 1.6670 -0.0408
-7 -10 12 -6.1195 0.0341
-7 -10 13 -3.0909 0.0369
-7 -10 14 1.3855 -0.0263
-7 -10 15 -1.8590 -0.0306
-7 -10 16 -2.8676 0.0083
-7 -10 17 -2.4005 0.0089
-7 -10 18 -0.8194 -0.0015
-7 -10 19 4.3850 0.0323
-7 -10 20 4.3815 0.0391
-7 -10 21 -1.6878 -0.0170
-7 -10 22 -4.2854 -0.0150
-7 -10 23 -1.4782 0.0330
-7 -10 24 -1.9578 0.0142
-7 -10 25 -5.0857 -0.0191
-7 -10 26 -1.9456 -0.0357
-7 -10 27 1.9587 -0.0344
-7 -10 28 1.6798 0.0573
-7 -10 29 0.0307 0.0840
-7 -10 30 -1.5924 -0.0304
-7 -9 1 -2.9700 0.2036
-7 -9 2 -1.2455 -0.0748
-7 -9 3 0.6259 0.0930
-7 -9 4 0.2549 0.1879
-7 -9 5 -0.2281 -0.0739
-7 -9 6 0.7534 -0.1899
-7 -9 7 -0.2592 -0.0665
-7 -9 8 -3.9451 0.0426
-7 -9 9 -1.6465 0.0847
-7 -9 10 4.9820 -0.0022
-7 -9 11 1.2305 -0.0782
-7 -9 12 -4.8500 0.0089
-7 -9 13 0.1591 0.0180
-7 -9 14 1.4963 -0.0584
-7 -9 15 -4.0011 -0.0162
-7 -9 16 -3.8085 0.0405
-7 -9 17 -1.3440 0.0204
-7 -9 18 1.0872 -0.0282
-7 -9 19 4.2146 -0.0244
-7 -9 20 3.6871 0.0507
-7 -9 21 -0.8403 0.0333
-7 -9 22 -3.0905 -0.0329
-7 -9 23 -0.1769 0.0176
-7 -9 24 -0.5968 0.0215
-7 -9 25 -3.0328 -0.0384
-7 -9 26 -1.4095 0.0031
-7 -9 27 -0.9061 0.0089
-7 -9 28 -0.7488 -0.0175
-7 -9 29 0.3078 0.0088
-7 -9 30 0.3348 -0.0483
-7 -9 31 0.6331 -0.0198
-7 -8 1 2.2849 0.2716
-7 -8 2 5.4829 0.2978
-7 -8 3 -1.0471 0.0770
-7 -8 4 -4.1819 -0.0860
-7 -8 5 -0.0320 0.0075
-7 -8 6 1.9144 0.1102
-7 -8 7 -1.6537 -0.0183
-7 -8 8 -3.5907 -0.0774
-7 -8 9 -0.1616 0.0751
-7 -8 10 2.3745 0.0668
-7 -8 11 -1.0950 -0.0645
-7 -8 12 -2.2722 -0.0485
-7 -8 13 1.3249 -0.0131
-7 -8 14 0.1937 0.0008
-7 -8 15 -2.1804 0.0177
-7 -8 16 -1.4271 -0.0050
-7 -8 17 -0.4825 0.0174
-7 -8 18 0.3319 -0.0037
-7 -8 19 0.1311 -0.0625
-7 -8 20 1.9913 0.0199
-7 -8 21 3.7219 0.0444
-7 -8 22 1.8574 -0.0478
-7 -8 23 -0.8793 0.0017
-7 -8 24 -4.0185 0.0430
-7 -8 25 -2.1817 -0.0180
-7 -8 26 2.0032 0.0047
-7 -8 27 0.5626 -0.0259
-7 -8 28 -1.7857 -0.0530
-7 -8 29 -1.2254 0.0533
-7 -8 30 0.9700 -0.0182
-7 -8 31 1.1028 -0.0893
-7 -7 1 5.9529 -0.0131
-7 -7 2 3.4556 0.2060
-7 -7 3 -4.1071 -0.0855
-7 -7 4 -2.5983 -0.1892
-7 -7 5 2.9035 0.1345
-7 -7 6 2.3613 0.2600
-7 -7 7 -1.2873 0.0289
-7 -7 8 -1.7271 -0.1030
-7 -7 9 -0.8889 -0.0130
-7 -7 10 -1.5115 0.0528
-7 -7 11 -2.1984 0.0436
-7 -7 12 1.1408 -0.0071
-7 -7 13 4.1584 -0.0456
-7 -7 14 -0.1696 0.0218
-7 -7 15 -5.4238 0.0322
-7 -7 16 -3.5427 -0.0361
-7 -7 17 3.9249 0.0047
-7 -7 18 4.1841 0.0124
-7 -7 19 -1.8359 -0.0598
-7 -7 20 0.6821 -0.0121
-7 -7 21 2.5041 0.0444
-7 -7 22 -1.3926 0.0007
-7 -7 23 -0.9521 0.0029
-7 -7 24 0.7263 -0.0109
-7 -7 25 1.2192 -0.0541
-7 -7 26 0.7470 0.0118
-7 -7 27 -1.8584 0.0062
-7 -7 28 -4.0336 -0.0456
-7 -7 29 -0.4028 0.0318
-7 -7 30 5.1543 -0.0094
-7 -7 31 1.2542 -0.0757
-7 -7 32 -2.8752 0.1015
-7 -6 1 4.3899 -0.2526
-7 -6 2 2.3216 -0.1864
-7 -6 3 -3.8062 -0.1998
-7 -6 4 -1.2416 -0.0306
-7 -6 5 4.5893 0.1091
-7 -6 6 1.6371 0.0522
-7 -6 7 -3.5226 0.0126
-7 -6 8 -1.2142 -0.0226
-7 -6 9 1.6281 -0.0819
-7 -6 10 0.1660 0.0090
-7 -6 11 -0.8464 0.1291
-7 -6 12 0.4484 0.0465
-7 -6 13 -0.8528 -0.0386
-7 -6 14 -2.4914 0.0153
-7 -6 15 -0.7435 0.0068
-7 -6 16 1.8886 -0.0414
-7 -6 17 4.4279 -0.0085
-7 -6 18 -0.0680 0.0235
-7 -6 19 -4.5269 -0.0041
-7 -6 20 0.9826 -0.0218
-7 -6 21 2.7180 0.0172
-7 -6 22 0.8685 0.0252
-7 -6 23 1.2079 -0.0054
-7 -6 24 -1.9677 -0.0297
-7 -6 25 -3.0633 -0.0385
-7 -6 26 1.4984 0.0117
-7 -6 27 1.3002 0.0096
-7 -6 28 -4.5616 -0.0487
-7 -6 29 -0.2091 0.0028
-7 -6 30 6.1772 0.0358
-7 -6 31 -1.0417 -0.0329
-7 -6 32 -3.6048 0.0236
-7 -5 1 3.5811 -0.0706
-7 -5 2 -0.9579 -0.2354
-7 -5 3 -4.4028 -0.1101
-7 -5 4 -0.4012 0.0872
-7 -5 5 2.5728 -0.0717
-7 -5 6 -1.0871 -0.2133
-7 -5 7 -1.8865 -0.0264
-7 -5 8 1.6970 0.0640
-7 -5 9 1.7971 -0.0588
-7 -5 10 -0.7391 -0.0444
-7 -5 11 -2.1054 0.0650
-7 -5 12 -1.5974 0.0533
-7 -5 13 0.0482 0.0041
-7 -5 14 2.4166 -0.0145
-7 -5 15 -0.1374 0.0009
-7 -5 16 -2.6616 0.0162
-7 -5 17 2.1774 -0.0269
-7 -5 18 0.9509 0.0106
-7 -5 19 -1.6216 0.0483
-7 -5 20 3.0305 -0.0391
-7 -5 21 1.5101 -0.0298
-7 -5 22 -2.2413 0.0320
-7 -5 23 -0.0729 0.0141
-7 -5 24 0.5818 0.0003
-7 -5 25 -1.9317 -0.0217
-7 -5 26 -0.3588 -0.0190
-7 -5 27 0.2294 0.0213
-7 -5 28 -3.7003 0.0023
-7 -5 29 1.0245 -0.0154
-7 -5 30 4.4501 0.0116
-7 -5 31 -1.2170 -0.0355
-7 -5 32 0.1070 -0.0222
-7 -5 33 2.3593 0.1744
-7 -4 1 1.0385 0.2928
-7 -4 2 -2.5424 0.1044
-7 -4 3 -2.3430 0.1118
-7 -4 4 -1.5018 0.0370
-7 -4 5 -1.1309 -0.1890
-7 -4 6 -0.4002 -0.1777
-7 -4 7 0.8724 -0.0024
-7 -4 8 -0.1699 0.0437
-7 -4 9 -0.7529 0.0000
-7 -4 10 0.2229 -0.0475
-7 -4 11 -0.4417 -0.0752
-7 -4 12 -1.5572 -0.0075
-7 -4 13 -0.9236 0.0546
-7 -4 14 1.3541 -0.0094
-7 -4 15 -0.5060 -0.0026
-7 -4 16 -1.3852 0.0494
-7 -4 17 1.7357 -0.0160
-7 -4 18 -0.5469 -0.0032
-7 -4 19 -0.5379 0.0289
-7 -4 20 2.5454 -0.0270
-7 -4 21 0.2287 -0.0043
-7 -4 22 -0.1483 0.0082
-7 -4 23 2.3217 -0.0168
-7 -4 24 -0.9131 0.0206
-7 -4 25 -5.3984 0.0215
-7 -4 26 -0.0078 -0.0078
-7 -4 27 2.6313 0.0157
-7 -4 28 -2.6468 -0.0009
-7 -4 29 0.2219 -0.0452
-7 -4 30 2.0590 0.0187
-7 -4 31 0.2840 0.0365
-7 -4 32 2.9448 -0.0352
-7 -4 33 1.2194 0.0594
-7 -3 1 0.9284 0.2364
-7 -3 2 1.0090 0.3353
-7 -3 3 1.3099 0.2352
-7 -3 4 -2.5404 -0.0838
-7 -3 5 -4.6409 -0.0738
-7 -3 6 0.0855 0.1243
-7 -3 7 3.1990 0.0348
-7 -3 8 -1.8903 -0.0409
-7 -3 9 -2.8659 0.0591
-7 -3 10 2.3603 -0.0063
-7 -3 11 2.3527 -0.1329
-7 -3 12 -3.5470 -0.0404
-7 -3 13 -4.0595 0.0538
-7 -3 14 2.1989 -0.0096
-7 -3 15 1.5281 -0.0048
-7 -3 16 -1.3773 0.0329
-7 -3 17 -0.0176 -0.0078
-7 -3 18 -1.2924 0.0009
-7 -3 19 -1.3477 0.0177
-7 -3 20 2.2061 0.0111
-7 -3 21 4.3957 0.0103
-7 -3 22 0.9283 -0.0153
-7 -3 23 -2.8559 -0.0150
-7 -3 24 -1.7193 0.0085
-7 -3 25 -0.4363 0.0134
-7 -3 26 0.7258 -0.0091
-7 -3 27 -1.4011 -0.0035
-7 -3 28 -1.5937 0.0329
-7 -3 29 2.6788 0.0158
-7 -3 30 0.1199 0.0129
-7 -3 31 0.1182 -0.0024
-7 -3 32 2.7900 -0.0790
-7 -3 33 -0.2190 0.0085
-7 -2 1 1.4470 -0.2878
-7 -2 2 2.1966 0.0275
-7 -2 3 5.1674 0.1058
-7 -2 4 -0.7513 -0.0053
-7 -2 5 -7.3916 0.1801
-7 -2 6 -0.9070 0.2368
-7 -2 7 5.2346 -0.0242
-7 -2 8 -1.0194 -0.0623
-7 -2 9 -3.3646 0.0835
-7 -2 10 1.8993 0.0536
-7 -2 11 1.7432 -0.0411
-7 -2 12 -3.5952 -0.0409
-7 -2 13 -1.8586 -0.0014
-7 -2 14 2.7535 0.0096
-7 -2 15 -0.5621 -0.0125
-7 -2 16 -1.7739 -0.0231
-7 -2 17 0.5650 0.0166
-7 -2 18 -0.2222 0.0169
-7 -2 19 -0.5528 -0.0063
-7 -2 20 1.5622 0.0349
-7 -2 21 3.0023 0.0217
-7 -2 22 -0.3323 -0.0135
-7 -2 23 -0.8640 -0.0184
-7 -2 24 1.3133 -0.0356
-7 -2 25 -0.5951 0.0157
-7 -2 26 -1.3839 0.0355
-7 -2 27 -1.4227 0.0038
-7 -2 28 1.3084 0.0253
-7 -2 29 2.5193 0.0015
-7 -2 30 -1.4573 -0.0204
-7 -2 31 -0.1830 -0.0003
-7 -2 32 -0.4713 -0.0440
-7 -2 33 -1.1568 -0.0110
-7 -2 34 3.2745 0.1128
-7 -1 1 -0.5529 -0.5913
-7 -1 2 7.1572 -0.3358
-7 -1 3 10.9966 -0.0678
-7 -1 4 -1.5865 0.1242
-7 -1 5 -11.3386 0.1645
-7 -1 6 0.5736 -0.0204
-7 -1 7 9.4613 -0.0738
-7 -1 8 -1.3453 0.0447
-7 -1 9 -7.3861 0.0486
-7 -1 10 0.9404 0.0397
-7 -1 11 4.3757 0.0626
-7 -1 12 -2.2060 -0.0086
-7 -1 13 -2.7450 -0.0338
-7 -1 14 1.0190 0.0143
-7 -1 15 0.6642 -0.0152
-7 -1 16 1.1771 -0.0222
-7 -1 17 0.9872 0.0352
-7 -1 18 -0.4075 -0.0073
-7 -1 19 -1.8334 -0.0258
-7 -1 20 -0.2990 0.0224
-7 -1 21 4.3826 -0.0081
-7 -1 22 3.0442 0.0111
-7 -1 23 -0.6331 0.0264
-7 -1 24 -1.5199 -0.0249
-7 -1 25 0.4922 0.0047
-7 -1 26 1.4049 0.0103
-7 -1 27 -1.5520 -0.0111
-7 -1 28 1.1459 0.0208
-7 -1 29 2.1748 -0.0005
-7 -1 30 -0.9750 -0.0298
-7 -1 31 0.0904 -0.0087
-7 -1 32 -2.0452 0.0005
-7 -1 33 -0.8679 0.0253
-7 -1 34 2.8178 0.0238
-7 0 1 0.3146 -0.0465
-7 0 2 3.7393 -0.2471
-7 0 3 7.9648 -0.2188
-7 0 4 1.3495 0.0388
-7 0 5 -5.1227 -0.0864
-7 0 6 2.8976 -0.2425
-7 0 7 6.6345 0.0248
-7 0 8 -3.9460 0.1205
-7 0 9 -6.9637 -0.0806
-7 0 10 2.1487 -0.0312
-7 0 11 2.8960 0.0971
-7 0 12 -3.2385 0.0109
-7 0 13 -0.2531 -0.0399
-7 0 14 2.5223 0.0066
-7 0 15 0.0138 0.0043
-7 0 16 -0.4824 0.0144
-7 0 17 0.3375 0.0247
-7 0 18 2.2725 -0.0286
-7 0 19 1.5750 -0.0237
-7 0 20 0.5152 -0.0103
-7 0 21 1.0972 -0.0193
-7 0 22 0.5060 0.0407
-7 0 23 1.2985 0.0341
-7 0 24 1.0672 -0.0210
-7 0 25 1.3675 -0.0166
-7 0 26 0.2769 -0.0079
-7 0 27 -1.5319 0.0071
-7 0 28 1.8922 0.0037
-7 0 29 1.1163 -0.0169
-7 0 30 0.8240 -0.0085
-7 0 31 2.3607 0.0038
-7 0 32 -3.7454 0.0188
-7 0 33 -3.0939 0.0030
-7 0 34 2.1828 -0.0797
-7 1 1 -6.8083 0.6888
-7 1 2 1.7531 0.0844
-7 1 3 14.1236 -0.2153
-7 1 4 6.9140 -0.0906
-7 1 5 -6.9760 -0.1662
-7 1 6 -1.1338 -0.1250
-7 1 7 7.9518 0.1016
-7 1 8 0.1712 0.0273
-7 1 9 -6.3082 -0.1187
-7 1 10 0.2129 -0.0366
-7 1 11 2.2276 0.0138
-7 1 12 -1.8545 -0.0150
-7 1 13 -1.5637 -0.0083
-7 1 14 -0.8845 0.0025
-7 1 15 1.5014 0.0203
-7 1 16 3.0638 0.0293
-7 1 17 0.7681 -0.0072
-7 1 18 0.6501 -0.0104
-7 1 19 1.1345 0.0102
-7 1 20 1.4548 -0.0311
-7 1 21 0.9963 -0.0217
-7 1 22 1.5399 0.0191
-7 1 23 1.4683 0.0017
-7 1 24 -1.9047 0.0127
-7 1 25 0.8055 0.0056
-7 1 26 3.2865 -0.0180
-7 1 27 1.2028 -0.0046
-7 1 28 0.3418 0.0022
-7 1 29 -2.3294 0.0161
-7 1 30 0.1609 -0.0083
-7 1 31 2.2617 -0.0487
-7 1 32 -2.6155 -0.0126
-7 1 33 -0.8972 0.0012
-7 1 34 2.2523 -0.0397
-7 2 1 -1.1438 0.6145
-7 2 2 1.7116 0.2531
-7 2 3 6.0153 0.0069
-7 2 4 3.0277 -0.0315
-7 2 5 -0.7594 0.0312
-7 2 6 4.1576 0.1140
-7 2 7 6.3208 0.0091
-7 2 8 -1.6844 -0.0856
-7 2 9 -4.9635 0.0172
-7 2 10 0.9947 0.0108
-7 2 11 1.5810 -0.0878
-7 2 12 -1.7567 -0.0213
-7 2 13 -1.8822 0.0414
-7 2 14 -0.6560 0.0118
-7 2 15 1.5412 0.0128
-7 2 16 0.5579 -0.0073
-7 2 17 -0.3763 -0.0370
-7 2 18 1.4326 0.0170
-7 2 19 2.5697 0.0243
-7 2 20 2.1866 -0.0284
-7 2 21 -1.9360 -0.0038
-7 2 22 -1.6316 -0.0004
-7 2 23 2.0362 -0.0009
-7 2 24 2.0043 0.0329
-7 2 25 2.4511 -0.0072
-7 2 26 -0.4233 -0.0195
-7 2 27 -1.5934 0.0157
-7 2 28 0.5423 0.0170
-7 2 29 -1.5290 0.0042
-7 2 30 0.0023 -0.0191
-7 2 31 1.3450 -0.0223
-7 2 32 -2.1394 -0.0216
-7 2 33 -2.2869 -0.0171
-7 2 34 -0.6987 0.0385
-7 3 1 -2.9110 -0.2353
-7 3 2 -5.5297 0.2010
-7 3 3 4.3965 0.2752
-7 3 4 10.6153 0.0307
-7 3 5 2.0130 0.1483
-7 3 6 -4.0479 0.2186
-7 3 7 2.1856 -0.0704
-7 3 8 4.8420 -0.0947
-7 3 9 -0.8015 0.1006
-7 3 10 -2.3131 0.0315
-7 3 11 0.6636 -0.0477
-7 3 12 1.2057 0.0369
-7 3 13 -1.9043 0.0455
-7 3 14 -2.5484 0.0003
-7 3 15 -0.2235 -0.0086
-7 3 16 0.5396 -0.0357
-7 3 17 1.4844 -0.0432
-7 3 18 -0.1924 0.0042
-7 3 19 -0.8770 0.0183
-7 3 20 -0.0526 0.0254
-7 3 21 -2.4392 0.0338
-7 3 22 1.5857 -0.0241
-7 3 23 4.1035 -0.0378
-7 3 24 -1.8863 0.0002
-7 3 25 -3.4299 0.0181
-7 3 26 -0.6360 0.0268
-7 3 27 2.7372 0.0108
-7 3 28 1.8851 0.0055
-7 3 29 -2.0624 -0.0008
-7 3 30 -1.3111 0.0237
-7 3 31 -1.8410 0.0531
-7 3 32 -3.4674 -0.0373
-7 3 33 -1.8349 -0.0590
-7 3 34 -0.4909 0.0667
-7 4 1 1.1410 -0.8090
-7 4 2 -0.1900 0.0147
-7 4 3 2.5432 0.2526
-7 4 4 3.8009 0.0076
-7 4 5 -0.9430 0.0632
-7 4 6 -1.8227 0.0572
-7 4 7 5.1725 -0.0723
-7 4 8 5.0423 0.0137
-7 4 9 -3.2971 0.0502
-7 4 10 -2.6452 -0.0028
-7 4 11 4.2818 0.0653
-7 4 12 1.7598 0.0685
-7 4 13 -4.4673 -0.0105
-7 4 14 -0.9649 -0.0298
-7 4 15 2.0253 -0.0294
-7 4 16 -0.9557 -0.0038
-7 4 17 -1.6402 0.0250
-7 4 18 -1.3472 -0.0018
-7 4 19 1.3470 -0.0200
-7 4 20 0.2150 0.0137
-7 4 21 -4.6381 0.0117
-7 4 22 -0.3724 -0.0187
-7 4 23 1.6925 -0.0177
-7 4 24 -1.6664 -0.0086
-7 4 25 -1.2422 0.0225
-7 4 26 -1.7580 0.0237
-7 4 27 -1.0605 0.0134
-7 4 28 2.1168 0.0177
-7 4 29 2.6771 -0.0157
-7 4 30 -1.5618 0.0507
-7 4 31 -6.3776 0.0832
-7 4 32 -3.3825 -0.0518
-7 4 33 0.9081 -0.0150
-7 5 1 4.7927 -0.4101
-7 5 2 -5.3425 -0.1201
-7 5 3 -3.4565 -0.0271
-7 5 4 5.6943 -0.0734
-7 5 5 2.9360 -0.1406
-7 5 6 -4.6491 -0.1584
-7 5 7 1.5962 0.0472
-7 5 8 7.7339 0.1324
-7 5 9 -0.4225 -0.0631
-7 5 10 -4.2216 -0.0553
-7 5 11 2.6712 0.0707
-7 5 12 2.3049 -0.0104
-7 5 13 -1.7253 -0.0453
-7 5 14 1.5441 0.0058
-7 5 15 0.5937 0.0046
-7 5 16 -2.9678 0.0301
-7 5 17 -1.2568 0.0228
-7 5 18 1.0260 -0.0345
-7 5 19 2.9607 -0.0217
-7 5 20 -1.8490 -0.0011
-7 5 21 -6.1430 -0.0229
-7 5 22 0.3164 0.0040
-7 5 23 2.3284 0.0182
-7 5 24 -2.1399 0.0058
-7 5 25 -3.8372 0.0177
-7 5 26 -1.5261 -0.0208
-7 5 27 2.8860 -0.0123
-7 5 28 1.7383 0.0267
-7 5 29 -2.7172 0.0075
-7 5 30 -3.7954 0.0320
-7 5 31 -2.1992 -0.0012
-7 5 32 0.6576 0.0084
-7 5 33 0.9662 0.1740
-7 6 1 -1.1604 0.4569
-7 6 2 -2.9365 -0.1852
-7 6 3 1.8178 -0.3290
-7 6 4 2.9028 -0.0470
-7 6 5 -2.5256 -0.0818
-7 6 6 -4.0478 -0.1466
-7 6 7 4.6369 0.0653
-7 6 8 7.2242 0.0824
-7 6 9 -2.7495 -0.0673
-7 6 10 -3.8712 -0.0304
-7 6 11 5.6185 -0.0327
-7 6 12 3.9454 -0.0850
-7 6 13 -3.0796 0.0180
-7 6 14 -1.4017 0.0592
-7 6 15 0.7052 -0.0102
-7 6 16 1.1442 -0.0288
-7 6 17 0.8318 -0.0211
-7 6 18 0.1340 0.0029
-7 6 19 1.1735 0.0206
-7 6 20 -2.0072 -0.0273
-7 6 21 -2.8444 -0.0349
-7 6 22 1.3231 0.0315
-7 6 23 0.3800 0.0299
-7 6 24 -1.5006 0.0017
-7 6 25 -0.5546 -0.0155
-7 6 26 0.7899 -0.0326
-7 6 27 -0.1508 0.0146
-7 6 28 -3.3023 0.0060
-7 6 29 -1.6062 -0.0123
-7 6 30 0.6018 0.0165
-7 6 31 -2.1279 -0.0385
-7 6 32 -1.9222 0.0540
-7 6 33 1.3055 0.2125
-7 7 1 1.9642 0.6456
-7 7 2 1.9246 -0.1170
-7 7 3 -0.5803 -0.1983
-7 7 4 -2.2719 0.0978
-7 7 5 -0.8068 0.0861
-7 7 6 -1.1262 0.0131
-7 7 7 0.5174 -0.0144
-7 7 8 3.8262 -0.0668
-7 7 9 1.9988 0.0133
-7 7 10 0.4002 0.0620
-7 7 11 1.7433 -0.0553
-7 7 12 -0.8574 -0.0469
-7 7 13 -1.5745 0.0486
-7 7 14 1.9905 0.0241
-7 7 15 1.4705 -0.0183
-7 7 16 -0.1767 -0.0435
-7 7 17 -0.4182 -0.0392
-7 7 18 -0.2964 0.0231
-7 7 19 -0.0718 0.0296
-7 7 20 -0.5797 -0.0118
-7 7 21 0.8629 -0.0016
-7 7 22 0.9853 -0.0023
-7 7 23 -0.2796 -0.0158
-7 7 24 -0.2796 0.0229
-7 7 25 -1.5391 0.0154
-7 7 26 0.6132 -0.0072
-7 7 27 3.1804 -0.0110
-7 7 28 -0.4733 -0.0372
-7 7 29 -2.9052 0.0459
-7 7 30 -2.6938 0.0333
-7 7 31 -3.0610 -0.1383
-7 7 32 -1.1336 -0.0016
-7 8 1 -1.6675 0.0255
-7 8 2 3.0162 0.0839
-7 8 3 2.6802 0.2051
-7 8 4 -1.9479 0.1327
-7 8 5 -2.3495 0.0902
-7 8 6 -1.2618 0.0898
-7 8 7 0.5964 -0.0738
-7 8 8 2.8578 -0.1057
-7 8 9 1.3391 0.0683
-7 8 10 -0.7793 0.0768
-7 8 11 0.3411 0.0216
-7 8 12 0.9926 0.0653
-7 8 13 0.8923 0.0045
-7 8 14 0.2178 -0.0450
-7 8 15 -1.2688 0.0171
-7 8 16 -0.8910 0.0065
-7 8 17 -0.3597 -0.0057
-7 8 18 -0.3782 0.0155
-7 8 19 0.2219 -0.0231
-7 8 20 0.7699 -0.0077
-7 8 21 -0.4507 0.0395
-7 8 22 -2.0623 -0.0107
-7 8 23 0.4346 -0.0134
-7 8 24 0.6954 0.0281
-7 8 25 -1.8213 -0.0152
-7 8 26 2.3727 0.0040
-7 8 27 4.2576 0.0254
-7 8 28 -0.6832 -0.0165
-7 8 29 -1.7766 0.0345
-7 8 30 -2.3625 -0.0197
-7 8 31 -5.3287 -0.1324
-7 8 32 -2.6333 0.0315
-7 9 1 0.3180 -0.5027
-7 9 2 4.9544 0.2006
-7 9 3 1.3306 0.3100
-7 9 4 -2.1393 -0.0276
-7 9 5 0.6579 -0.0399
-7 9 6 1.5758 0.0353
-7 9 7 -1.8899 -0.0461
-7 9 8 -2.5621 -0.0191
-7 9 9 0.7703 0.0306
-7 9 10 2.3846 -0.0060
-7 9 11 1.0884 0.0649
-7 9 12 -0.5253 0.0916
-7 9 13 -0.6572 -0.0416
-7 9 14 -0.3097 -0.0426
-7 9 15 -1.1133 0.0488
-7 9 16 -1.7297 0.0415
-7 9 17 -0.1729 0.0222
-7 9 18 1.1354 -0.0112
-7 9 19 -0.4608 -0.0475
-7 9 20 -1.6492 0.0200
-7 9 21 -2.1570 0.0491
-7 9 22 -1.8214 -0.0242
-7 9 23 1.2478 -0.0131
-7 9 24 1.1339 0.0025
-7 9 25 -0.6813 -0.0230
-7 9 26 0.6106 0.0445
-7 9 27 0.1885 0.0269
-7 9 28 0.1351 -0.0507
-7 9 29 1.5648 0.0251
-7 9 30 -1.4992 0.0289
-7 9 31 -4.2176 -0.0740
-7 10 1 -2.3731 -0.2863
-7 10 2 -0.3237 0.1051
-7 10 3 1.2214 -0.0491
-7 10 4 2.8384 -0.1965
-7 10 5 2.1950 -0.0665
-7 10 6 -0.9987 -0.0167
-7 10 7 -3.5111 0.0153
-7 10 8 -0.9661 0.0467
-7 10 9 3.0101 -0.0630
-7 10 10 0.5476 -0.0883
-7 10 11 -2.8610 0.0224
-7 10 12 -0.7037 0.0097
-7 10 13 1.4195 -0.0372
-7 10 14 -0.3697 0.0118
-7 10 15 -2.4116 0.0261
-7 10 16 -1.1840 0.0083
-7 10 17 0.9016 0.0163
-7 10 18 -1.2063 0.0085
-7 10 19 -2.9521 -0.0072
-7 10 20 0.3671 -0.0018
-7 10 21 0.8249 -0.0188
-7 10 22 -1.2325 -0.0282
-7 10 23 0.4417 0.0253
-7 10 24 0.6751 0.0231
-7 10 25 -1.7148 -0.0217
-7 10 26 -2.6289 -0.0075
-7 10 27 -0.6607 -0.0316
-7 10 28 3.4058 -0.0417
-7 10 29 3.3763 0.0688
-7 10 30 -1.4709 0.0808
-7 10 31 -4.0750 -0.0742
-7 11 1 -1.0504 0.2175
-7 11 2 -0.3159 -0.0972
-7 11 3 -1.3241 -0.3360
-7 11 4 -0.0348 -0.1257
-7 11 5 1.7591 0.0368
-7 11 6 2.7592 0.0020
-7 11 7 -0.2498 0.0311
-7 11 8 -2.3034 -0.0131
-7 11 9 -0.1361 -0.0942
-7 11 10 -0.6087 -0.0336
-7 11 11 -1.5991 -0.0430
-7 11 12 0.6269 -0.0861
-7 11 13 1.4170 0.0167
-7 11 14 -0.8419 0.0302
-7 11 15 -3.5244 -0.0381
-7 11 16 -2.9849 -0.0096
-7 11 17 0.1272 0.0042
-7 11 18 0.5619 -0.0094
-7 11 19 -0.1104 -0.0090
-7 11 20 0.2325 -0.0132
-7 11 21 -0.5822 0.0025
-7 11 22 -0.3090 0.0168
-7 11 23 0.0771 0.0065
-7 11 24 -0.5848 -0.0281
-7 11 25 0.8839 -0.0451
-7 11 26 0.8590 0.0032
-7 11 27 -0.6873 0.0078
-7 11 28 0.2839 -0.0729
-7 11 29 0.7162 -0.0154
-7 11 30 -0.2873 0.0964
-7 12 1 -1.5925 0.2888
-7 12 2 -3.5402 -0.1446
-7 12 3 -2.1537 -0.1032
-7 12 4 1.4412 0.1205
-7 12 5 2.8328 0.0361
-7 12 6 1.6342 -0.0366
-7 12 7 -2.9602 0.0362
-7 12 8 -2.8254 0.0027
-7 12 9 2.3337 -0.0144
-7 12 10 2.0131 0.0228
-7 12 11 -1.2762 -0.0625
-7 12 12 -1.5089 -0.0464
-7 12 13 0.0263 0.0606
-7 12 14 -0.3642 -0.0111
-7 12 15 -2.9994 -0.0483
-7 12 16 -1.8375 -0.0193
-7 12 17 1.4372 -0.0482
-7 12 18 0.2765 0.0048
-7 12 19 -1.4789 0.0324
-7 12 20 -1.4752 -0.0102
-7 12 21 -1.0419 0.0170
-7 12 22 1.0437 0.0111
-7 12 23 2.0689 -0.0295
-7 12 24 2.2625 -0.0034
-7 12 25 1.9255 0.0032
-7 12 26 -1.4106 0.0038
-7 12 27 -1.4237 -0.0245
-7 12 28 1.7031 -0.1252
-7 12 29 0.9809 -0.0199
-7 13 1 0.9694 -0.0487
-7 13 2 -0.2272 -0.0286
-7 13 3 -0.3171 0.2699
-7 13 4 -0.5767 0.2167
-7 13 5 -1.5099 -0.0435
-7 13 6 -0.4151 -0.0614
-7 13 7 -0.2521 0.0253
-7 13 8 0.0255 0.0406
-7 13 9 0.3051 0.0776
-7 13 10 0.0246 0.0742
-7 13 11 0.6639 -0.0070
-7 13 12 0.0335 0.0274
-7 13 13 -0.8718 0.0418
-7 13 14 -1.6485 -0.0437
-7 13 15 -1.6279 -0.0090
-7 13 16 1.5328 0.0045
-7 13 17 0.9925 -0.0297
-7 13 18 -2.9380 0.0164
-7 13 19 -1.5916 -0.0047
-7 13 20 0.0110 -0.0117
-7 13 21 -0.2432 0.0497
-7 13 22 2.2650 0.0037
-7 13 23 2.2343 -0.0103
-7 13 24 -0.1030 0.0448
-7 13 25 -0.0606 -0.0189
-7 13 26 0.7905 -0.0200
-7 13 27 2.3623 0.0279
-7 13 28 1.5951 -0.0639
-7 14 1 2.3164 -0.2286
-7 14 2 -2.0954 0.0960
-7 14 3 -1.3161 0.2390
-7 14 4 1.3166 0.0438
-7 14 5 0.9302 -0.0542
-7 14 6 -1.5929 -0.0506
-7 14 7 -2.9487 -0.0199
-7 14 8 -0.3866 0.0672
-7 14 9 1.3220 0.0983
-7 14 10 1.3309 0.0578
-7 14 11 0.0616 0.0401
-7 14 12 -2.5944 0.0382
-7 14 13 -1.7315 -0.0309
-7 14 14 -0.4436 -0.0136
-7 14 15 0.0144 0.0837
-7 14 16 2.6163 0.0108
-7 14 17 0.6057 -0.0502
-7 14 18 -3.2952 0.0047
-7 14 19 -0.7911 -0.0095
-7 14 20 1.6264 -0.0075
-7 14 21 1.0077 0.0229
-7 14 22 0.0950 -0.0063
-7 14 23 -1.5825 0.0180
-7 14 24 0.3348 0.0261
-7 14 25 3.1918 -0.0324
-7 14 26 1.4910 0.0390
-7 14 27 0.9607 0.0572
-7 15 1 1.6130 -0.0589
-7 15 2 -2.3946 0.0762
-7 15 3 -1.1633 -0.1393
-7 15 4 1.6426 -0.1786
-7 15 5 0.6680 0.0429
-7 15 6 -1.3183 0.0413
-7 15 7 0.5033 -0.0329
-7 15 8 1.2542 -0.0256
-7 15 9 -2.4294 -0.0227
-7 15 10 -2.0478 0.0322
-7 15 11 -0.7863 0.0572
-7 15 12 -1.6698 -0.0210
-7 15 13 0.8830 -0.0657
-7 15 14 -0.2871 0.0252
-7 15 15 -3.4466 0.0732
-7 15 16 1.2258 0.0052
-7 15 17 3.9442 -0.0165
-7 15 18 -0.7648 -0.0353
-7 15 19 -2.7679 -0.0480
-7 15 20 -0.3260 0.0116
-7 15 21 1.5282 -0.0052
-7 15 22 0.9633 -0.0602
-7 15 23 -0.1512 -0.0018
-7 15 24 1.0986 0.0195
-7 15 25 1.3062 -0.0161
-7 15 26 -0.1844 0.0219
-7 16 1 0.0208 0.1845
-7 16 2 -3.4302 -0.0270
-7 16 3 -3.0012 -0.3251
-7 16 4 0.5447 -0.1327
-7 16 5 3.4499 0.1110
-7 16 6 2.9431 0.0325
-7 16 7 -0.1052 -0.0234
-7 16 8 -4.6841 -0.0516
-7 16 9 -4.0593 -0.0925
-7 16 10 3.0353 -0.0580
-7 16 11 1.8152 -0.0302
-7 16 12 -3.4791 -0.0045
-7 16 13 -0.8784 0.0228
-7 16 14 -0.4424 0.0046
-7 16 15 -3.2473 -0.0360
-7 16 16 -0.2718 -0.0183
-7 16 17 2.4521 0.0164
-7 16 18 -0.0538 -0.0179
-7 16 19 -1.7452 -0.0403
-7 16 20 -0.5475 -0.0416
-7 16 21 1.5306 -0.0416
-7 16 22 2.9788 0.0184
-7 16 23 1.4269 0.0073
-7 16 24 -1.3817 -0.1353
-7 16 25 -1.7458 -0.1134
-7 17 1 -2.1008 0.1499
-7 17 2 -3.7076 -0.0396
-7 17 3 -1.3045 -0.0780
-7 17 4 1.3932 0.0494
-7 17 5 0.1608 0.0391
-7 17 6 -1.1099 0.0148
-7 17 7 0.6925 0.0281
-7 17 8 -1.7564 -0.0724
-7 17 9 -2.8864 -0.0865
-7 17 10 2.9574 -0.0399
-7 17 11 2.2803 -0.0328
-7 17 12 -3.2845 0.0470
-7 17 13 -2.1816 0.0578
-7 17 14 0.3121 -0.0642
-7 17 15 -1.6876 -0.1067
-7 17 16 -2.6816 -0.0077
-7 17 17 0.3186 0.0504
-7 17 18 1.7223 0.0103
-7 17 19 0.1705 0.0050
-7 17 20 -0.8145 0.0301
-7 17 21 0.3205 -0.0103
-7 17 22 2.4455 -0.0887
-7 17 23 1.2996 -0.1197
-7 18 1 -0.7321 -0.0508
-7 18 2 1.3672 0.0870
-7 18 3 0.5252 0.2476
-7 18 4 -3.0451 0.1122
-7 18 5 -4.5101 -0.0849
-7 18 6 0.8481 -0.0278
-7 18 7 4.3890 0.0205
-7 18 8 -3.1749 0.0076
-7 18 9 -6.0408 0.0878
-7 18 10 1.5564 0.0214
-7 18 11 3.0197 -0.0594
-7 18 12 -1.8101 0.0244
-7 18 13 -2.0016 0.0094
-7 18 14 1.3533 -0.0513
-7 18 15 0.1986 -0.0067
-7 18 16 -2.7560 0.0239
-7 18 17 -1.1148 0.0348
-7 18 18 1.0780 0.0803
-7 18 19 0.9942 0.0693
-7 18 20 -1.0609 -0.0212
-7 18 21 -1.9584 -0.0849
-7 18 22 2.1669 -0.0351
-7 19 1 0.4948 -0.1920
-7 19 2 0.6619 0.1369
-7 19 3 -0.0365 0.2688
-7 19 4 0.9885 -0.0410
-7 19 5 -0.7085 -0.1829
-7 19 6 -1.7926 0.0345
-7 19 7 -0.5674 0.1145
-7 19 8 -3.3840 0.0533
-7 19 9 -4.4290 0.0561
-7 19 10 -0.3966 -0.0020
-7 19 11 1.2425 -0.0206
-7 19 12 -1.8049 -0.0056
-7 19 13 -1.6323 -0.0322
-7 19 14 3.7507 0.0506
-7 19 15 1.8883 0.0981
-7 19 16 -4.1964 0.0139
-7 19 17 -2.5894 0.0224
-7 19 18 1.0733 0.0546
-7 19 19 1.1680 0.0038
-7 19 20 -0.6048 0.0392
-7 20 1 0.2581 -0.1481
-7 20 2 2.7059 -0.0525
-7 20 3 3.7221 -0.0511
-7 20 4 3.0423 -0.0740
-7 20 5 -3.6689 -0.0083
-7 20 6 -3.5966 0.0637
-7 20 7 1.9863 0.0203
-7 20 8 -1.1617 -0.0279
-7 20 9 -5.1567 -0.0119
-7 20 10 -2.7312 -0.0112
-7 20 11 -0.8868 0.0054
-7 20 12 -2.1809 -0.0104
-7 20 13 0.4215 -0.0254
-7 20 14 3.1625 0.0437
-7 20 15 -2.6858 0.0543
-7 20 16 -4.1659 0.0201
-7 20 17 2.4023 0.0587
-7 20 18 3.0315 0.0446
-7 21 1 1.1632 0.0608
-7 21 2 -0.0179 -0.2380
-7 21 3 1.0583 -0.2246
-7 21 4 3.6253 0.1113
-7 21 5 -0.5257 0.0659
-7 21 6 -0.9668 -0.1032
-7 21 7 0.7152 -0.0452
-7 21 8 -2.4312 -0.0067
-7 21 9 -2.8165 -0.0235
-7 21 10 -0.2942 -0.0158
-7 21 11 -1.1574 -0.0546
-7 21 12 -4.6087 -0.0824
-7 21 13 -3.0790 0.0096
-7 21 14 0.6849 0.0728
-7 21 15 0.0346 0.0043
-7 22 1 3.5723 0.2878
-7 22 2 -2.2104 -0.1537
-7 22 3 -1.0756 -0.1751
-7 22 4 3.5003 0.1454
-7 22 5 0.4881 -0.0109
-7 22 6 0.2381 -0.1059
-7 22 7 0.3331 0.0271
-7 22 8 -1.8369 -0.0241
-7 22 9 -0.0787 -0.0487
-7 22 10 0.8892 -0.0120
-7 22 11 -3.0250 -0.0739
-7 23 1 2.1846 0.4046
-7 23 2 -3.7863 -0.0028
-7 23 3 -0.2851 -0.0538
-7 23 4 2.3845 0.0946
-7 23 5 0.6005 -0.1147
-6 -21 1 -0.3256 -0.0273
-6 -21 2 2.0887 -0.1858
-6 -21 3 -0.0827 -0.0390
-6 -21 4 -1.8265 0.0880
-6 -21 5 1.5070 -0.0146
-6 -21 6 3.0933 -0.0179
-6 -21 7 0.5911 -0.0163
-6 -21 8 0.0896 -0.0809
-6 -20 1 -1.0960 0.0551
-6 -20 2 0.5776 -0.2899
-6 -20 3 0.7985 -0.0495
-6 -20 4 -0.1846 0.1473
-6 -20 5 -0.4266 -0.0565
-6 -20 6 0.5900 -0.0956
-6 -20 7 1.8410 0.0153
-6 -20 8 2.7030 0.0252
-6 -20 9 4.4587 0.0855
-6 -20 10 1.6173 -0.0167
-6 -20 11 -4.3574 -0.1252
-6 -20 12 -1.5474 0.0806
-6 -20 13 5.1427 0.1022
-6 -20 14 2.7044 -0.0740
-6 -19 1 -1.2800 0.0832
-6 -19 2 0.2468 -0.0605
-6 -19 3 1.5332 0.0365
-6 -19 4 -2.3241 0.0712
-6 -19 5 -3.3834 -0.0373
-6 -19 6 3.1826 -0.0344
-6 -19 7 4.4966 -0.0353
-6 -19 8 -1.9526 -0.0555
-6 -19 9 0.2695 0.0550
-6 -19 10 4.1014 0.0206
-6 -19 11 -1.0405 -0.0668
-6 -19 12 -0.8577 0.0430
-6 -19 13 4.1009 0.0814
-6 -19 14 -0.1239 0.0246
-6 -19 15 -3.6243 -0.0052
-6 -19 16 1.4544 -0.0581
-6 -19 17 1.4139 0.0433
-6 -18 1 -0.7313 0.0791
-6 -18 2 -2.3528 0.2343
-6 -18 3 -0.5555 0.0735
-6 -18 4 -0.1969 -0.0855
-6 -18 5 -1.7334 0.0095
-6 -18 6 0.2879 0.0868
-6 -18 7 0.1049 -0.0333
-6 -18 8 -2.9243 -0.0774
-6 -18 9 1.5308 0.0312
-6 -18 10 3.9643 -0.0021
-6 -18 11 -0.4333 -0.0568
-6 -18 12 -0.2466 0.0347
-6 -18 13 -0.0862 0.0552
-6 -18 14 -3.5372 0.0127
-6 -18 15 0.3641 0.0109
-6 -18 16 4.3263 -0.0160
-6 -18 17 -1.1495 0.0518
-6 -18 18 -2.4449 0.0839
-6 -18 19 -0.1589 -0.0817
-6 -18 20 -1.0630 -0.0310
-6 -17 1 -1.7421 -0.0612
-6 -17 2 -3.0692 0.2576
-6 -17 3 0.4318 0.0122
-6 -17 4 0.3750 -0.1565
-6 -17 5 -3.3808 0.0424
-6 -17 6 -0.6706 0.1772
-6 -17 7 1.7886 0.0547
-6 -17 8 -0.7982 -0.0892
-6 -17 9 -0.7904 -0.0477
-6 -17 10 -0.7594 0.0478
-6 -17 11 -0.4994 0.0301
-6 -17 12 1.0162 -0.0301
-6 -17 13 -1.7757 -0.0289
-6 -17 14 -2.8717 0.0286
-6 -17 15 2.1300 0.0307
-6 -17 16 1.4164 -0.0511
-6 -17 17 -2.1555 0.0289
-6 -17 18 1.2654 0.1253
-6 -17 19 0.8182 -0.0407
-6 -17 20 -2.3968 -0.0900
-6 -17 21 -0.4200 0.0272
-6 -17 22 0.3827 0.0001
-6 -16 1 -2.1890 -0.2193
-6 -16 2 -3.5933 -0.0772
-6 -16 3 -0.1533 -0.0379
-6 -16 4 3.2723 -0.0183
-6 -16 5 0.9061 -0.0077
-6 -16 6 -1.3904 0.0493
-6 -16 7 -1.1458 0.0814
-6 -16 8 1.0456 -0.0143
-6 -16 9 0.4136 -0.0409
-6 -16 10 -3.0731 0.0473
-6 -16 11 0.3656 0.0435
-6 -16 12 3.5714 -0.0069
-6 -16 13 -1.9168 -0.0253
-6 -16 14 -4.1092 -0.0234
-6 -16 15 -0.1614 0.0161
-6 -16 16 0.2723 0.0016
-6 -16 17 1.6082 0.0111
-6 -16 18 3.9443 0.0450
-6 -16 19 -0.2387 -0.0394
-6 -16 20 -2.0515 -0.0514
-6 -16 21 -0.2410 0.0211
-6 -16 22 -0.6946 -0.0088
-6 -16 23 0.2659 -0.0266
-6 -16 24 1.9349 -0.0370
-6 -15 1 0.1415 -0.1614
-6 -15 2 -1.1724 -0.2563
-6 -15 3 1.1948 0.0132
-6 -15 4 2.4722 0.1195
-6 -15 5 -0.4991 -0.1187
-6 -15 6 -1.7104 -0.1511
-6 -15 7 -0.0662 0.0518
-6 -15 8 3.1280 0.0556
-6 -15 9 2.4751 -0.0436
-6 -15 10 -0.0089 -0.0061
-6 -15 11 1.3456 0.0385
-6 -15 12 0.3967 0.0349
-6 -15 13 -2.1698 0.0033
-6 -15 14 -0.9418 -0.0168
-6 -15 15 -0.4847 0.0157
-6 -15 16 -0.1825 -0.0144
-6 -15 17 3.7735 -0.0260
-6 -15 18 2.7200 0.0352
-6 -15 19 -1.5125 0.0035
-6 -15 20 0.8670 -0.0490
-6 -15 21 1.9676 -0.0364
-6 -15 22 -0.1971 -0.0129
-6 -15 23 -0.3002 0.0722
-6 -15 24 1.4250 0.0373
-6 -15 25 3.4779 -0.2149
-6 -14 1 1.4550 0.1153
-6 -14 2 -1.2413 -0.0861
-6 -14 3 -1.0693 0.1115
-6 -14 4 -0.2263 0.1050
-6 -14 5 1.3435 -0.1509
-6 -14 6 1.8082 -0.1625
-6 -14 7 0.0072 0.0018
-6 -14 8 1.8317 0.0283
-6 -14 9 3.0628 -0.0150
-6 -14 10 1.0129 -0.0163
-6 -14 11 0.1776 -0.0309
-6 -14 12 0.8447 -0.0019
-6 -14 13 1.4566 0.0414
-6 -14 14 -0.6545 0.0200
-6 -14 15 -2.5245 -0.0051
-6 -14 16 1.9122 -0.0192
-6 -14 17 4.8984 -0.0113
-6 -14 18 -0.6788 0.0058
-6 -14 19 -2.6284 -0.0195
-6 -14 20 1.2788 -0.0148
-6 -14 21 2.8552 0.0327
-6 -14 22 3.9691 0.0148
-6 -14 23 0.8864 0.0146
-6 -14 24 -2.1718 -0.0042
-6 -14 25 1.5554 -0.1565
-6 -14 26 2.2925 -0.0378
-6 -14 27 0.7276 0.2431
-6 -13 1 0.4381 0.2123
-6 -13 2 -0.7551 0.1321
-6 -13 3 0.1758 0.0878
-6 -13 4 0.5626 0.0073
-6 -13 5 2.9782 0.0284
-6 -13 6 2.3727 0.0271
-6 -13 7 -1.7365 -0.0306
-6 -13 8 -0.3780 -0.0130
-6 -13 9 2.5712 0.0123
-6 -13 10 1.4216 -0.0145
-6 -13 11 -0.9738 -0.0445
-6 -13 12 0.0181 -0.0354
-6 -13 13 2.2186 0.0028
-6 -13 14 -0.0425 0.0229
-6 -13 15 -0.9695 -0.0034
-6 -13 16 3.4140 -0.0265
-6 -13 17 1.5084 -0.0005
-6 -13 18 -4.9433 0.0264
-6 -13 19 -2.0040 -0.0007
-6 -13 20 2.2155 -0.0198
-6 -13 21 2.2313 0.0214
-6 -13 22 3.0342 -0.0028
-6 -13 23 -0.3114 -0.0299
-6 -13 24 -1.8741 0.0376
-6 -13 25 1.2757 -0.0049
-6 -13 26 1.6523 -0.0086
-6 -13 27 2.2517 0.1417
-6 -13 28 2.2594 0.0613
-6 -12 1 0.8458 -0.0494
-6 -12 2 1.4027 0.0688
-6 -12 3 1.7095 -0.0367
-6 -12 4 0.8085 -0.0064
-6 -12 5 2.1199 0.2252
-6 -12 6 0.6403 0.1432
-6 -12 7 -0.8118 -0.0503
-6 -12 8 2.3587 -0.0141
-6 -12 9 2.1742 0.0340
-6 -12 10 -2.6553 0.0264
-6 -12 11 -3.8012 0.0107
-6 -12 12 1.0496 -0.0544
-6 -12 13 2.8501 -0.0512
-6 -12 14 -1.4292 0.0207
-6 -12 15 -0.2952 0.0201
-6 -12 16 4.0906 -0.0041
-6 -12 17 -2.1562 -0.0086
-6 -12 18 -6.1050 0.0036
-6 -12 19 1.9277 0.0088
-6 -12 20 1.7985 -0.0382
-6 -12 21 -3.8850 -0.0093
-6 -12 22 -0.8808 0.0501
-6 -12 23 2.2765 0.0039
-6 -12 24 0.6461 -0.0078
-6 -12 25 -2.5245 0.0022
-6 -12 26 -1.7810 0.0095
-6 -12 27 2.7635 0.1098
-6 -12 28 3.6981 0.0800
-6 -12 29 1.5549 -0.0419
-6 -11 1 0.4143 -0.2414
-6 -11 2 0.7012 -0.0746
-6 -11 3 -0.9969 -0.1666
-6 -11 4 -0.3548 -0.0210
-6 -11 5 3.7678 0.1938
-6 -11 6 2.9846 0.0413
-6 -11 7 0.8778 -0.0621
-6 -11 8 1.1811 0.0363
-6 -11 9 0.0024 0.0233
-6 -11 10 -2.0085 0.0120
-6 -11 11 -2.6558 0.0665
-6 -11 12 -0.8908 0.0196
-6 -11 13 1.0178 -0.0306
-6 -11 14 -0.0592 -0.0203
-6 -11 15 0.2362 0.0003
-6 -11 16 0.6024 0.0326
-6 -11 17 -3.8280 -0.0085
-6 -11 18 -1.1397 -0.0336
-6 -11 19 5.7464 0.0193
-6 -11 20 -0.1954 -0.0109
-6 -11 21 -6.9124 0.0006
-6 -11 22 -3.4079 0.0587
-6 -11 23 1.0096 -0.0380
-6 -11 24 0.2628 -0.0458
-6 -11 25 -3.1082 0.0669
-6 -11 26 -1.9596 0.0221
-6 -11 27 2.0935 0.0002
-6 -11 28 4.5531 0.0313
-6 -11 29 2.9576 -0.0177
-6 -11 30 -3.4976 0.1086
-6 -10 1 -0.7549 0.0029
-6 -10 2 -0.9520 -0.0160
-6 -10 3 -1.6386 -0.1522
-6 -10 4 2.3673 -0.1046
-6 -10 5 4.4221 -0.0923
-6 -10 6 -0.2016 -0.1089
-6 -10 7 -1.7879 0.0205
-6 -10 8 0.5217 0.0519
-6 -10 9 2.2483 -0.0509
-6 -10 10 2.2732 -0.0229
-6 -10 11 -1.8686 0.0618
-6 -10 12 -4.5208 0.0559
-6 -10 13 -0.9678 0.0114
-6 -10 14 0.9064 -0.0483
-6 -10 15 0.9943 -0.0284
-6 -10 16 0.7371 0.0640
-6 -10 17 -2.6158 0.0243
-6 -10 18 0.2501 -0.0295
-6 -10 19 5.4754 0.0249
-6 -10 20 1.3626 -0.0092
-6 -10 21 -3.8959 -0.0379
-6 -10 22 -3.6122 0.0303
-6 -10 23 -1.8324 0.0109
-6 -10 24 -2.7994 0.0114
-6 -10 25 -1.7864 0.0361
-6 -10 26 2.6559 -0.0688
-6 -10 27 1.7573 -0.0360
-6 -10 28 0.2305 0.0895
-6 -10 29 1.1770 0.0025
-6 -10 30 -1.1610 0.0081
-6 -10 31 -1.7597 0.1196
-6 -9 1 -1.6607 0.3619
-6 -9 2 2.7590 0.1579
-6 -9 3 1.2201 0.0182
-6 -9 4 -0.8608 -0.1432
-6 -9 5 -1.2331 -0.2766
-6 -9 6 -0.4620 -0.0692
-6 -9 7 0.5892 0.1195
-6 -9 8 -0.3348 -0.0026
-6 -9 9 0.8661 -0.0823
-6 -9 10 2.8050 -0.0454
-6 -9 11 -1.7976 -0.0437
-6 -9 12 -4.2200 0.0046
-6 -9 13 1.0283 0.0460
-6 -9 14 2.0263 -0.0043
-6 -9 15 -0.5186 -0.0092
-6 -9 16 -2.2038 0.0417
-6 -9 17 -2.3648 0.0232
-6 -9 18 4.1396 -0.0150
-6 -9 19 7.4665 -0.0072
-6 -9 20 1.4682 -0.0090
-6 -9 21 -3.1706 0.0084
-6 -9 22 -2.3989 0.0283
-6 -9 23 -1.9414 -0.0201
-6 -9 24 -3.0345 -0.0115
-6 -9 25 1.4024 0.0404
-6 -9 26 3.3079 -0.0112
-6 -9 27 -3.3725 -0.0160
-6 -9 28 -2.4751 0.0326
-6 -9 29 4.1329 -0.0635
-6 -9 30 3.4433 -0.0583
-6 -9 31 -0.2820 0.1412
-6 -8 1 5.4406 0.2026
-6 -8 2 6.4014 0.1089
-6 -8 3 -3.3517 0.2261
-6 -8 4 -4.5646 0.0271
-6 -8 5 1.9859 -0.1216
-6 -8 6 3.1647 0.0872
-6 -8 7 -2.7803 0.0791
-6 -8 8 -5.4813 -0.0833
-6 -8 9 0.8434 -0.0139
-6 -8 10 5.4422 -0.0123
-6 -8 11 -0.5316 -0.1083
-6 -8 12 -4.3306 -0.0367
-6 -8 13 -0.6389 0.0581
-6 -8 14 0.4297 0.0540
-6 -8 15 -0.0010 -0.0136
-6 -8 16 -0.6859 -0.0605
-6 -8 17 0.0915 0.0033
-6 -8 18 3.7768 0.0445
-6 -8 19 2.8047 0.0014
-6 -8 20 0.1503 -0.0046
-6 -8 21 1.1164 0.0068
-6 -8 22 2.0283 -0.0143
-6 -8 23 -1.6598 -0.0092
-6 -8 24 -4.8970 0.0280
-6 -8 25 0.0462 0.0385
-6 -8 26 2.0062 -0.0204
-6 -8 27 -2.0464 -0.0780
-6 -8 28 -1.0414 -0.0135
-6 -8 29 1.8514 0.0390
-6 -8 30 2.0547 0.0095
-6 -8 31 0.6527 0.0666
-6 -8 32 0.2244 0.0548
-6 -7 1 2.6078 -0.3934
-6 -7 2 4.0446 -0.0777
-6 -7 3 -0.8690 0.3140
-6 -7 4 -1.3937 0.2078
-6 -7 5 2.6200 0.0909
-6 -7 6 1.0946 0.0868
-6 -7 7 -5.2953 -0.0514
-6 -7 8 -3.7944 -0.0446
-6 -7 9 3.7251 0.0873
-6 -7 10 2.2732 0.0348
-6 -7 11 -5.1761 -0.0202
-6 -7 12 -2.1061 -0.0154
-6 -7 13 2.9824 -0.0323
-6 -7 14 -1.0612 0.0325
-6 -7 15 -3.1124 0.0189
-6 -7 16 -0.0970 -0.0745
-6 -7 17 3.2775 -0.0200
-6 -7 18 2.6509 0.0300
-6 -7 19 -0.5555 -0.0102
-6 -7 20 0.2253 0.0143
-6 -7 21 1.6003 0.0397
-6 -7 22 1.1573 0.0030
-6 -7 23 -1.2314 -0.0147
-6 -7 24 -2.0459 -0.0334
-6 -7 25 1.3388 -0.0179
-6 -7 26 0.3935 0.0187
-6 -7 27 -3.7657 -0.0307
-6 -7 28 -3.9625 -0.0070
-6 -7 29 0.9479 0.0472
-6 -7 30 4.8815 -0.0492
-6 -7 31 1.0279 -0.0090
-6 -7 32 -1.4872 0.1552
-6 -6 1 2.3547 -0.5601
-6 -6 2 6.3270 -0.2149
-6 -6 3 -1.2664 0.0401
-6 -6 4 -3.7793 0.1331
-6 -6 5 3.2891 0.1423
-6 -6 6 2.6751 -0.0395
-6 -6 7 -4.6374 -0.1098
-6 -6 8 -2.8679 0.0525
-6 -6 9 2.3929 0.0808
-6 -6 10 -0.6371 0.0352
-6 -6 11 -3.6665 0.0964
-6 -6 12 0.1624 0.0145
-6 -6 13 -0.9550 -0.0940
-6 -6 14 -3.5096 0.0021
-6 -6 15 0.6378 0.0383
-6 -6 16 2.6264 -0.0342
-6 -6 17 1.2400 -0.0349
-6 -6 18 -1.0628 -0.0002
-6 -6 19 -1.2034 0.0165
-6 -6 20 1.2693 0.0213
-6 -6 21 1.4458 -0.0023
-6 -6 22 0.7679 -0.0134
-6 -6 23 -0.7044 0.0068
-6 -6 24 -1.0556 -0.0350
-6 -6 25 -0.0035 -0.0273
-6 -6 26 -0.8712 0.0692
-6 -6 27 -2.6272 -0.0004
-6 -6 28 -2.8479 -0.1026
-6 -6 29 2.8085 -0.0271
-6 -6 30 4.3738 0.0258
-6 -6 31 -3.0374 0.0338
-6 -6 32 -2.6482 0.1034
-6 -6 33 3.0404 0.0842
-6 -5 1 -0.2764 0.0272
-6 -5 2 -0.2104 -0.1685
-6 -5 3 -1.5694 -0.3596
-6 -5 4 0.8677 -0.0615
-6 -5 5 4.8064 0.0638
-6 -5 6 -0.1048 -0.1595
-6 -5 7 -5.5802 -0.0687
-6 -5 8 -0.8357 0.1224
-6 -5 9 4.0525 0.0059
-6 -5 10 -1.3592 -0.0375
-6 -5 11 -5.5999 0.0700
-6 -5 12 -0.7252 0.0311
-6 -5 13 0.8818 -0.0373
-6 -5 14 -1.4712 -0.0263
-6 -5 15 -2.4536 0.0190
-6 -5 16 -0.6240 0.0485
-6 -5 17 2.9835 -0.0144
-6 -5 18 0.9270 -0.0391
-6 -5 19 -1.2572 -0.0025
-6 -5 20 0.4741 -0.0123
-6 -5 21 0.3909 -0.0219
-6 -5 22 -0.8058 0.0061
-6 -5 23 -0.5589 0.0441
-6 -5 24 0.2378 0.0036
-6 -5 25 -0.8902 -0.0426
-6 -5 26 0.0772 0.0110
-6 -5 27 -0.3354 0.0013
-6 -5 28 -3.3398 -0.0539
-6 -5 29 1.8482 0.0022
-6 -5 30 4.3606 0.0058
-6 -5 31 -0.1907 -0.0802
-6 -5 32 0.7811 0.0420
-6 -5 33 1.5142 0.2145
-6 -4 1 -2.4542 0.7284
-6 -4 2 -1.1366 0.0288
-6 -4 3 1.1611 -0.4509
-6 -4 4 1.4685 -0.1803
-6 -4 5 0.5496 -0.0086
-6 -4 6 -2.1707 -0.0403
-6 -4 7 -0.8248 0.0464
-6 -4 8 3.5982 0.0188
-6 -4 9 2.1576 -0.0746
-6 -4 10 -5.0366 -0.0405
-6 -4 11 -3.9636 -0.0315
-6 -4 12 2.2000 0.0059
-6 -4 13 -0.7092 0.0722
-6 -4 14 -3.7162 -0.0221
-6 -4 15 -1.3092 -0.0328
-6 -4 16 1.3375 0.0587
-6 -4 17 1.3077 0.0019
-6 -4 18 -0.9813 -0.0327
-6 -4 19 -0.1874 -0.0067
-6 -4 20 1.4623 -0.0040
-6 -4 21 0.7734 -0.0039
-6 -4 22 -1.2790 -0.0185
-6 -4 23 -1.4127 0.0239
-6 -4 24 -0.2483 0.0365
-6 -4 25 -0.4315 -0.0401
-6 -4 26 1.5015 -0.0199
-6 -4 27 -1.2688 0.0515
-6 -4 28 -3.9319 -0.0037
-6 -4 29 3.3844 -0.0517
-6 -4 30 5.4302 -0.0118
-6 -4 31 1.9921 -0.0201
-6 -4 32 1.1312 0.0264
-6 -4 33 -0.4080 0.1280
-6 -4 34 0.4158 0.0421
-6 -3 1 -0.0979 0.5389
-6 -3 2 -2.0098 0.2117
-6 -3 3 1.2909 -0.0135
-6 -3 4 1.4075 -0.0952
-6 -3 5 -1.6633 -0.0347
-6 -3 6 -0.5800 0.1585
-6 -3 7 2.8200 0.0844
-6 -3 8 1.2691 -0.1276
-6 -3 9 -1.1598 -0.0337
-6 -3 10 -1.1773 0.0519
-6 -3 11 0.2312 -0.0876
-6 -3 12 -1.8518 -0.0371
-6 -3 13 -3.7459 0.0922
-6 -3 14 0.5191 -0.0111
-6 -3 15 1.2299 -0.0480
-6 -3 16 -1.0648 0.0170
-6 -3 17 -0.1648 0.0250
-6 -3 18 0.2622 0.0286
-6 -3 19 -0.4584 -0.0153
-6 -3 20 1.6184 -0.0182
-6 -3 21 2.6560 0.0166
-6 -3 22 -2.8100 -0.0217
-6 -3 23 -2.5824 -0.0170
-6 -3 24 2.4033 0.0365
-6 -3 25 0.7941 0.0208
-6 -3 26 -0.9467 -0.0192
-6 -3 27 -1.7475 0.0010
-6 -3 28 -0.0327 0.0224
-6 -3 29 2.3912 0.0245
-6 -3 30 0.5241 0.0209
-6 -3 31 2.1928 -0.0474
-6 -3 32 3.1490 -0.0558
-6 -3 33 1.1429 0.0721
-6 -3 34 1.2506 0.1244
-6 -2 1 -0.5482 -0.3900
-6 -2 2 -1.2884 0.2436
-6 -2 3 6.1520 0.5497
-6 -2 4 1.7158 0.0677
-6 -2 5 -6.9763 -0.1267
-6 -2 6 -0.8461 0.1316
-6 -2 7 6.7139 0.0776
-6 -2 8 1.5864 -0.0766
-6 -2 9 -3.5169 0.0254
-6 -2 10 -1.9879 0.0595
-6 -2 11 0.0727 -0.0367
-6 -2 12 -2.0880 -0.0228
-6 -2 13 -1.5841 0.0162
-6 -2 14 2.2271 0.0067
-6 -2 15 1.0155 0.0091
-6 -2 16 -1.1497 -0.0187
-6 -2 17 -0.3620 0.0094
-6 -2 18 0.6290 0.0399
-6 -2 19 0.2620 -0.0153
-6 -2 20 1.8042 -0.0079
-6 -2 21 1.2423 0.0158
-6 -2 22 -3.3380 -0.0148
-6 -2 23 0.1901 -0.0208
-6 -2 24 3.8858 0.0305
-6 -2 25 0.4319 0.0495
-6 -2 26 -0.9136 -0.0251
-6 -2 27 -0.5501 -0.0257
-6 -2 28 0.8556 0.0460
-6 -2 29 -0.4965 0.0251
-6 -2 30 -1.0589 -0.0112
-6 -2 31 3.2314 -0.0007
-6 -2 32 1.8775 -0.0022
-6 -2 33 -0.3130 0.0236
-6 -2 34 0.2745 0.0710
-6 -1 1 0.7792 -0.8513
-6 -1 2 3.9971 0.0829
-6 -1 3 9.3139 0.5009
-6 -1 4 -1.7753 0.0631
-6 -1 5 -8.9150 -0.1654
-6 -1 6 5.0509 -0.0464
-6 -1 7 10.1809 0.0469
-6 -1 8 -4.4507 0.0779
-6 -1 9 -9.6775 0.0008
-6 -1 10 0.9601 -0.0292
-6 -1 11 4.7720 0.0602
-6 -1 12 -3.2976 0.0232
-6 -1 13 -4.1416 -0.0716
-6 -1 14 1.9301 0.0134
-6 -1 15 3.0243 0.0689
-6 -1 16 1.2796 -0.0173
-6 -1 17 0.9834 -0.0217
-6 -1 18 0.1814 0.0051
-6 -1 19 -2.2305 0.0049
-6 -1 20 1.1540 0.0060
-6 -1 21 3.7767 -0.0090
-6 -1 22 -0.4783 0.0160
-6 -1 23 -0.6562 0.0055
-6 -1 24 0.9690 -0.0125
-6 -1 25 1.3337 0.0210
-6 -1 26 1.2263 -0.0006
-6 -1 27 1.1672 -0.0243
-6 -1 28 1.9531 -0.0111
-6 -1 29 -1.7454 0.0001
-6 -1 30 -1.0998 0.0493
-6 -1 31 2.4911 0.0585
-6 -1 32 -0.6474 -0.0265
-6 -1 33 -0.4453 -0.0531
-6 -1 34 0.3019 -0.0084
-6 0 1 -1.8898 -0.2365
-6 0 2 4.6299 -0.2167
-6 0 3 13.0922 -0.2158
-6 0 4 0.8052 -0.0343
-6 0 5 -7.0658 0.0332
-6 0 6 6.5232 -0.1184
-6 0 7 8.6115 -0.0327
-6 0 8 -6.4729 0.0948
-6 0 9 -7.8177 -0.0504
-6 0 10 2.9132 -0.0669
-6 0 11 1.4116 0.0653
-6 0 12 -5.1040 0.0060
-6 0 13 -0.8450 -0.0704
-6 0 14 3.0428 0.0204
-6 0 15 1.6638 0.0578
-6 0 16 0.6955 0.0110
-6 0 17 1.2677 -0.0179
-6 0 18 1.7384 -0.0332
-6 0 19 1.0538 0.0204
-6 0 20 2.0415 0.0221
-6 0 21 0.1194 -0.0315
-6 0 22 -1.8572 0.0045
-6 0 23 0.5629 0.0169
-6 0 24 1.7964 -0.0144
-6 0 25 3.1361 -0.0149
-6 0 26 1.6947 -0.0054
-6 0 27 -0.2952 -0.0121
-6 0 28 0.2342 -0.0306
-6 0 29 -0.1533 0.0057
-6 0 30 2.8541 0.0513
-6 0 31 0.9414 -0.0042
-6 0 32 -3.9930 -0.0588
-6 0 33 -0.3631 -0.0242
-6 0 34 0.2586 -0.0275
-6 1 1 -4.3066 0.5690
-6 1 2 11.8171 -0.3582
-6 1 3 17.1974 -0.6263
-6 1 4 -3.2205 0.0034
-6 1 5 -8.9269 0.2061
-6 1 6 10.1292 -0.0690
-6 1 7 10.9559 -0.0785
-6 1 8 -6.3587 -0.0185
-6 1 9 -6.9022 -0.0553
-6 1 10 2.4652 -0.0173
-6 1 11 -0.5058 -0.0090
-6 1 12 -3.5716 -0.0261
-6 1 13 0.3755 0.0117
-6 1 14 0.8760 0.0167
-6 1 15 1.1182 -0.0060
-6 1 16 2.0573 0.0240
-6 1 17 2.0443 0.0080
-6 1 18 1.7053 -0.0406
-6 1 19 0.8207 -0.0044
-6 1 20 0.5536 0.0169
-6 1 21 -0.0917 0.0019
-6 1 22 1.7107 0.0001
-6 1 23 1.1879 0.0039
-6 1 24 -1.1829 -0.0089
-6 1 25 1.5484 -0.0428
-6 1 26 1.9250 -0.0057
-6 1 27 1.1040 0.0278
-6 1 28 0.3007 -0.0214
-6 1 29 -0.6047 -0.0383
-6 1 30 1.7767 -0.0323
-6 1 31 -1.7436 -0.0381
-6 1 32 -3.5278 0.0157
-6 1 33 1.8519 0.0388
-6 1 34 0.9832 -0.0524
-6 2 1 -1.7896 0.6208
-6 2 2 8.3368 -0.1141
-6 2 3 10.0684 -0.2194
-6 2 4 -2.0732 0.1073
-6 2 5 -1.0615 0.0976
-6 2 6 10.3984 -0.0007
-6 2 7 4.5450 -0.0400
-6 2 8 -6.5820 -0.0989
-6 2 9 -1.9520 0.0111
-6 2 10 2.8658 0.0529
-6 2 11 -1.9122 -0.0685
-6 2 12 -1.5711 -0.0026
-6 2 13 0.7893 0.1046
-6 2 14 -0.7558 0.0013
-6 2 15 0.3807 -0.0861
-6 2 16 1.4052 -0.0208
-6 2 17 0.6241 0.0299
-6 2 18 0.1426 0.0168
-6 2 19 2.1133 -0.0091
-6 2 20 2.4840 -0.0023
-6 2 21 -1.0613 0.0205
-6 2 22 -0.5478 -0.0072
-6 2 23 0.0289 0.0049
-6 2 24 0.1575 0.0092
-6 2 25 2.2889 -0.0430
-6 2 26 0.8334 -0.0102
-6 2 27 -0.9421 0.0273
-6 2 28 -1.8336 -0.0018
-6 2 29 1.4913 -0.0319
-6 2 30 3.7882 -0.0614
-6 2 31 -4.2905 -0.0397
-6 2 32 -5.5919 0.0479
-6 2 33 0.5062 0.0504
-6 2 34 -0.2247 -0.0363
-6 3 1 -3.7008 -0.0117
-6 3 2 6.5615 0.2411
-6 3 3 10.3923 0.4105
-6 3 4 1.0257 0.1043
-6 3 5 -1.5011 -0.1172
-6 3 6 3.1780 0.0209
-6 3 7 0.8502 0.0058
-6 3 8 -0.9185 -0.0577
-6 3 9 2.5237 0.0828
-6 3 10 0.4346 0.0679
-6 3 11 -2.6568 -0.0281
-6 3 12 0.8166 0.0369
-6 3 13 0.6275 0.0463
-6 3 14 -2.2091 -0.0305
-6 3 15 -0.7097 -0.0369
-6 3 16 1.6825 -0.0084
-6 3 17 0.7578 0.0246
-6 3 18 -2.3653 0.0414
-6 3 19 0.2971 -0.0197
-6 3 20 2.3973 -0.0222
-6 3 21 -0.5055 0.0303
-6 3 22 0.0875 -0.0049
-6 3 23 -0.4002 -0.0183
-6 3 24 -2.2813 0.0154
-6 3 25 -1.8574 0.0267
-6 3 26 -0.1223 -0.0008
-6 3 27 1.8723 -0.0241
-6 3 28 1.5070 0.0231
-6 3 29 2.8367 0.0237
-6 3 30 -0.7143 -0.0381
-6 3 31 -8.3249 -0.0285
-6 3 32 -3.6049 0.0163
-6 3 33 1.6219 0.0056
-6 3 34 -1.1972 0.0168
-6 4 1 4.8407 -0.4546
-6 4 2 4.3836 0.3515
-6 4 3 -0.0774 0.4395
-6 4 4 -0.7133 -0.0841
-6 4 5 4.2746 -0.1602
-6 4 6 2.8794 0.0496
-6 4 7 -2.2761 0.0399
-6 4 8 0.2012 0.0281
-6 4 9 2.5928 0.0492
-6 4 10 -0.7645 0.0120
-6 4 11 -0.0548 0.0354
-6 4 12 2.3980 0.0010
-6 4 13 0.0103 -0.0661
-6 4 14 -0.8159 0.0162
-6 4 15 -0.5054 0.0887
-6 4 16 -0.5197 0.0169
-6 4 17 -1.0790 -0.0291
-6 4 18 -1.7533 0.0001
-6 4 19 2.0679 -0.0100
-6 4 20 1.7578 -0.0154
-6 4 21 -2.0759 -0.0002
-6 4 22 -1.0608 0.0011
-6 4 23 -1.1109 0.0024
-6 4 24 -2.5697 0.0206
-6 4 25 -2.8655 0.0491
-6 4 26 -0.9819 -0.0042
-6 4 27 1.4287 -0.0367
-6 4 28 2.2309 0.0242
-6 4 29 2.6218 0.0354
-6 4 30 -3.4945 0.0211
-6 4 31 -6.5413 0.0017
-6 4 32 1.7358 -0.0320
-6 4 33 2.0785 0.0111
-6 4 34 -4.0657 0.1050
-6 5 1 2.1239 -0.2668
-6 5 2 -4.0374 0.0611
-6 5 3 -1.9829 -0.1363
-6 5 4 5.4465 -0.2204
-6 5 5 5.9381 0.0427
-6 5 6 -2.0877 0.0936
-6 5 7 -2.6363 0.0364
-6 5 8 3.4320 0.0401
-6 5 9 1.1085 -0.0769
-6 5 10 -2.6621 -0.0633
-6 5 11 1.8609 0.0681
-6 5 12 4.2518 -0.0172
-6 5 13 2.3064 -0.0809
-6 5 14 0.3172 0.0340
-6 5 15 -3.5663 0.0861
-6 5 16 -2.2312 0.0102
-6 5 17 1.8443 -0.0552
-6 5 18 1.7179 -0.0259
-6 5 19 0.8550 0.0200
-6 5 20 -1.7808 -0.0097
-6 5 21 -1.8216 -0.0254
-6 5 22 1.1440 0.0293
-6 5 23 0.2649 0.0034
-6 5 24 -2.6414 -0.0229
-6 5 25 -4.0631 0.0381
-6 5 26 -1.2645 0.0135
-6 5 27 0.7057 -0.0240
-6 5 28 -0.6179 -0.0126
-6 5 29 -0.7858 0.0006
-6 5 30 -1.9508 0.0538
-6 5 31 0.5514 0.0642
-6 5 32 4.1844 0.0267
-6 5 33 -1.0377 0.0137
-6 6 1 0.6501 0.1172
-6 6 2 -1.1677 -0.3129
-6 6 3 -0.8471 -0.4667
-6 6 4 2.9700 -0.0183
-6 6 5 3.3548 0.1980
-6 6 6 -1.6567 -0.0248
-6 6 7 -0.2771 -0.0234
-6 6 8 3.0179 0.0430
-6 6 9 -1.2540 -0.0936
-6 6 10 -1.1612 -0.0687
-6 6 11 5.2365 0.0203
-6 6 12 3.0733 -0.0018
-6 6 13 -2.1054 0.0114
-6 6 14 -0.7580 -0.0258
-6 6 15 1.9275 -0.0605
-6 6 16 2.4812 0.0058
-6 6 17 -0.9972 0.0135
-6 6 18 -2.6637 -0.0133
-6 6 19 0.3566 0.0123
-6 6 20 1.1964 -0.0150
-6 6 21 0.9570 -0.0295
-6 6 22 0.2824 0.0271
-6 6 23 -0.2057 0.0025
-6 6 24 0.1677 -0.0221
-6 6 25 -1.4957 0.0009
-6 6 26 -3.1977 -0.0079
-6 6 27 -4.0558 -0.0029
-6 6 28 -0.9666 -0.0268
-6 6 29 3.0360 -0.0098
-6 6 30 -0.6259 0.0714
-6 6 31 -2.9468 0.0507
-6 6 32 0.6636 -0.0108
-6 6 33 2.0385 -0.0007
-6 7 1 3.4494 0.2602
-6 7 2 -0.6468 -0.2326
-6 7 3 -2.7748 -0.1467
-6 7 4 1.0270 0.1929
-6 7 5 2.0692 0.0763
-6 7 6 -1.9360 -0.1327
-6 7 7 0.9100 -0.0465
-6 7 8 5.2261 0.0250
-6 7 9 0.8966 0.0245
-6 7 10 -2.7740 0.0191
-6 7 11 -1.0354 -0.0675
-6 7 12 0.2250 -0.0060
-6 7 13 2.8003 0.0972
-6 7 14 4.1284 -0.0449
-6 7 15 0.0692 -0.1195
-6 7 16 -3.1713 -0.0016
-6 7 17 -2.4792 0.0282
-6 7 18 0.0598 -0.0052
-6 7 19 1.3729 0.0099
-6 7 20 1.8928 -0.0037
-6 7 21 1.2512 -0.0105
-6 7 22 -2.0040 0.0083
-6 7 23 -1.3883 -0.0008
-6 7 24 0.9121 0.0023
-6 7 25 -0.0413 -0.0191
-6 7 26 -0.0236 -0.0220
-6 7 27 -0.2858 0.0230
-6 7 28 -1.3459 0.0120
-6 7 29 -2.9974 -0.0099
-6 7 30 -4.5229 -0.0408
-6 7 31 -0.7429 -0.0475
-6 7 32 2.9509 0.0543
-6 7 33 1.6120 0.1062
-6 8 1 1.6354 0.0989
-6 8 2 1.0066 0.1862
-6 8 3 -2.3532 0.3421
-6 8 4 -0.6729 0.1102
-6 8 5 2.3751 -0.1657
-6 8 6 0.9815 -0.0673
-6 8 7 0.7072 0.0275
-6 8 8 1.6700 -0.0071
-6 8 9 -0.5242 0.0875
-6 8 10 -2.1220 0.0838
-6 8 11 0.6925 -0.0618
-6 8 12 3.0619 -0.0069
-6 8 13 1.0029 0.0707
-6 8 14 -2.6399 -0.0055
-6 8 15 -2.3116 -0.0387
-6 8 16 1.0926 -0.0139
-6 8 17 1.3961 -0.0011
-6 8 18 -1.6174 0.0013
-6 8 19 -2.4021 -0.0001
-6 8 20 0.8852 0.0228
-6 8 21 0.7837 0.0250
-6 8 22 -2.7339 -0.0329
-6 8 23 -1.6983 -0.0167
-6 8 24 0.8664 0.0526
-6 8 25 2.8994 0.0220
-6 8 26 2.3315 -0.0060
-6 8 27 -3.5495 -0.0052
-6 8 28 -4.2154 -0.0258
-6 8 29 0.3587 -0.0073
-6 8 30 -0.4192 0.0035
-6 8 31 -3.1424 0.0057
-6 8 32 -1.8472 0.0113
-6 9 1 1.7712 -0.1481
-6 9 2 1.4400 0.3228
-6 9 3 -0.9745 0.3505
-6 9 4 1.1163 -0.1279
-6 9 5 2.1566 -0.1908
-6 9 6 -1.2657 0.1137
-6 9 7 -3.1962 0.0936
-6 9 8 0.3991 -0.0576
-6 9 9 4.1940 0.0112
-6 9 10 2.0802 0.0673
-6 9 11 -2.0079 0.0366
-6 9 12 -2.8217 -0.0105
-6 9 13 0.1197 -0.0515
-6 9 14 2.5986 0.0387
-6 9 15 -0.3059 0.0941
-6 9 16 -3.2386 -0.0062
-6 9 17 -0.4039 -0.0306
-6 9 18 0.3645 0.0028
-6 9 19 -2.5452 -0.0195
-6 9 20 -0.9117 0.0031
-6 9 21 0.8774 0.0277
-6 9 22 -0.9305 -0.0025
-6 9 23 -1.3864 0.0178
-6 9 24 -0.2961 0.0261
-6 9 25 0.6082 -0.0112
-6 9 26 -1.3625 -0.0012
-6 9 27 -2.1341 0.0000
-6 9 28 2.3548 0.0231
-6 9 29 1.5691 0.0668
-6 9 30 -4.1776 -0.0032
-6 9 31 -3.3691 -0.0763
-6 9 32 0.4723 -0.0304
-6 10 1 -1.3113 -0.2361
-6 10 2 0.4064 -0.0703
-6 10 3 1.0093 -0.0701
-6 10 4 0.4927 -0.0757
-6 10 5 -1.2870 0.0471
-6 10 6 -1.0675 0.0555
-6 10 7 -0.3834 -0.0044
-6 10 8 0.9079 -0.0054
-6 10 9 1.4083 -0.0496
-6 10 10 -1.4298 -0.0443
-6 10 11 -2.0355 0.0579
-6 10 12 1.0154 -0.0009
-6 10 13 3.2339 -0.0764
-6 10 14 1.0216 0.0620
-6 10 15 -4.2698 0.0964
-6 10 16 -3.0592 -0.0272
-6 10 17 2.4302 -0.0269
-6 10 18 -0.1379 0.0071
-6 10 19 -3.0018 -0.0242
-6 10 20 1.6317 -0.0060
-6 10 21 2.0663 0.0195
-6 10 22 -2.0163 0.0086
-6 10 23 -2.1100 -0.0037
-6 10 24 -0.4795 -0.0400
-6 10 25 -0.4484 -0.0169
-6 10 26 -0.9533 0.0492
-6 10 27 0.9912 0.0171
-6 10 28 2.0068 -0.0108
-6 10 29 -1.1972 0.0244
-6 10 30 -1.9545 0.0074
-6 10 31 -0.6549 -0.0149
-6 11 1 -0.5433 -0.0176
-6 11 2 -1.6903 -0.3566
-6 11 3 -1.0788 -0.3793
-6 11 4 0.1275 0.0990
-6 11 5 0.6821 0.2273
-6 11 6 1.3573 -0.0993
-6 11 7 -1.7440 -0.1351
-6 11 8 -3.1680 0.0150
-6 11 9 -0.6196 -0.0534
-6 11 10 0.7719 -0.0798
-6 11 11 0.6378 0.0256
-6 11 12 -0.3819 0.0290
-6 11 13 1.0004 -0.0113
-6 11 14 1.8086 -0.0181
-6 11 15 -2.8808 -0.0249
-6 11 16 -3.1197 0.0012
-6 11 17 2.0473 0.0238
-6 11 18 1.1977 0.0057
-6 11 19 -0.9654 -0.0040
-6 11 20 0.7656 -0.0126
-6 11 21 -0.0919 -0.0286
-6 11 22 -1.8732 -0.0023
-6 11 23 0.5132 0.0026
-6 11 24 3.6441 -0.0450
-6 11 25 1.2518 -0.0188
-6 11 26 -3.1943 0.0192
-6 11 27 -1.0458 -0.0529
-6 11 28 1.6575 -0.0524
-6 11 29 -0.3273 0.0930
-6 11 30 -0.7872 0.0986
-6 12 1 -2.2247 0.2961
-6 12 2 -2.3028 -0.0968
-6 12 3 0.6099 -0.2538
-6 12 4 0.9394 0.0997
-6 12 5 -0.5133 0.1444
-6 12 6 -0.9381 -0.1174
-6 12 7 -2.1514 -0.1188
-6 12 8 -0.7884 -0.0155
-6 12 9 0.8751 -0.0016
-6 12 10 0.0788 0.0052
-6 12 11 -1.5548 -0.0253
-6 12 12 -1.8769 -0.0029
-6 12 13 2.4862 0.0260
-6 12 14 2.6709 -0.0612
-6 12 15 -3.5825 -0.0509
-6 12 16 -1.4949 0.0432
-6 12 17 3.3494 0.0208
-6 12 18 -1.1624 -0.0089
-6 12 19 -3.6250 0.0115
-6 12 20 0.8978 -0.0034
-6 12 21 2.3220 -0.0125
-6 12 22 0.8959 0.0113
-6 12 23 2.4822 0.0024
-6 12 24 3.3886 -0.0424
-6 12 25 -1.3416 -0.0531
-6 12 26 -2.5945 -0.0181
-6 12 27 2.9772 -0.0218
-6 12 28 1.4244 -0.0104
-6 12 29 -3.2694 0.0821
-6 13 1 0.8215 0.2229
-6 13 2 1.4612 0.3400
-6 13 3 0.1030 0.1749
-6 13 4 -3.2244 -0.0733
-6 13 5 -2.5047 -0.1273
-6 13 6 0.8676 0.0460
-6 13 7 1.2162 0.0989
-6 13 8 0.0918 -0.0386
-6 13 9 -1.3668 -0.0091
-6 13 10 -0.4496 0.0560
-6 13 11 -0.0938 -0.0375
-6 13 12 -1.6158 0.0022
-6 13 13 0.8285 0.0418
-6 13 14 1.5400 -0.0647
-6 13 15 -0.6265 -0.0239
-6 13 16 0.5743 0.0540
-6 13 17 -0.6747 0.0039
-6 13 18 -3.1950 -0.0111
-6 13 19 -0.0831 0.0166
-6 13 20 2.0976 0.0291
-6 13 21 0.5407 0.0218
-6 13 22 0.1372 -0.0172
-6 13 23 1.2452 -0.0122
-6 13 24 2.4066 0.0104
-6 13 25 1.7901 -0.0060
-6 13 26 1.9267 0.0112
-6 13 27 2.3959 -0.0260
-6 13 28 -1.6193 -0.0794
-6 14 1 2.5476 -0.1321
-6 14 2 -0.3292 0.3580
-6 14 3 -2.3194 0.3333
-6 14 4 -1.0497 -0.1518
-6 14 5 0.8720 -0.1986
-6 14 6 -0.7541 0.1355
-6 14 7 -0.3544 0.1912
-6 14 8 1.6210 0.0129
-6 14 9 -1.1841 0.0171
-6 14 10 -1.7286 0.0363
-6 14 11 -0.5376 -0.0512
-6 14 12 -1.2554 -0.0185
-6 14 13 0.5491 0.0255
-6 14 14 1.5828 0.0238
-6 14 15 1.1417 0.0306
-6 14 16 0.9752 -0.0272
-6 14 17 -1.2377 -0.0215
-6 14 18 -1.5255 0.0391
-6 14 19 0.0366 0.0003
-6 14 20 -0.9161 -0.0200
-6 14 21 -0.8743 0.0095
-6 14 22 0.0977 0.0113
-6 14 23 1.0945 0.0589
-6 14 24 3.8713 0.0504
-6 14 25 2.7395 -0.0574
-6 14 26 0.6425 -0.0600
-6 14 27 2.5838 -0.0093
-6 15 1 1.0840 -0.3759
-6 15 2 -3.7978 -0.1100
-6 15 3 -1.9466 0.0723
-6 15 4 3.0736 0.0152
-6 15 5 2.6211 0.0064
-6 15 6 -2.2037 0.0312
-6 15 7 -1.0803 0.0576
-6 15 8 0.2789 0.0511
-6 15 9 -2.8815 0.0184
-6 15 10 -1.4081 -0.0213
-6 15 11 0.3935 -0.0294
-6 15 12 -0.4344 -0.0033
-6 15 13 0.1583 0.0238
-6 15 14 -0.4172 0.0657
-6 15 15 0.6413 0.0097
-6 15 16 3.0940 -0.0793
-6 15 17 0.7924 -0.0291
-6 15 18 -2.2660 0.0065
-6 15 19 -1.7923 -0.0152
-6 15 20 0.1703 0.0255
-6 15 21 1.6706 0.0193
-6 15 22 -0.3736 -0.0380
-6 15 23 -1.7152 -0.0058
-6 15 24 1.7471 0.0149
-6 15 25 2.3348 -0.0127
-6 15 26 1.3454 -0.0075
-6 16 1 -0.8935 -0.2149
-6 16 2 -2.6860 -0.3591
-6 16 3 -1.3784 -0.1922
-6 16 4 3.2485 0.1975
-6 16 5 3.6553 0.1678
-6 16 6 -2.9989 -0.1667
-6 16 7 -4.0195 -0.1451
-6 16 8 -0.0416 0.0199
-6 16 9 1.0344 0.0102
-6 16 10 0.1245 0.0066
-6 16 11 -2.3158 0.0510
-6 16 12 -2.1387 -0.0025
-6 16 13 0.0211 -0.0378
-6 16 14 -1.0343 0.0111
-6 16 15 -1.5520 -0.0212
-6 16 16 1.0126 -0.0423
-6 16 17 3.0809 0.0074
-6 16 18 2.4454 -0.0037
-6 16 19 -0.3450 -0.0183
-6 16 20 -0.9399 0.0013
-6 16 21 1.6082 -0.0139
-6 16 22 0.0638 -0.0371
-6 16 23 -2.8778 -0.0376
-6 16 24 -0.3184 -0.0041
-6 16 25 1.3242 0.0424
-6 17 1 -1.6689 0.2262
-6 17 2 -3.9018 -0.0831
-6 17 3 -1.5872 -0.1859
-6 17 4 1.5610 0.1196
-6 17 5 1.1041 0.0555
-6 17 6 -1.1665 -0.1974
-6 17 7 -0.8949 -0.1138
-6 17 8 -1.7461 0.0073
-6 17 9 -0.6357 -0.0003
-6 17 10 2.9268 0.0289
-6 17 11 -0.3281 0.0483
-6 17 12 -5.6769 -0.0287
-6 17 13 -3.7145 -0.0662
-6 17 14 0.0481 -0.0284
-6 17 15 -0.7038 0.0150
-6 17 16 -0.1276 0.0577
-6 17 17 3.3106 0.0080
-6 17 18 2.5679 -0.0497
-6 17 19 -0.7083 0.0103
-6 17 20 0.3104 0.0299
-6 17 21 3.2363 -0.0273
-6 17 22 0.9834 -0.0448
-6 17 23 -2.6990 -0.0327
-6 17 24 -1.2944 0.0262
-6 18 1 -4.5802 0.4471
-6 18 2 0.8474 0.2329
-6 18 3 2.0361 -0.0704
-6 18 4 -2.6688 -0.0798
-6 18 5 -2.1265 -0.0452
-6 18 6 1.0113 0.0255
-6 18 7 -0.8815 0.0527
-6 18 8 -3.3190 -0.0154
-6 18 9 0.5267 -0.0443
-6 18 10 2.4006 -0.0357
-6 18 11 -2.9820 0.0001
-6 18 12 -5.2909 0.0243
-6 18 13 0.5642 0.0017
-6 18 14 3.3289 -0.0159
-6 18 15 -3.1907 0.0083
-6 18 16 -6.0746 0.0386
-6 18 17 -0.1944 0.0526
-6 18 18 4.6515 0.0698
-6 18 19 3.4004 0.0034
-6 18 20 -0.6205 -0.0961
-6 18 21 -0.2109 -0.0169
-6 18 22 3.2949 0.1096
-6 19 1 -1.0326 0.1087
-6 19 2 2.3140 0.2302
-6 19 3 0.9533 0.0936
-6 19 4 -2.3244 -0.1245
-6 19 5 -1.6538 -0.0125
-6 19 6 0.2534 0.2113
-6 19 7 -0.7781 0.0605
-6 19 8 -3.9300 -0.0898
-6 19 9 -4.0604 -0.0107
-6 19 10 0.2727 0.0034
-6 19 11 2.4634 -0.0070
-6 19 12 -1.3240 -0.0042
-6 19 13 -2.0014 -0.0175
-6 19 14 -0.0787 0.0456
-6 19 15 -3.2088 0.0868
-6 19 16 -3.4051 0.0263
-6 19 17 0.6643 0.0052
-6 19 18 1.6428 0.0263
-6 19 19 0.7302 0.0144
-6 19 20 0.3348 0.0366
-6 20 1 -0.3269 -0.3239
-6 20 2 4.5561 0.0347
-6 20 3 3.3599 0.1574
-6 20 4 -1.2966 -0.0428
-6 20 5 -1.8700 0.0216
-6 20 6 -0.3075 0.1279
-6 20 7 -2.0883 -0.0281
-6 20 8 -3.4783 0.0045
-6 20 9 -1.0147 0.0791
-6 20 10 0.4209 -0.0703
-6 20 11 -3.0028 -0.0758
-6 20 12 -5.1688 0.0265
-6 20 13 0.6646 0.0564
-6 20 14 2.6615 0.0867
-6 20 15 -2.7900 -0.0024
-6 20 16 -2.1163 -0.1035
-6 20 17 0.7174 0.0331
-6 20 18 0.1859 0.1394
-6 21 1 4.0233 -0.4169
-6 21 2 3.6646 -0.1452
-6 21 3 -0.4196 0.1475
-6 21 4 0.3270 0.0569
-6 21 5 1.8876 -0.0495
-6 21 6 -0.0710 -0.0526
-6 21 7 -1.5956 -0.0388
-6 21 8 -0.2279 0.0840
-6 21 9 -1.1282 0.0422
-6 21 10 -3.7512 -0.1025
-6 21 11 -4.4800 0.0074
-6 21 12 -2.9248 0.0873
-6 21 13 0.8895 -0.0147
-6 21 14 0.2049 -0.0612
-6 21 15 -2.1864 -0.0599
-6 21 16 0.8367 0.0187
-6 22 1 3.6198 -0.0545
-6 22 2 -1.5037 -0.1230
-6 22 3 -0.4556 0.0145
-6 22 4 4.2728 0.0309
-6 22 5 3.8253 -0.0676
-6 22 6 -0.0725 -0.1099
-6 22 7 -2.6113 -0.0745
-6 22 8 -0.8038 0.0869
-6 22 9 1.4404 0.1190
-6 22 10 0.1557 -0.0212
-6 22 11 -4.0497 -0.0482
-6 22 12 -4.7917 -0.0169
-6 23 1 1.6721 0.2991
-6 23 2 -1.0333 -0.1050
-6 23 3 0.9674 -0.0914
-6 23 4 3.6184 -0.0166
-6 23 5 3.0249 -0.0570
-6 23 6 -0.9055 -0.0141
-6 23 7 -2.4102 0.0184
-5 -21 1 -0.7260 -0.2242
-5 -21 2 1.5286 -0.0138
-5 -21 3 2.4033 0.0094
-5 -21 4 1.7102 -0.0761
-5 -21 5 0.8847 -0.0000
-5 -21 6 0.2652 0.1072
-5 -21 7 1.4505 -0.0380
-5 -21 8 3.5039 -0.1060
-5 -21 9 1.3483 0.1280
-5 -21 10 -1.8307 0.0519
-5 -21 11 0.6420 -0.1725
-5 -21 12 2.0604 -0.0508
-5 -20 1 0.8866 -0.0692
-5 -20 2 2.1966 -0.1512
-5 -20 3 0.1048 -0.0516
-5 -20 4 0.0864 -0.0060
-5 -20 5 2.2122 -0.0582
-5 -20 6 3.2489 0.0202
-5 -20 7 2.6014 0.0044
-5 -20 8 0.9028 -0.0495
-5 -20 9 -0.2696 0.0500
-5 -20 10 0.3419 -0.0069
-5 -20 11 1.2056 -0.0412
-5 -20 12 1.7892 0.0605
-5 -20 13 3.2922 0.0049
-5 -20 14 -0.6346 -0.0093
-5 -20 15 -5.2547 0.0279
-5 -20 16 -0.2472 -0.0442
-5 -19 1 -2.4251 0.1019
-5 -19 2 -0.9447 -0.0304
-5 -19 3 1.0423 0.0682
-5 -19 4 1.3750 0.0216
-5 -19 5 0.9314 -0.1421
-5 -19 6 1.9565 -0.0477
-5 -19 7 0.0790 -0.0022
-5 -19 8 -3.0489 -0.0258
-5 -19 9 1.7769 0.0521
-5 -19 10 6.0473 -0.0171
-5 -19 11 0.2112 -0.0579
-5 -19 12 -1.4070 0.0527
-5 -19 13 3.5997 0.0857
-5 -19 14 -2.0580 0.0427
-5 -19 15 -5.6034 -0.0756
-5 -19 16 3.1490 -0.0917
-5 -19 17 2.5481 0.1210
-5 -19 18 -4.1305 0.1023
-5 -19 19 -2.5173 -0.0677
-5 -18 1 -3.4797 0.1096
-5 -18 2 -1.7750 0.0109
-5 -18 3 0.4706 0.1484
-5 -18 4 -0.0016 0.0821
-5 -18 5 -1.5834 -0.1109
-5 -18 6 0.6868 -0.0205
-5 -18 7 -0.0428 0.0685
-5 -18 8 -3.1994 -0.0013
-5 -18 9 1.6176 -0.0481
-5 -18 10 4.7918 -0.0368
-5 -18 11 -1.1430 0.0256
-5 -18 12 -1.6610 0.0138
-5 -18 13 1.4406 -0.0091
-5 -18 14 -2.5360 0.0611
-5 -18 15 -0.3682 -0.0216
-5 -18 16 4.4407 -0.0837
-5 -18 17 -1.3914 0.1099
-5 -18 18 -4.3825 0.0846
-5 -18 19 -0.7723 -0.0583
-5 -18 20 2.0006 0.0186
-5 -18 21 2.0821 -0.0549
-5 -17 1 -3.2769 -0.1152
-5 -17 2 -3.8764 -0.0236
-5 -17 3 0.2075 0.1248
-5 -17 4 1.2181 0.1163
-5 -17 5 -0.9543 0.0214
-5 -17 6 0.9163 0.0330
-5 -17 7 -0.6118 0.0342
-5 -17 8 -4.7488 -0.0112
-5 -17 9 -0.6011 -0.0101
-5 -17 10 4.2488 0.0329
-5 -17 11 1.2412 0.0292
-5 -17 12 -1.7009 -0.0671
-5 -17 13 -2.4087 -0.0506
-5 -17 14 -1.9702 0.0949
-5 -17 15 2.8659 0.0184
-5 -17 16 3.4860 -0.1004
-5 -17 17 0.1508 0.0341
-5 -17 18 -0.5986 0.0555
-5 -17 19 -2.5441 -0.0090
-5 -17 20 -1.0083 0.0119
-5 -17 21 2.4121 -0.0851
-5 -17 22 2.3726 -0.0337
-5 -17 23 1.7347 0.1144
-5 -16 1 -1.5204 -0.1835
-5 -16 2 -1.2860 -0.1012
-5 -16 3 1.3610 -0.0738
-5 -16 4 1.9354 0.0588
-5 -16 5 -1.0919 0.1035
-5 -16 6 -2.2487 -0.0020
-5 -16 7 -0.8046 -0.0348
-5 -16 8 1.3902 0.0175
-5 -16 9 1.1884 0.0043
-5 -16 10 0.2907 0.0186
-5 -16 11 1.7590 0.0971
-5 -16 12 0.6964 0.0208
-5 -16 13 -4.1266 -0.1120
-5 -16 14 -2.5046 -0.0100
-5 -16 15 4.0850 0.0843
-5 -16 16 3.7207 -0.0154
-5 -16 17 1.7852 -0.0578
-5 -16 18 0.6843 -0.0252
-5 -16 19 -1.2456 0.0290
-5 -16 20 1.2750 0.0248
-5 -16 21 1.8987 -0.0779
-5 -16 22 0.8557 -0.0183
-5 -16 23 2.4655 0.0653
-5 -16 24 2.2065 -0.0695
-5 -15 1 2.4079 0.0885
-5 -15 2 -1.8612 -0.0734
-5 -15 3 -1.6717 -0.2550
-5 -15 4 0.7629 -0.0543
-5 -15 5 0.0921 0.0644
-5 -15 6 -1.3997 -0.0656
-5 -15 7 1.3303 -0.0757
-5 -15 8 4.1080 0.0206
-5 -15 9 1.0035 0.0049
-5 -15 10 0.5671 -0.0284
-5 -15 11 3.2450 0.0564
-5 -15 12 -0.3907 0.0926
-5 -15 13 -4.2509 -0.0398
-5 -15 14 0.0429 -0.0708
-5 -15 15 3.2078 0.0425
-5 -15 16 1.8894 0.0461
-5 -15 17 3.3666 -0.0334
-5 -15 18 2.0360 -0.0444
-5 -15 19 -0.4303 0.0188
-5 -15 20 1.4131 0.0044
-5 -15 21 2.1422 -0.0840
-5 -15 22 3.3109 -0.0084
-5 -15 23 3.5518 0.1040
-5 -15 24 1.5761 -0.0668
-5 -15 25 -0.6028 -0.1773
-5 -15 26 -2.2823 0.0798
-5 -14 1 1.4550 0.3855
-5 -14 2 -1.2554 0.0686
-5 -14 3 -1.6682 -0.2036
-5 -14 4 1.4999 -0.1385
-5 -14 5 2.6826 -0.0174
-5 -14 6 -2.5096 0.0074
-5 -14 7 -2.1034 -0.0183
-5 -14 8 5.0425 -0.0335
-5 -14 9 4.8654 -0.0120
-5 -14 10 0.3406 -0.0580
-5 -14 11 -0.8077 -0.0582
-5 -14 12 -0.3333 0.0748
-5 -14 13 0.1903 0.0518
-5 -14 14 0.9649 -0.0662
-5 -14 15 0.9726 -0.0107
-5 -14 16 1.8924 0.0664
-5 -14 17 1.7793 0.0215
-5 -14 18 -1.6443 -0.0364
-5 -14 19 -0.9130 -0.0243
-5 -14 20 2.7286 0.0248
-5 -14 21 5.5812 -0.0021
-5 -14 22 5.1897 -0.0610
-5 -14 23 -1.8713 0.0121
-5 -14 24 -2.1838 0.0051
-5 -14 25 3.5685 -0.0936
-5 -14 26 3.0103 0.0517
-5 -14 27 1.4110 0.0867
-5 -13 1 3.5862 0.1542
-5 -13 2 0.4080 0.1523
-5 -13 3 -1.9476 0.1469
-5 -13 4 1.5880 -0.0413
-5 -13 5 3.4945 -0.0797
-5 -13 6 -2.3345 0.1037
-5 -13 7 -1.7218 0.0790
-5 -13 8 3.9360 -0.0678
-5 -13 9 1.5241 -0.0105
-5 -13 10 -2.3984 -0.0141
-5 -13 11 -0.1006 -0.1130
-5 -13 12 3.0285 -0.0146
-5 -13 13 1.7487 0.0808
-5 -13 14 -0.5909 -0.0039
-5 -13 15 -0.3322 -0.0613
-5 -13 16 0.0851 0.0047
-5 -13 17 -2.6653 0.0736
-5 -13 18 -2.5461 0.0197
-5 -13 19 1.5480 -0.0583
-5 -13 20 1.7694 0.0220
-5 -13 21 3.6258 0.0357
-5 -13 22 2.9012 -0.1007
-5 -13 23 -4.1628 -0.0002
-5 -13 24 -1.1938 0.0979
-5 -13 25 4.2770 -0.0627
-5 -13 26 1.7351 -0.0053
-5 -13 27 0.3941 0.0878
-5 -13 28 0.7398 -0.0749
-5 -12 1 1.8884 -0.4415
-5 -12 2 0.8919 0.1134
-5 -12 3 -0.7786 0.4849
-5 -12 4 3.1840 0.0898
-5 -12 5 5.1941 -0.1568
-5 -12 6 -1.3716 0.0788
-5 -12 7 -2.6729 0.1363
-5 -12 8 1.2850 -0.0271
-5 -12 9 0.2614 -0.0060
-5 -12 10 -1.7468 0.0600
-5 -12 11 1.1992 -0.0170
-5 -12 12 3.0971 -0.0748
-5 -12 13 -1.0507 -0.0114
-5 -12 14 -2.9014 0.0504
-5 -12 15 1.4716 -0.0019
-5 -12 16 1.1437 -0.0545
-5 -12 17 -4.6839 0.0070
-5 -12 18 -1.6800 0.0358
-5 -12 19 1.6752 -0.0267
-5 -12 20 -3.1724 0.0102
-5 -12 21 0.4780 0.0448
-5 -12 22 4.4752 -0.0534
-5 -12 23 -1.6745 -0.0211
-5 -12 24 -4.2652 0.0596
-5 -12 25 -2.0469 -0.0007
-5 -12 26 2.7182 0.0160
-5 -12 27 5.7765 -0.0054
-5 -12 28 1.4313 -0.1055
-5 -12 29 -2.8178 0.0960
-5 -11 1 1.2477 -0.5678
-5 -11 2 -0.3893 -0.0967
-5 -11 3 -1.6104 0.2576
-5 -11 4 4.7656 0.1451
-5 -11 5 5.3426 -0.0608
-5 -11 6 -1.8463 -0.1022
-5 -11 7 -0.2203 0.0128
-5 -11 8 3.9534 0.0860
-5 -11 9 -0.7301 0.0315
-5 -11 10 -4.7382 0.0457
-5 -11 11 -0.2718 0.0779
-5 -11 12 3.2225 -0.0415
-5 -11 13 0.2598 -0.0799
-5 -11 14 -1.2907 0.0382
-5 -11 15 1.4288 0.0531
-5 -11 16 -0.1910 -0.0306
-5 -11 17 -3.8694 -0.0424
-5 -11 18 0.4181 -0.0027
-5 -11 19 1.3693 0.0035
-5 -11 20 -2.4632 0.0072
-5 -11 21 0.1183 0.0142
-5 -11 22 -0.7050 -0.0109
-5 -11 23 -3.2040 -0.0006
-5 -11 24 -0.6245 0.0203
-5 -11 25 0.7849 -0.0138
-5 -11 26 2.8376 0.0047
-5 -11 27 3.1725 0.0167
-5 -11 28 -0.5269 -0.0623
-5 -11 29 -2.9899 0.0308
-5 -11 30 -1.9707 0.1923
-5 -10 1 -1.1028 0.0890
-5 -10 2 -1.8629 -0.2654
-5 -10 3 -0.4436 -0.3754
-5 -10 4 4.8908 0.0326
-5 -10 5 3.2054 0.1301
-5 -10 6 -1.0027 -0.1505
-5 -10 7 1.3199 -0.0852
-5 -10 8 1.9709 0.0999
-5 -10 9 -1.3822 -0.0113
-5 -10 10 -1.2333 -0.0334
-5 -10 11 0.9811 0.0826
-5 -10 12 0.5711 0.0255
-5 -10 13 -0.6286 -0.0527
-5 -10 14 -0.2623 -0.0046
-5 -10 15 2.2678 0.0573
-5 -10 16 1.1925 0.0380
-5 -10 17 -2.1043 -0.0476
-5 -10 18 0.6819 -0.0429
-5 -10 19 2.4195 0.0247
-5 -10 20 0.5624 -0.0122
-5 -10 21 -2.1716 -0.0305
-5 -10 22 -4.2020 0.0309
-5 -10 23 0.7884 0.0217
-5 -10 24 2.9665 -0.0123
-5 -10 25 -0.7686 0.0015
-5 -10 26 -0.0318 0.0279
-5 -10 27 2.0593 0.0039
-5 -10 28 2.6161 -0.0947
-5 -10 29 1.0079 -0.0253
-5 -10 30 -1.8064 0.1780
-5 -10 31 -1.4961 0.0753
-5 -9 1 -0.2298 0.7246
-5 -9 2 4.1548 -0.2062
-5 -9 3 1.0704 -0.6594
-5 -9 4 -0.9632 -0.0634
-5 -9 5 -1.1378 0.2680
-5 -9 6 0.1037 -0.0009
-5 -9 7 1.5569 -0.1287
-5 -9 8 1.4677 -0.0492
-5 -9 9 1.5830 -0.0335
-5 -9 10 0.7391 -0.0324
-5 -9 11 -3.0001 -0.0007
-5 -9 12 -2.1912 0.0458
-5 -9 13 3.0869 0.0423
-5 -9 14 2.5808 -0.0315
-5 -9 15 -0.7011 -0.0132
-5 -9 16 -1.6593 0.0634
-5 -9 17 1.1856 0.0092
-5 -9 18 4.5078 -0.0486
-5 -9 19 2.2610 -0.0092
-5 -9 20 0.4474 -0.0060
-5 -9 21 -1.0309 -0.0028
-5 -9 22 -2.7591 0.0204
-5 -9 23 -0.7509 0.0093
-5 -9 24 0.1030 0.0228
-5 -9 25 1.3113 -0.0009
-5 -9 26 1.6680 -0.0350
-5 -9 27 -0.2089 0.0217
-5 -9 28 1.6991 -0.0021
-5 -9 29 2.5722 -0.0538
-5 -9 30 0.5371 0.0613
-5 -9 31 0.1993 0.0789
-5 -9 32 1.0936 -0.0594
-5 -8 1 6.0348 0.5191
-5 -8 2 4.9510 0.1301
-5 -8 3 -4.2063 -0.1231
-5 -8 4 -5.6460 -0.0610
-5 -8 5 1.3971 0.0745
-5 -8 6 4.4339 0.1152
-5 -8 7 -0.8321 -0.0530
-5 -8 8 -3.3973 -0.1399
-5 -8 9 1.6467 0.0096
-5 -8 10 3.2154 0.0169
-5 -8 11 -2.9746 -0.0761
-5 -8 12 -2.9798 0.0379
-5 -8 13 2.0958 0.1105
-5 -8 14 1.1254 -0.0273
-5 -8 15 -0.8406 -0.0943
-5 -8 16 0.0356 0.0041
-5 -8 17 2.7189 0.0585
-5 -8 18 2.6222 0.0142
-5 -8 19 0.4397 -0.0165
-5 -8 20 1.9078 -0.0060
-5 -8 21 1.0258 0.0123
-5 -8 22 -1.5018 -0.0001
-5 -8 23 -2.0590 -0.0002
-5 -8 24 -1.1389 0.0273
-5 -8 25 1.8125 -0.0092
-5 -8 26 -0.2282 -0.0354
-5 -8 27 -3.0014 0.0284
-5 -8 28 0.0402 0.0325
-5 -8 29 2.6253 -0.0340
-5 -8 30 3.0623 0.0073
-5 -8 31 1.4610 0.0669
-5 -8 32 0.0757 -0.0066
-5 -7 1 -0.2134 -0.2876
-5 -7 2 7.9813 0.4509
-5 -7 3 0.4535 0.6071
-5 -7 4 -5.4033 -0.0770
-5 -7 5 1.8485 -0.2587
-5 -7 6 2.9867 0.1089
-5 -7 7 -5.4181 0.0692
-5 -7 8 -3.8148 -0.0765
-5 -7 9 4.8716 0.0550
-5 -7 10 2.0405 0.0396
-5 -7 11 -5.9191 -0.0593
-5 -7 12 -2.0594 -0.0014
-5 -7 13 2.5069 0.0440
-5 -7 14 -0.0902 0.0057
-5 -7 15 -1.4886 -0.0570
-5 -7 16 -0.5700 -0.0392
-5 -7 17 2.5066 0.0510
-5 -7 18 2.7651 0.0470
-5 -7 19 0.0144 -0.0189
-5 -7 20 -0.5919 0.0024
-5 -7 21 0.4203 0.0257
-5 -7 22 2.0844 -0.0330
-5 -7 23 -0.0961 -0.0264
-5 -7 24 -1.8266 0.0400
-5 -7 25 -0.9305 0.0237
-5 -7 26 -3.1600 -0.0350
-5 -7 27 -2.1996 -0.0165
-5 -7 28 0.7502 0.0496
-5 -7 29 0.4552 0.0047
-5 -7 30 0.5952 -0.0488
-5 -7 31 0.8770 0.0482
-5 -7 32 1.3017 0.0754
-5 -7 33 1.5093 -0.0376
-5 -6 1 7.6773 -0.7386
-5 -6 2 13.5563 0.3201
-5 -6 3 -4.0389 0.5937
-5 -6 4 -10.1189 -0.1087
-5 -6 5 3.9289 -0.2793
-5 -6 6 5.4681 0.0693
-5 -6 7 -4.5356 0.1308
-5 -6 8 -3.3866 0.0291
-5 -6 9 2.4800 -0.0034
-5 -6 10 -0.9157 -0.0041
-5 -6 11 -4.0614 0.0277
-5 -6 12 -0.7607 -0.0363
-5 -6 13 -1.0645 -0.0707
-5 -6 14 -0.5682 0.0431
-5 -6 15 1.1482 0.0483
-5 -6 16 -1.0071 -0.0366
-5 -6 17 -0.3275 -0.0125
-5 -6 18 0.8888 0.0359
-5 -6 19 0.1687 0.0059
-5 -6 20 0.4488 -0.0169
-5 -6 21 2.0902 -0.0132
-5 -6 22 1.0637 -0.0107
-5 -6 23 -3.2626 0.0137
-5 -6 24 -1.4759 0.0114
-5 -6 25 1.2619 0.0130
-5 -6 26 -0.4053 0.0083
-5 -6 27 -0.5041 -0.0445
-5 -6 28 -2.2049 -0.0191
-5 -6 29 -2.5237 0.0209
-5 -6 30 1.5794 -0.0204
-5 -6 31 2.9675 0.0038
-5 -6 32 0.5669 0.0735
-5 -6 33 -1.0125 0.0220
-5 -5 1 1.5598 -0.4251
-5 -5 2 5.2176 -0.2634
-5 -5 3 -2.5140 -0.0853
-5 -5 4 -1.9262 0.0460
-5 -5 5 6.5984 0.0373
-5 -5 6 2.1144 -0.0466
-5 -5 7 -5.2695 0.0670
-5 -5 8 -1.5185 0.1154
-5 -5 9 2.4420 -0.0716
-5 -5 10 -2.0424 -0.0666
-5 -5 11 -2.5627 0.0788
-5 -5 12 0.9173 -0.0243
-5 -5 13 -1.9742 -0.1072
-5 -5 14 -3.0013 0.0259
-5 -5 15 -1.5802 0.0981
-5 -5 16 -0.4855 -0.0048
-5 -5 17 2.3893 -0.0792
-5 -5 18 2.1364 -0.0011
-5 -5 19 -0.2958 0.0359
-5 -5 20 -1.3185 -0.0173
-5 -5 21 -0.6611 -0.0255
-5 -5 22 -1.6724 0.0190
-5 -5 23 -0.8882 0.0285
-5 -5 24 3.8612 -0.0289
-5 -5 25 1.4183 -0.0147
-5 -5 26 -3.0501 0.0289
-5 -5 27 -1.8102 -0.0249
-5 -5 28 -0.2628 -0.0310
-5 -5 29 2.2212 0.0138
-5 -5 30 3.6843 -0.0339
-5 -5 31 1.8742 -0.0304
-5 -5 32 -0.8850 0.1055
-5 -5 33 -1.3081 0.0624
-5 -4 1 1.2075 0.2635
-5 -4 2 6.1839 -0.6546
-5 -4 3 1.8417 -0.5912
-5 -4 4 0.6035 0.2611
-5 -4 5 0.3471 0.2808
-5 -4 6 -2.2330 -0.1598
-5 -4 7 1.3940 -0.0423
-5 -4 8 4.9445 0.1225
-5 -4 9 -0.3638 -0.0294
-5 -4 10 -5.3956 -0.0603
-5 -4 11 0.7933 0.0216
-5 -4 12 2.2653 0.0262
-5 -4 13 -5.6561 -0.0116
-5 -4 14 -3.6992 -0.0557
-5 -4 15 2.4628 0.0092
-5 -4 16 2.0227 0.0358
-5 -4 17 -0.3547 -0.0430
-5 -4 18 -1.0282 -0.0162
-5 -4 19 -0.8842 0.0289
-5 -4 20 0.3346 0.0027
-5 -4 21 1.8542 -0.0280
-5 -4 22 -1.4157 -0.0077
-5 -4 23 -1.8697 0.0308
-5 -4 24 1.4292 -0.0185
-5 -4 25 -0.4342 -0.0413
-5 -4 26 -0.1337 0.0298
-5 -4 27 1.6884 0.0253
-5 -4 28 0.1234 -0.0370
-5 -4 29 0.4655 -0.0052
-5 -4 30 3.5046 0.0170
-5 -4 31 4.9528 -0.0217
-5 -4 32 0.8166 0.0309
-5 -4 33 -1.4066 0.0394
-5 -4 34 1.3424 -0.0826
-5 -3 1 4.8590 0.6666
-5 -3 2 -3.5195 -0.2892
-5 -3 3 -0.4329 -0.4029
-5 -3 4 5.6615 0.1867
-5 -3 5 -0.3788 0.1852
-5 -3 6 -2.7643 -0.0918
-5 -3 7 4.4627 -0.0999
-5 -3 8 3.5740 -0.0030
-5 -3 9 -4.7552 0.0857
-5 -3 10 -4.9764 0.0462
-5 -3 11 3.3111 -0.0812
-5 -3 12 2.2742 0.0169
-5 -3 13 -3.2123 0.0878
-5 -3 14 -0.3472 -0.0688
-5 -3 15 1.0147 -0.0514
-5 -3 16 -1.3686 0.0518
-5 -3 17 -0.8349 0.0171
-5 -3 18 1.0001 -0.0324
-5 -3 19 0.4478 -0.0327
-5 -3 20 1.2024 0.0195
-5 -3 21 0.3994 0.0145
-5 -3 22 -4.2374 -0.0224
-5 -3 23 -0.1798 0.0105
-5 -3 24 4.5276 0.0118
-5 -3 25 0.6472 -0.0272
-5 -3 26 -0.5931 -0.0037
-5 -3 27 -0.4671 0.0311
-5 -3 28 -1.3187 0.0046
-5 -3 29 0.7542 -0.0050
-5 -3 30 4.9020 0.0001
-5 -3 31 5.1833 -0.0018
-5 -3 32 0.0824 0.0408
-5 -3 33 -0.6700 0.0404
-5 -3 34 0.5173 -0.0099
-5 -2 1 -0.3081 0.4283
-5 -2 2 -7.9288 0.4770
-5 -2 3 7.2869 0.1834
-5 -2 4 13.0411 -0.1746
-5 -2 5 -3.0080 -0.1091
-5 -2 6 -6.4485 0.1341
-5 -2 7 3.6012 -0.0338
-5 -2 8 1.5090 -0.1593
-5 -2 9 -7.9090 0.0820
-5 -2 10 -4.6909 0.1216
-5 -2 11 5.7605 -0.0804
-5 -2 12 3.0954 -0.0190
-5 -2 13 -3.3350 0.0931
-5 -2 14 -0.5427 0.0096
-5 -2 15 2.2855 -0.0438
-5 -2 16 0.1035 -0.0148
-5 -2 17 -0.4279 0.0399
-5 -2 18 1.6149 -0.0009
-5 -2 19 -0.1687 -0.0597
-5 -2 20 -1.4586 0.0170
-5 -2 21 -1.6660 0.0436
-5 -2 22 -0.7885 -0.0167
-5 -2 23 4.8131 -0.0103
-5 -2 24 3.4194 0.0364
-5 -2 25 -2.0437 0.0097
-5 -2 26 -0.8040 -0.0360
-5 -2 27 0.9833 -0.0039
-5 -2 28 0.4473 0.0107
-5 -2 29 0.1815 -0.0091
-5 -2 30 2.6418 0.0393
-5 -2 31 2.8781 0.0856
-5 -2 32 -0.2928 -0.0069
-5 -2 33 -0.3988 -0.0895
-5 -2 34 -0.9191 0.0324
-5 -1 1 4.2493 -0.2213
-5 -1 2 -5.2040 0.6753
-5 -1 3 10.5930 0.4809
-5 -1 4 15.2095 -0.3420
-5 -1 5 -1.7250 -0.2352
-5 -1 6 -4.7531 0.2159
-5 -1 7 2.8898 0.0721
-5 -1 8 -2.2325 -0.1410
-5 -1 9 -9.4175 -0.0449
-5 -1 10 -1.6801 0.0679
-5 -1 11 4.7409 0.0375
-5 -1 12 -2.5633 -0.0371
-5 -1 13 -3.9873 -0.0348
-5 -1 14 4.4186 0.0589
-5 -1 15 6.4310 0.0292
-5 -1 16 -0.1511 -0.0490
-5 -1 17 -2.2871 0.0299
-5 -1 18 0.6877 0.0344
-5 -1 19 0.0761 -0.0385
-5 -1 20 -0.1173 -0.0189
-5 -1 21 -0.3815 0.0253
-5 -1 22 0.0582 0.0266
-5 -1 23 2.3071 -0.0093
-5 -1 24 0.2524 0.0024
-5 -1 25 0.3288 0.0163
-5 -1 26 3.2951 -0.0262
-5 -1 27 2.1921 -0.0189
-5 -1 28 -1.5430 0.0247
-5 -1 29 -1.5838 0.0281
-5 -1 30 3.3146 0.0360
-5 -1 31 2.4108 0.0260
-5 -1 32 -1.3105 -0.0678
-5 -1 33 -1.1013 -0.0853
-5 -1 34 -2.3760 0.0492
-5 0 1 2.1450 -0.5758
-5 0 2 -4.2342 0.0507
-5 0 3 13.3244 0.1680
-5 0 4 16.7037 -0.0674
-5 0 5 2.1924 -0.0236
-5 0 6 0.7137 0.0102
-5 0 7 4.7095 0.0501
-5 0 8 -3.9990 0.0610
-5 0 9 -10.5314 -0.1094
-5 0 10 -2.6489 -0.0982
-5 0 11 1.8473 0.0767
-5 0 12 -1.3916 0.0071
-5 0 13 -0.0662 -0.0834
-5 0 14 3.3121 0.0574
-5 0 15 2.8213 0.0613
-5 0 16 -0.9211 -0.0541
-5 0 17 0.2250 -0.0242
-5 0 18 4.3622 0.0385
-5 0 19 2.3170 0.0415
-5 0 20 -2.1898 -0.0280
-5 0 21 -3.3556 -0.0420
-5 0 22 0.4579 0.0220
-5 0 23 2.2598 0.0055
-5 0 24 1.3757 -0.0124
-5 0 25 3.2395 0.0181
-5 0 26 1.3962 0.0004
-5 0 27 -2.4240 -0.0289
-5 0 28 -1.8058 0.0046
-5 0 29 3.1819 0.0334
-5 0 30 5.0795 0.0023
-5 0 31 -1.5581 -0.0354
-5 0 32 -3.6706 -0.0270
-5 0 33 -1.3285 -0.0022
-5 0 34 -1.4869 -0.0393
-5 1 1 5.5498 -0.2596
-5 1 2 2.8256 -0.6079
-5 1 3 8.2885 -0.3311
-5 1 4 10.0766 0.3026
-5 1 5 8.5364 0.2466
-5 1 6 9.0030 -0.2390
-5 1 7 2.8631 -0.1067
-5 1 8 -7.6568 0.1396
-5 1 9 -6.4513 -0.0485
-5 1 10 1.8648 -0.1171
-5 1 11 0.8218 0.0639
-5 1 12 -2.2202 0.0609
-5 1 13 -1.3988 -0.0470
-5 1 14 -0.0708 -0.0234
-5 1 15 2.3212 0.0026
-5 1 16 2.1131 -0.0016
-5 1 17 1.7136 -0.0187
-5 1 18 1.8340 -0.0020
-5 1 19 -0.0498 0.0502
-5 1 20 -1.0012 -0.0006
-5 1 21 0.8154 -0.0423
-5 1 22 2.3343 -0.0002
-5 1 23 -0.5247 0.0029
-5 1 24 -0.8244 -0.0257
-5 1 25 1.4742 -0.0076
-5 1 26 0.8754 0.0130
-5 1 27 0.8219 -0.0275
-5 1 28 -0.5063 -0.0330
-5 1 29 0.0243 0.0139
-5 1 30 0.6074 0.0046
-5 1 31 -2.8383 -0.0327
-5 1 32 -1.0316 0.0144
-5 1 33 0.4531 0.0404
-5 1 34 -1.0294 -0.0774
-5 2 1 5.7567 0.2853
-5 2 2 2.2407 -0.3884
-5 2 3 3.1833 -0.3199
-5 2 4 7.4372 0.2276
-5 2 5 9.8749 0.1148
-5 2 6 6.2435 -0.2329
-5 2 7 -1.1773 -0.1329
-5 2 8 -2.6015 0.0641
-5 2 9 2.6440 0.0916
-5 2 10 1.1191 0.0006
-5 2 11 -4.3245 -0.0369
-5 2 12 -0.4827 0.0332
-5 2 13 1.5899 0.0275
-5 2 14 -1.4029 -0.0697
-5 2 15 -0.4947 -0.0421
-5 2 16 0.2642 0.0660
-5 2 17 -0.0241 0.0116
-5 2 18 1.2554 -0.0477
-5 2 19 2.6105 0.0205
-5 2 20 0.9755 0.0418
-5 2 21 -0.8775 -0.0121
-5 2 22 -1.0258 -0.0321
-5 2 23 -1.2501 -0.0059
-5 2 24 1.4465 -0.0237
-5 2 25 2.7102 -0.0244
-5 2 26 0.9094 0.0158
-5 2 27 -1.9635 -0.0107
-5 2 28 -3.2700 -0.0408
-5 2 29 3.3389 -0.0194
-5 2 30 2.2600 -0.0150
-5 2 31 -7.1463 -0.0178
-5 2 32 -4.1457 0.0452
-5 2 33 0.2234 0.0635
-5 2 34 -0.7465 -0.0351
-5 3 1 8.7578 0.4445
-5 3 2 7.9717 0.3264
-5 3 3 -1.2448 0.0906
-5 3 4 -1.3331 -0.1891
-5 3 5 6.1979 -0.2206
-5 3 6 4.1786 0.0777
-5 3 7 -2.1477 0.0836
-5 3 8 2.1207 -0.0579
-5 3 9 6.2214 0.0575
-5 3 10 -2.5855 0.0470
-5 3 11 -4.9357 -0.0689
-5 3 12 5.0147 0.0007
-5 3 13 3.2711 0.0523
-5 3 14 -4.9997 -0.0240
-5 3 15 -2.9058 -0.0113
-5 3 16 1.7997 0.0635
-5 3 17 0.1540 0.0325
-5 3 18 -1.7576 -0.0326
-5 3 19 1.6371 -0.0391
-5 3 20 2.5432 0.0214
-5 3 21 -0.7648 0.0330
-5 3 22 -2.8634 -0.0145
-5 3 23 -1.4775 -0.0016
-5 3 24 0.6981 0.0088
-5 3 25 -0.3400 -0.0110
-5 3 26 0.9572 -0.0163
-5 3 27 1.4550 0.0034
-5 3 28 0.7817 -0.0002
-5 3 29 3.2145 -0.0553
-5 3 30 -4.3391 -0.0501
-5 3 31 -9.7027 0.0286
-5 3 32 0.0700 0.0542
-5 3 33 2.0134 0.0052
-5 3 34 -2.3242 0.0237
-5 4 1 11.7098 0.0385
-5 4 2 -0.7486 0.4627
-5 4 3 -9.3188 0.3073
-5 4 4 4.0119 -0.3009
-5 4 5 12.4826 -0.2088
-5 4 6 -2.9119 0.2892
-5 4 7 -10.8250 0.1405
-5 4 8 3.8939 -0.1292
-5 4 9 9.1822 -0.0060
-5 4 10 -3.1128 0.0535
-5 4 11 -1.9969 -0.0327
-5 4 12 8.3300 -0.0377
-5 4 13 2.5018 0.0359
-5 4 14 -6.4203 0.0696
-5 4 15 -2.6294 0.0313
-5 4 16 2.6137 -0.0136
-5 4 17 -0.4464 0.0053
-5 4 18 -1.5045 0.0050
-5 4 19 3.3497 -0.0424
-5 4 20 1.9376 -0.0002
-5 4 21 -3.3643 0.0419
-5 4 22 -3.4595 0.0188
-5 4 23 -0.2124 0.0148
-5 4 24 -0.3919 0.0182
-5 4 25 -1.1476 -0.0034
-5 4 26 2.1675 -0.0261
-5 4 27 -0.2336 0.0108
-5 4 28 -1.1350 0.0139
-5 4 29 4.1316 -0.0356
-5 4 30 -1.4258 -0.0018
-5 4 31 -5.0548 0.0419
-5 4 32 0.8863 -0.0171
-5 4 33 -1.5454 -0.0314
-5 4 34 -3.8852 0.1076
-5 5 1 4.2718 -0.4428
-5 5 2 -1.4044 -0.0685
-5 5 3 -1.4002 0.1191
-5 5 4 9.4752 0.0055
-5 5 5 6.6655 0.0829
-5 5 6 -11.5317 0.1140
-5 5 7 -10.4417 -0.0259
-5 5 8 7.8527 -0.0384
-5 5 9 7.6487 -0.0117
-5 5 10 -5.0639 0.0206
-5 5 11 -0.3617 0.0347
-5 5 12 9.3966 -0.0488
-5 5 13 3.3367 -0.0228
-5 5 14 -5.5782 0.0916
-5 5 15 -2.8348 0.0411
-5 5 16 3.4847 -0.0817
-5 5 17 1.7151 -0.0312
-5 5 18 -0.8878 0.0517
-5 5 19 0.6936 0.0079
-5 5 20 0.5239 -0.0263
-5 5 21 -0.1392 0.0042
-5 5 22 0.0690 0.0235
-5 5 23 -0.3946 -0.0047
-5 5 24 -2.6482 0.0065
-5 5 25 -2.3359 0.0222
-5 5 26 0.0442 -0.0231
-5 5 27 -2.0412 -0.0086
-5 5 28 1.1625 0.0262
-5 5 29 5.2103 0.0169
-5 5 30 -1.5511 0.0242
-5 5 31 -1.9465 0.0243
-5 5 32 2.4572 -0.0361
-5 5 33 -2.2826 -0.0284
-5 6 1 8.8073 -0.3700
-5 6 2 0.5821 -0.4237
-5 6 3 -3.9384 -0.1548
-5 6 4 5.7435 0.2539
-5 6 5 5.7896 0.1993
-5 6 6 -7.2966 -0.1879
-5 6 7 -6.2999 -0.1214
-5 6 8 4.1581 0.0813
-5 6 9 1.0228 -0.0409
-5 6 10 -4.6939 -0.0235
-5 6 11 2.3308 0.0810
-5 6 12 6.8361 -0.0103
-5 6 13 0.9113 -0.0630
-5 6 14 -2.3390 -0.0098
-5 6 15 1.4870 0.0115
-5 6 16 1.9937 -0.0116
-5 6 17 -2.6455 -0.0169
-5 6 18 -1.1194 0.0047
-5 6 19 3.5094 0.0145
-5 6 20 2.6422 -0.0212
-5 6 21 -0.2493 -0.0223
-5 6 22 -0.9505 0.0143
-5 6 23 0.1946 -0.0228
-5 6 24 -0.7563 -0.0307
-5 6 25 -2.0415 0.0147
-5 6 26 -2.7598 0.0237
-5 6 27 -2.7329 0.0012
-5 6 28 3.3301 -0.0389
-5 6 29 3.9959 -0.0100
-5 6 30 -3.2591 0.0707
-5 6 31 -1.4570 0.0449
-5 6 32 2.3828 -0.0795
-5 6 33 -0.3061 -0.0368
-5 7 1 2.5263 0.2132
-5 7 2 -4.6546 -0.1477
-5 7 3 -1.2009 -0.2046
-5 7 4 8.8300 0.1407
-5 7 5 5.0738 0.0481
-5 7 6 -5.2935 -0.2345
-5 7 7 -2.8959 -0.0381
-5 7 8 2.3452 0.0962
-5 7 9 -2.2719 -0.0590
-5 7 10 -5.5689 -0.0554
-5 7 11 -0.2504 0.0282
-5 7 12 4.1400 0.0459
-5 7 13 3.1629 -0.0180
-5 7 14 0.2663 -0.0975
-5 7 15 -1.6434 -0.0179
-5 7 16 -2.3750 0.0630
-5 7 17 -1.1802 -0.0156
-5 7 18 2.1524 -0.0413
-5 7 19 2.8735 0.0309
-5 7 20 0.5129 0.0013
-5 7 21 -1.9285 -0.0328
-5 7 22 -1.6954 -0.0014
-5 7 23 1.0030 -0.0164
-5 7 24 1.1002 -0.0155
-5 7 25 -0.3066 0.0049
-5 7 26 -2.1603 0.0008
-5 7 27 -2.1904 -0.0159
-5 7 28 1.7500 -0.0327
-5 7 29 -0.4180 -0.0068
-5 7 30 -4.5335 0.0345
-5 7 31 0.4099 -0.0028
-5 7 32 3.9915 -0.0749
-5 7 33 1.4377 0.0264
-5 8 1 -0.5628 0.5676
-5 8 2 -1.4695 0.2874
-5 8 3 2.2297 -0.0591
-5 8 4 6.5048 -0.1108
-5 8 5 2.9034 -0.0616
-5 8 6 -1.8356 0.0331
-5 8 7 -0.8884 0.0712
-5 8 8 0.4927 -0.0135
-5 8 9 -1.6029 -0.0022
-5 8 10 -3.0927 -0.0157
-5 8 11 -0.5472 -0.0766
-5 8 12 1.5113 0.0375
-5 8 13 -0.5609 0.0497
-5 8 14 -2.4462 -0.0783
-5 8 15 0.0046 -0.0238
-5 8 16 2.0243 0.0635
-5 8 17 -0.4820 -0.0047
-5 8 18 -2.8715 -0.0322
-5 8 19 -1.1011 0.0254
-5 8 20 1.1226 0.0156
-5 8 21 -0.4065 -0.0090
-5 8 22 -1.3686 -0.0002
-5 8 23 -0.2446 0.0158
-5 8 24 0.6988 0.0167
-5 8 25 1.5587 -0.0305
-5 8 26 -2.1300 -0.0270
-5 8 27 -4.3815 0.0249
-5 8 28 1.1282 0.0003
-5 8 29 1.9582 -0.0343
-5 8 30 -1.9589 0.0236
-5 8 31 -1.0450 0.0041
-5 8 32 0.4932 -0.1004
-5 9 1 -0.9430 0.1757
-5 9 2 -1.4065 0.3420
-5 9 3 2.4169 0.1265
-5 9 4 3.5463 -0.2042
-5 9 5 -0.0465 -0.0127
-5 9 6 -1.1822 0.3007
-5 9 7 0.2292 0.0825
-5 9 8 2.5163 -0.1149
-5 9 9 2.5876 0.0728
-5 9 10 -1.6299 0.0417
-5 9 11 -3.9690 -0.1162
-5 9 12 -1.5613 -0.0138
-5 9 13 1.6137 0.0687
-5 9 14 1.5650 0.0325
-5 9 15 -0.8522 -0.0033
-5 9 16 -1.3064 -0.0281
-5 9 17 -0.8632 -0.0048
-5 9 18 -2.1348 0.0219
-5 9 19 -1.0090 0.0011
-5 9 20 1.8787 0.0108
-5 9 21 0.6706 0.0420
-5 9 22 -2.2576 0.0070
-5 9 23 -3.0804 -0.0067
-5 9 24 -0.4383 0.0211
-5 9 25 1.9593 -0.0004
-5 9 26 -1.5398 -0.0015
-5 9 27 -1.8875 0.0377
-5 9 28 3.0238 0.0014
-5 9 29 1.2982 -0.0442
-5 9 30 -2.8359 0.0335
-5 9 31 -2.1596 0.0358
-5 9 32 -0.5382 -0.0759
-5 10 1 -2.4750 -0.5184
-5 10 2 -0.2917 0.0002
-5 10 3 1.3362 0.2171
-5 10 4 -2.1403 -0.0515
-5 10 5 -1.5471 -0.0017
-5 10 6 3.4394 0.1880
-5 10 7 0.9606 0.0395
-5 10 8 -1.8603 -0.0558
-5 10 9 0.4033 0.0349
-5 10 10 1.0018 0.0272
-5 10 11 0.0269 0.0098
-5 10 12 0.3160 -0.0041
-5 10 13 1.6162 -0.0059
-5 10 14 0.0974 0.0635
-5 10 15 -2.8047 0.0018
-5 10 16 -0.2989 -0.0824
-5 10 17 2.3965 0.0124
-5 10 18 -0.1227 0.0535
-5 10 19 -0.6424 -0.0232
-5 10 20 0.4499 -0.0110
-5 10 21 -1.4807 0.0302
-5 10 22 -1.8845 -0.0013
-5 10 23 -0.4767 0.0020
-5 10 24 0.0249 0.0280
-5 10 25 0.0865 -0.0001
-5 10 26 0.1643 -0.0081
-5 10 27 1.2234 0.0287
-5 10 28 0.0612 0.0050
-5 10 29 -2.2105 -0.0244
-5 10 30 -0.4465 0.0525
-5 10 31 1.1666 0.0493
-5 11 1 -3.0386 -0.6127
-5 11 2 -1.4749 -0.3222
-5 11 3 1.6387 0.1085
-5 11 4 -1.2089 0.1614
-5 11 5 -1.0728 -0.0712
-5 11 6 0.6282 -0.2028
-5 11 7 -3.2721 -0.0373
-5 11 8 -2.7049 0.1004
-5 11 9 1.6512 -0.0189
-5 11 10 2.6497 -0.0276
-5 11 11 1.0581 0.1072
-5 11 12 -0.8229 0.0203
-5 11 13 0.9739 -0.0706
-5 11 14 1.3474 0.0079
-5 11 15 -2.0790 -0.0020
-5 11 16 0.2387 -0.0281
-5 11 17 3.9654 0.0333
-5 11 18 0.4272 0.0173
-5 11 19 -2.1730 -0.0435
-5 11 20 -0.2360 -0.0268
-5 11 21 0.2296 0.0095
-5 11 22 0.3592 0.0077
-5 11 23 1.6872 -0.0133
-5 11 24 0.9337 -0.0229
-5 11 25 -1.3175 -0.0067
-5 11 26 -0.4647 0.0140
-5 11 27 0.7024 0.0309
-5 11 28 -2.0488 0.0201
-5 11 29 -0.9641 -0.0227
-5 11 30 3.4645 -0.0257
-5 12 1 -2.7586 0.1278
-5 12 2 3.1726 -0.2487
-5 12 3 3.7337 -0.1616
-5 12 4 -5.0436 0.1752
-5 12 5 -5.3059 -0.0656
-5 12 6 1.4725 -0.3635
-5 12 7 1.7326 -0.0733
-5 12 8 -1.5221 0.1388
-5 12 9 -2.6712 -0.0303
-5 12 10 0.8629 -0.0474
-5 12 11 1.9976 0.0490
-5 12 12 -0.9785 -0.0060
-5 12 13 1.5564 -0.0464
-5 12 14 2.3317 -0.0070
-5 12 15 -2.1512 0.0305
-5 12 16 -0.3484 0.0329
-5 12 17 1.6861 -0.0159
-5 12 18 -1.9233 -0.0219
-5 12 19 0.3953 0.0198
-5 12 20 4.6036 -0.0135
-5 12 21 -0.0464 -0.0565
-5 12 22 -2.1805 -0.0170
-5 12 23 3.5024 0.0138
-5 12 24 2.7096 -0.0032
-5 12 25 -3.1763 -0.0146
-5 12 26 -0.2189 -0.0142
-5 12 27 3.3095 0.0038
-5 12 28 -1.2037 0.0366
-5 12 29 -1.9297 0.0163
-5 13 1 3.0692 0.7658
-5 13 2 3.0475 0.0826
-5 13 3 -2.9725 -0.3185
-5 13 4 -6.6697 -0.0231
-5 13 5 1.2805 0.0940
-5 13 6 5.6137 -0.0138
-5 13 7 -0.2046 -0.0435
-5 13 8 -4.1340 -0.0830
-5 13 9 -1.9516 -0.0307
-5 13 10 2.5411 0.0288
-5 13 11 0.8139 -0.0469
-5 13 12 -1.5515 -0.0268
-5 13 13 3.3484 0.0240
-5 13 14 2.5140 -0.0167
-5 13 15 -3.7756 0.0343
-5 13 16 -2.0448 0.0677
-5 13 17 1.3057 -0.0235
-5 13 18 0.1852 -0.0269
-5 13 19 0.9036 0.0252
-5 13 20 0.8290 -0.0041
-5 13 21 -1.8285 -0.0180
-5 13 22 0.4248 0.0017
-5 13 23 4.2524 -0.0037
-5 13 24 1.9272 -0.0079
-5 13 25 0.3127 -0.0071
-5 13 26 3.5538 -0.0256
-5 13 27 0.9968 -0.0172
-5 13 28 -4.6385 0.0632
-5 13 29 -1.9985 0.0808
-5 14 1 0.4212 0.4244
-5 14 2 -0.5229 0.2748
-5 14 3 -0.7701 -0.0903
-5 14 4 -0.0202 -0.1187
-5 14 5 1.0255 0.1680
-5 14 6 -0.3001 0.3120
-5 14 7 0.3854 0.0162
-5 14 8 -0.0803 -0.2098
-5 14 9 -2.3121 -0.0022
-5 14 10 0.4272 0.0537
-5 14 11 0.9553 -0.0810
-5 14 12 0.3188 0.0171
-5 14 13 4.0145 0.0578
-5 14 14 2.3580 -0.0368
-5 14 15 -2.5534 0.0041
-5 14 16 -1.0996 0.0364
-5 14 17 0.6104 0.0019
-5 14 18 -1.5167 0.0145
-5 14 19 -1.8271 0.0048
-5 14 20 -0.3284 0.0038
-5 14 21 0.3704 0.0366
-5 14 22 0.8016 0.0085
-5 14 23 1.8007 -0.0150
-5 14 24 3.0361 -0.0107
-5 14 25 3.1020 -0.0277
-5 14 26 1.5451 -0.0152
-5 14 27 -1.1592 0.0334
-5 14 28 -1.3110 0.0625
-5 15 1 -0.1745 -0.4455
-5 15 2 -0.6568 0.1787
-5 15 3 -0.1502 0.2965
-5 15 4 0.1164 -0.0418
-5 15 5 1.0836 -0.0124
-5 15 6 0.5818 0.2163
-5 15 7 -0.7355 0.0730
-5 15 8 -3.4986 -0.0855
-5 15 9 -2.0687 0.0198
-5 15 10 3.0668 0.0105
-5 15 11 1.4683 -0.0154
-5 15 12 -0.1462 0.0666
-5 15 13 2.3146 0.0117
-5 15 14 0.8009 -0.0590
-5 15 15 -0.3996 -0.0325
-5 15 16 1.5104 -0.0123
-5 15 17 0.1706 0.0351
-5 15 18 -1.3588 0.0491
-5 15 19 -0.0258 -0.0087
-5 15 20 -0.1743 0.0153
-5 15 21 -0.8009 0.0333
-5 15 22 -0.8660 -0.0352
-5 15 23 -0.7402 -0.0041
-5 15 24 1.2383 0.0573
-5 15 25 3.2199 0.0015
-5 15 26 3.1226 -0.0514
-5 16 1 -1.3996 -0.6474
-5 16 2 -3.4067 -0.0354
-5 16 3 -0.1618 0.2746
-5 16 4 5.4665 0.0271
-5 16 5 2.4503 -0.1901
-5 16 6 -6.4107 -0.1179
-5 16 7 -4.1235 0.0585
-5 16 8 3.2373 0.1474
-5 16 9 3.0403 0.0616
-5 16 10 -1.8807 -0.0537
-5 16 11 -4.0712 -0.0110
-5 16 12 -0.5678 0.0238
-5 16 13 1.5884 0.0017
-5 16 14 -0.4411 0.0060
-5 16 15 0.2454 -0.0521
-5 16 16 2.9171 -0.0691
-5 16 17 2.8090 0.0416
-5 16 18 1.9632 0.0655
-5 16 19 0.1420 -0.0144
-5 16 20 -1.8418 -0.0124
-5 16 21 -0.7102 0.0048
-5 16 22 -1.4043 -0.0066
-5 16 23 -2.5322 0.0509
-5 16 24 1.4372 0.0645
-5 16 25 3.9801 -0.0384
-5 17 1 -3.4082 -0.0625
-5 17 2 -2.9086 -0.1920
-5 17 3 0.9190 -0.0942
-5 17 4 1.8255 0.0394
-5 17 5 -0.4169 -0.1364
-5 17 6 -1.4228 -0.2132
-5 17 7 0.9285 0.0413
-5 17 8 0.4242 0.1281
-5 17 9 -1.6420 -0.0340
-5 17 10 -1.8235 -0.0249
-5 17 11 -2.1388 0.0534
-5 17 12 -1.8534 -0.0365
-5 17 13 -1.3144 -0.0517
-5 17 14 -1.7398 0.0273
-5 17 15 0.4839 0.0318
-5 17 16 3.8889 0.0106
-5 17 17 2.2487 -0.0277
-5 17 18 -0.3472 -0.0468
-5 17 19 0.5774 0.0168
-5 17 20 2.3264 0.0606
-5 17 21 2.0286 0.0061
-5 17 22 -1.3307 -0.0344
-5 17 23 -2.3588 0.0283
-5 17 24 0.4284 0.0942
-5 18 1 -4.1514 0.4834
-5 18 2 0.8249 -0.1857
-5 18 3 -0.5920 -0.2913
-5 18 4 -0.5639 0.0948
-5 18 5 2.5696 0.0652
-5 18 6 -1.0950 -0.0943
-5 18 7 -3.9371 -0.0387
-5 18 8 -0.1710 -0.0393
-5 18 9 1.7449 -0.0346
-5 18 10 -1.0691 0.0670
-5 18 11 -3.0464 -0.0066
-5 18 12 -2.0030 -0.1107
-5 18 13 -0.1578 0.0166
-5 18 14 -0.7557 0.1046
-5 18 15 -2.4198 0.0507
-5 18 16 -2.3764 -0.0168
-5 18 17 -0.3601 -0.0603
-5 18 18 4.0149 -0.0014
-5 18 19 4.9154 0.0516
-5 18 20 1.0079 0.0023
-5 18 21 -0.2490 0.0147
-5 18 22 0.5241 0.0663
-5 19 1 -1.8551 0.3715
-5 19 2 1.6205 -0.0410
-5 19 3 0.0066 -0.0885
-5 19 4 -0.9930 0.1165
-5 19 5 -1.0130 0.1116
-5 19 6 -1.9554 0.0504
-5 19 7 0.1389 -0.0303
-5 19 8 -0.6432 -0.1020
-5 19 9 -3.8614 -0.0285
-5 19 10 -0.1168 0.0281
-5 19 11 2.4234 -0.0202
-5 19 12 -2.2677 0.0346
-5 19 13 -3.3811 0.0742
-5 19 14 -1.8747 -0.0475
-5 19 15 -1.9893 -0.0411
-5 19 16 -0.3284 0.0671
-5 19 17 1.2668 0.0482
-5 19 18 1.5908 0.0184
-5 19 19 1.2009 0.0184
-5 19 20 0.3766 0.0054
-5 20 1 -0.2557 -0.0478
-5 20 2 3.3734 0.1104
-5 20 3 -0.4085 0.1231
-5 20 4 -0.6919 0.0280
-5 20 5 1.2631 0.0842
-5 20 6 -1.6465 0.1089
-5 20 7 -2.4055 -0.0795
-5 20 8 -0.9546 -0.0911
-5 20 9 -1.1495 0.0742
-5 20 10 -0.8529 0.0784
-5 20 11 -3.0141 0.0131
-5 20 12 -4.2484 0.0057
-5 20 13 0.0706 -0.0566
-5 20 14 1.1932 -0.0758
-5 20 15 -0.2475 0.0456
-5 20 16 0.0510 0.0852
-5 20 17 -1.3817 0.0245
-5 20 18 -1.1036 0.0362
-5 21 1 3.3906 -0.3030
-5 21 2 1.6205 0.1839
-5 21 3 -0.9445 0.1946
-5 21 4 3.3357 -0.1151
-5 21 5 1.8176 -0.0907
-5 21 6 -3.0605 0.0005
-5 21 7 0.4780 0.0080
-5 21 8 1.5357 0.1506
-5 21 9 -3.7026 0.1086
-5 21 10 -3.8457 -0.0942
-5 21 11 -2.3504 -0.0516
-5 21 12 -1.7934 0.0574
-5 21 13 0.3965 0.0010
-5 21 14 -0.5470 -0.0547
-5 21 15 -1.3699 -0.0312
-5 21 16 0.1694 0.0169
-5 22 1 2.3780 -0.1310
-5 22 2 0.5847 0.1247
-5 22 3 1.4379 -0.0333
-5 22 4 4.5257 -0.2164
-5 22 5 2.0384 -0.0349
-5 22 6 -1.8661 0.0584
-5 22 7 -0.7659 0.0572
-5 22 8 1.0335 0.0984
-5 22 9 1.3362 -0.0520
-5 22 10 0.0799 -0.0792
-5 22 11 -3.7565 0.1240
-5 22 12 -3.2887 0.0786
-5 22 13 0.0475 -0.1159
-5 23 1 1.7304 0.0240
-5 23 2 1.6196 -0.0929
-5 23 3 2.6532 -0.0924
-5 23 4 3.3638 0.0435
-5 23 5 -0.3462 0.0877
-5 23 6 -2.6796 -0.1112
-5 23 7 1.6377 -0.0983
-5 23 8 4.3610 0.1098
-4 -22 1 -0.9303 -0.3255
-4 -22 2 2.0283 0.2431
-4 -22 3 2.8400 0.2461
-4 -22 4 -1.5748 -0.1742
-4 -22 5 -0.3345 -0.1615
-4 -22 6 1.9677 0.1805
-4 -22 7 -0.5388 0.1033
-4 -22 8 0.7227 -0.2671
-4 -21 1 -0.4815 -0.3067
-4 -21 2 2.9146 0.0435
-4 -21 3 3.2352 0.1263
-4 -21 4 -0.6182 0.0060
-4 -21 5 1.5002 -0.0418
-4 -21 6 3.0055 0.0056
-4 -21 7 0.5392 -0.0290
-4 -21 8 0.9676 -0.0649
-4 -21 9 -0.6177 -0.0013
-4 -21 10 -0.9692 0.0146
-4 -21 11 3.1167 -0.0208
-4 -21 12 -0.4366 -0.1116
-4 -21 13 -4.1566 -0.0425
-4 -21 14 -0.9732 0.2028
-4 -20 1 1.5274 0.0260
-4 -20 2 2.6563 -0.1252
-4 -20 3 1.2266 -0.1576
-4 -20 4 1.2479 0.0233
-4 -20 5 3.9023 0.0695
-4 -20 6 1.4255 0.0067
-4 -20 7 -1.4203 -0.0414
-4 -20 8 0.6530 -0.0248
-4 -20 9 1.2139 -0.0291
-4 -20 10 2.7009 -0.0385
-4 -20 11 2.6820 0.0507
-4 -20 12 -2.4767 0.0170
-4 -20 13 -1.9551 -0.0464
-4 -20 14 -0.7523 0.0549
-4 -20 15 -3.2713 0.0540
-4 -20 16 -1.7634 -0.0564
-4 -20 17 -0.1081 -0.0524
-4 -19 1 -1.8894 0.3521
-4 -19 2 0.0071 -0.1373
-4 -19 3 1.5269 -0.2896
-4 -19 4 1.9939 0.0287
-4 -19 5 1.1843 0.1479
-4 -19 6 -1.1202 -0.0138
-4 -19 7 -1.4324 -0.1288
-4 -19 8 0.6447 0.0124
-4 -19 9 3.1722 0.0916
-4 -19 10 4.4922 -0.0345
-4 -19 11 0.2053 -0.0382
-4 -19 12 -2.0305 0.0256
-4 -19 13 0.0971 0.0031
-4 -19 14 -4.5709 -0.0098
-4 -19 15 -4.4475 0.0084
-4 -19 16 3.1984 0.0243
-4 -19 17 1.5478 -0.0010
-4 -19 18 -3.7159 0.0126
-4 -19 19 -2.1760 0.1031
-4 -18 1 -2.2601 0.2242
-4 -18 2 -0.0919 0.0336
-4 -18 3 1.0080 0.0031
-4 -18 4 0.8761 -0.0386
-4 -18 5 -1.4170 -0.0610
-4 -18 6 -2.3161 0.0673
-4 -18 7 -1.1945 0.0637
-4 -18 8 0.3746 -0.0029
-4 -18 9 3.5797 -0.0052
-4 -18 10 3.5278 -0.0318
-4 -18 11 -2.2205 -0.0436
-4 -18 12 -2.0394 -0.0006
-4 -18 13 0.2380 0.0584
-4 -18 14 -2.2624 0.0221
-4 -18 15 1.2104 -0.0766
-4 -18 16 2.3266 -0.0099
-4 -18 17 -3.9306 0.0788
-4 -18 18 -4.0391 0.0209
-4 -18 19 1.0001 0.0154
-4 -18 20 3.6800 -0.0631
-4 -18 21 0.6737 -0.1162
-4 -18 22 -1.5363 0.1133
-4 -17 1 -0.9478 -0.1896
-4 -17 2 -2.0964 0.1841
-4 -17 3 0.7466 0.3351
-4 -17 4 0.7889 -0.0605
-4 -17 5 -1.8982 -0.1881
-4 -17 6 -0.9055 0.0936
-4 -17 7 -1.0500 0.0976
-4 -17 8 -1.9773 -0.0454
-4 -17 9 2.5132 -0.0066
-4 -17 10 3.6540 0.0351
-4 -17 11 -1.5834 -0.0219
-4 -17 12 -0.8613 -0.0404
-4 -17 13 0.5514 0.0490
-4 -17 14 -1.0830 0.0497
-4 -17 15 1.2397 -0.0929
-4 -17 16 1.4319 -0.0630
-4 -17 17 0.3416 0.0506
-4 -17 18 -0.5833 0.0255
-4 -17 19 -1.8806 0.0334
-4 -17 20 1.2456 -0.0305
-4 -17 21 2.6910 -0.0832
-4 -17 22 1.9395 0.0650
-4 -17 23 0.8272 0.0379
-4 -16 1 0.4250 -0.3924
-4 -16 2 -1.1658 0.0714
-4 -16 3 0.8431 0.3053
-4 -16 4 1.8124 0.0139
-4 -16 5 -1.1452 -0.1589
-4 -16 6 -2.6732 -0.0373
-4 -16 7 -0.8909 0.0528
-4 -16 8 2.1192 0.0244
-4 -16 9 3.7123 -0.0206
-4 -16 10 1.7872 0.0411
-4 -16 11 -0.1590 0.0740
-4 -16 12 -0.3528 -0.0666
-4 -16 13 -2.6960 -0.0753
-4 -16 14 -0.0956 0.0742
-4 -16 15 5.2570 0.0212
-4 -16 16 2.8776 -0.0737
-4 -16 17 -0.1177 -0.0313
-4 -16 18 -1.0705 0.0217
-4 -16 19 0.8457 0.0506
-4 -16 20 4.1878 -0.0377
-4 -16 21 2.4037 -0.0680
-4 -16 22 2.1492 0.0516
-4 -16 23 2.2061 0.0022
-4 -16 24 -1.6048 -0.0426
-4 -16 25 -3.4418 0.0988
-4 -15 1 2.7715 -0.1118
-4 -15 2 -1.7062 -0.2576
-4 -15 3 -0.5931 -0.1423
-4 -15 4 0.3537 0.1343
-4 -15 5 -2.3379 0.0893
-4 -15 6 -0.7743 -0.1408
-4 -15 7 4.8225 -0.0465
-4 -15 8 4.2115 0.0960
-4 -15 9 0.1233 -0.0327
-4 -15 10 0.1448 -0.0553
-4 -15 11 0.5547 0.0821
-4 -15 12 -1.1547 0.0158
-4 -15 13 -0.0229 -0.0898
-4 -15 14 4.3649 0.0053
-4 -15 15 2.0129 0.0765
-4 -15 16 -1.5939 0.0140
-4 -15 17 1.8741 -0.0676
-4 -15 18 2.2850 -0.0277
-4 -15 19 1.3530 0.0564
-4 -15 20 2.1054 -0.0264
-4 -15 21 2.4772 -0.0598
-4 -15 22 4.5266 0.0494
-4 -15 23 2.8164 -0.0065
-4 -15 24 -0.8562 -0.0879
-4 -15 25 -1.9725 0.0562
-4 -15 26 -0.3500 0.0804
-4 -14 1 2.7389 0.3594
-4 -14 2 -1.6962 -0.4069
-4 -14 3 -2.8877 -0.4893
-4 -14 4 1.2319 0.2043
-4 -14 5 1.5479 0.2884
-4 -14 6 -0.9771 -0.1431
-4 -14 7 1.5748 -0.1149
-4 -14 8 2.9349 0.1025
-4 -14 9 0.6719 -0.0046
-4 -14 10 -0.3000 -0.1237
-4 -14 11 0.0873 0.0126
-4 -14 12 1.1499 0.0972
-4 -14 13 2.3375 -0.0321
-4 -14 14 1.3463 -0.0769
-4 -14 15 -1.3601 0.0621
-4 -14 16 0.5006 0.0892
-4 -14 17 1.0781 -0.0498
-4 -14 18 -2.2707 -0.0560
-4 -14 19 0.9912 0.0417
-4 -14 20 4.4062 0.0194
-4 -14 21 3.3505 -0.0428
-4 -14 22 1.5284 -0.0407
-4 -14 23 -0.2454 -0.0123
-4 -14 24 1.2943 0.0188
-4 -14 25 1.0624 0.0586
-4 -14 26 0.0329 -0.0085
-4 -14 27 1.2465 -0.1290
-4 -13 1 2.9429 0.5220
-4 -13 2 -1.2571 -0.0722
-4 -13 3 -0.6752 -0.3210
-4 -13 4 4.2274 0.0263
-4 -13 5 -0.1227 0.1751
-4 -13 6 -4.7093 0.0359
-4 -13 7 1.0426 -0.0831
-4 -13 8 3.0094 -0.0380
-4 -13 9 -0.3037 0.0647
-4 -13 10 -0.2088 -0.0238
-4 -13 11 0.9925 -0.0831
-4 -13 12 0.8389 0.0651
-4 -13 13 1.0771 0.0647
-4 -13 14 0.2529 -0.0818
-4 -13 15 -1.5686 -0.0324
-4 -13 16 -1.4677 0.0751
-4 -13 17 -2.5932 0.0317
-4 -13 18 -0.7438 -0.0264
-4 -13 19 3.5991 -0.0149
-4 -13 20 1.9183 0.0165
-4 -13 21 0.6404 -0.0201
-4 -13 22 -0.9219 -0.0479
-4 -13 23 -2.9846 0.0388
-4 -13 24 0.5765 0.0380
-4 -13 25 2.3049 -0.0392
-4 -13 26 1.4952 -0.0356
-4 -13 27 0.7371 -0.0503
-4 -13 28 0.2236 -0.0030
-4 -13 29 0.9973 0.1142
-4 -12 1 3.6941 0.1247
-4 -12 2 0.9128 0.5225
-4 -12 3 -0.8435 0.2450
-4 -12 4 3.4555 -0.3113
-4 -12 5 1.3737 -0.1821
-4 -12 6 -2.6193 0.2327
-4 -12 7 -0.2743 0.0353
-4 -12 8 0.9195 -0.1634
-4 -12 9 0.0513 0.0882
-4 -12 10 0.0032 0.1054
-4 -12 11 0.7121 -0.1064
-4 -12 12 0.9166 -0.0436
-4 -12 13 -0.7883 0.0905
-4 -12 14 -2.4542 0.0287
-4 -12 15 -0.2063 -0.0663
-4 -12 16 0.9424 -0.0434
-4 -12 17 -2.4361 0.0559
-4 -12 18 -0.7422 0.0464
-4 -12 19 0.7524 -0.0480
-4 -12 20 -1.0617 -0.0073
-4 -12 21 2.0680 0.0285
-4 -12 22 0.4365 -0.0345
-4 -12 23 -4.3620 -0.0169
-4 -12 24 -2.2552 0.0131
-4 -12 25 2.4382 0.0110
-4 -12 26 4.5567 0.0027
-4 -12 27 0.0116 -0.0795
-4 -12 28 -3.6131 -0.0419
-4 -12 29 -1.1401 0.1415
-4 -11 1 0.7877 -0.4456
-4 -11 2 -2.9333 0.5522
-4 -11 3 0.2032 0.5398
-4 -11 4 8.5526 -0.3155
-4 -11 5 3.3112 -0.3300
-4 -11 6 -4.2445 0.1883
-4 -11 7 -0.6785 0.1366
-4 -11 8 2.5200 -0.0968
-4 -11 9 -0.9861 -0.0265
-4 -11 10 -2.4181 0.0703
-4 -11 11 1.8042 0.0065
-4 -11 12 2.7093 -0.0683
-4 -11 13 -1.7749 0.0028
-4 -11 14 -2.3333 0.0828
-4 -11 15 2.6898 -0.0085
-4 -11 16 0.6245 -0.0768
-4 -11 17 -4.8357 0.0239
-4 -11 18 -0.2605 0.0484
-4 -11 19 2.3627 -0.0390
-4 -11 20 0.0823 -0.0323
-4 -11 21 0.7455 0.0105
-4 -11 22 -0.0310 0.0143
-4 -11 23 -0.3586 0.0100
-4 -11 24 -0.5215 -0.0221
-4 -11 25 0.8058 -0.0162
-4 -11 26 3.4026 0.0153
-4 -11 27 -0.4259 -0.0401
-4 -11 28 -3.0460 -0.0422
-4 -11 29 -0.5387 0.0913
-4 -11 30 1.1176 0.1040
-4 -10 1 -0.6644 -0.6100
-4 -10 2 0.1874 -0.1597
-4 -10 3 3.1417 0.2308
-4 -10 4 5.0501 0.1267
-4 -10 5 -0.3499 -0.0621
-4 -10 6 -2.5119 -0.0878
-4 -10 7 1.8677 0.0764
-4 -10 8 3.1669 0.0963
-4 -10 9 -1.2518 -0.1052
-4 -10 10 -2.7874 -0.0563
-4 -10 11 1.2824 0.0913
-4 -10 12 3.1238 -0.0202
-4 -10 13 -0.4561 -0.0621
-4 -10 14 -1.7712 0.0688
-4 -10 15 2.3824 0.0522
-4 -10 16 0.4838 -0.0590
-4 -10 17 -3.2925 -0.0539
-4 -10 18 0.6886 0.0179
-4 -10 19 2.3996 0.0290
-4 -10 20 0.6532 -0.0284
-4 -10 21 -0.1652 -0.0184
-4 -10 22 1.7452 0.0447
-4 -10 23 3.0658 0.0038
-4 -10 24 -2.5897 -0.0468
-4 -10 25 -1.8483 0.0057
-4 -10 26 5.4868 0.0328
-4 -10 27 4.1105 -0.0312
-4 -10 28 -0.8289 -0.0498
-4 -10 29 -2.4532 0.0439
-4 -10 30 -0.3101 0.0883
-4 -10 31 2.2438 0.0096
-4 -9 1 1.1807 -0.1261
-4 -9 2 2.2762 -0.7603
-4 -9 3 -1.1275 -0.3083
-4 -9 4 -1.8442 0.5066
-4 -9 5 0.9568 0.2626
-4 -9 6 3.1049 -0.3418
-4 -9 7 2.5379 -0.0923
-4 -9 8 0.6956 0.2108
-4 -9 9 -1.9341 -0.0286
-4 -9 10 -2.3841 -0.0850
-4 -9 11 0.3399 0.0794
-4 -9 12 3.2799 0.0361
-4 -9 13 1.3662 -0.0527
-4 -9 14 -1.8024 -0.0242
-4 -9 15 0.0120 0.0232
-4 -9 16 0.4172 0.0138
-4 -9 17 0.0995 -0.0497
-4 -9 18 1.5981 -0.0242
-4 -9 19 2.3502 0.0517
-4 -9 20 1.6369 -0.0032
-4 -9 21 -2.4731 -0.0327
-4 -9 22 -1.1707 0.0269
-4 -9 23 2.8589 0.0125
-4 -9 24 0.3699 -0.0208
-4 -9 25 0.9465 -0.0058
-4 -9 26 2.4308 0.0191
-4 -9 27 0.3130 0.0215
-4 -9 28 0.2971 -0.0210
-4 -9 29 1.1410 -0.0223
-4 -9 30 2.0422 0.0456
-4 -9 31 1.6564 0.0408
-4 -9 32 0.9537 -0.0264
-4 -8 1 -0.6454 0.5563
-4 -8 2 2.9333 -0.4605
-4 -8 3 -1.2934 -0.4509
-4 -8 4 -3.7821 0.2743
-4 -8 5 2.4030 0.1822
-4 -8 6 4.4304 -0.2503
-4 -8 7 -0.9952 -0.1149
-4 -8 8 -2.5722 0.1164
-4 -8 9 1.0656 0.0740
-4 -8 10 1.3673 -0.0120
-4 -8 11 -2.2267 -0.0070
-4 -8 12 -0.8532 0.0457
-4 -8 13 1.2806 0.0164
-4 -8 14 -0.0806 -0.0727
-4 -8 15 -0.3783 -0.0310
-4 -8 16 0.7653 0.0593
-4 -8 17 2.1600 -0.0051
-4 -8 18 0.2893 -0.0414
-4 -8 19 -0.4283 0.0270
-4 -8 20 0.6912 0.0121
-4 -8 21 -0.3177 -0.0155
-4 -8 22 2.4132 0.0035
-4 -8 23 1.3871 -0.0032
-4 -8 24 -3.9885 -0.0050
-4 -8 25 -2.2594 0.0106
-4 -8 26 0.5662 0.0241
-4 -8 27 1.4333 0.0315
-4 -8 28 1.1951 0.0016
-4 -8 29 -0.1622 -0.0369
-4 -8 30 0.8108 0.0022
-4 -8 31 1.8482 0.0481
-4 -8 32 3.0527 0.0017
-4 -7 1 1.6610 0.6596
-4 -7 2 12.5575 0.3999
-4 -7 3 -1.9304 -0.0801
-4 -7 4 -11.9867 -0.3048
-4 -7 5 1.5500 -0.1194
-4 -7 6 8.5126 0.1383
-4 -7 7 -0.4402 0.0103
-4 -7 8 -4.5204 -0.1175
-4 -7 9 0.7111 0.0445
-4 -7 10 1.1178 0.0564
-4 -7 11 -3.2300 -0.0430
-4 -7 12 -1.2462 0.0123
-4 -7 13 1.8667 0.0435
-4 -7 14 0.6548 -0.0325
-4 -7 15 -2.5055 -0.0269
-4 -7 16 -1.7851 0.0575
-4 -7 17 2.1080 0.0317
-4 -7 18 1.0857 -0.0323
-4 -7 19 0.6485 -0.0151
-4 -7 20 1.5121 0.0091
-4 -7 21 0.8967 -0.0069
-4 -7 22 0.5739 -0.0162
-4 -7 23 -3.4189 0.0148
-4 -7 24 -2.8670 0.0274
-4 -7 25 1.9967 0.0057
-4 -7 26 0.4545 -0.0019
-4 -7 27 -2.3523 0.0251
-4 -7 28 -3.6604 0.0276
-4 -7 29 -1.7792 -0.0432
-4 -7 30 3.2430 -0.0419
-4 -7 31 4.0727 0.0493
-4 -7 32 1.9505 0.0381
-4 -7 33 -0.0350 -0.0520
-4 -6 1 10.0198 0.0948
-4 -6 2 9.1576 0.7293
-4 -6 3 -12.4423 0.2425
-4 -6 4 -10.4652 -0.4865
-4 -6 5 11.9934 -0.1104
-4 -6 6 10.5916 0.4025
-4 -6 7 -6.9634 0.0236
-4 -6 8 -8.3881 -0.2523
-4 -6 9 3.6492 0.0055
-4 -6 10 5.6392 0.0738
-4 -6 11 -2.1778 -0.0531
-4 -6 12 -4.8413 -0.0538
-4 -6 13 -0.7385 0.0361
-4 -6 14 1.8415 0.0531
-4 -6 15 -3.1947 0.0047
-4 -6 16 -3.6477 0.0176
-4 -6 17 3.0217 0.0351
-4 -6 18 4.0476 -0.0145
-4 -6 19 0.8777 -0.0450
-4 -6 20 -2.6096 0.0020
-4 -6 21 -1.2930 0.0247
-4 -6 22 1.4923 0.0052
-4 -6 23 -0.6881 0.0064
-4 -6 24 0.6054 0.0094
-4 -6 25 1.5909 0.0209
-4 -6 26 -1.5642 -0.0049
-4 -6 27 -2.4619 -0.0264
-4 -6 28 -2.7602 0.0230
-4 -6 29 -0.7293 0.0060
-4 -6 30 2.5451 -0.0463
-4 -6 31 2.0032 0.0088
-4 -6 32 0.8122 0.0488
-4 -6 33 1.1396 -0.0588
-4 -5 1 6.0721 -0.6263
-4 -5 2 9.5973 0.2054
-4 -5 3 -6.4472 0.2838
-4 -5 4 -4.7905 -0.0805
-4 -5 5 7.6392 0.0462
-4 -5 6 2.9934 0.2094
-4 -5 7 -5.5496 0.0126
-4 -5 8 -1.0899 -0.0853
-4 -5 9 6.7007 -0.0346
-4 -5 10 3.8159 0.0013
-4 -5 11 -2.9149 0.0018
-4 -5 12 -4.9022 -0.0552
-4 -5 13 -1.4559 -0.0102
-4 -5 14 0.9137 0.0665
-4 -5 15 -2.8852 0.0104
-4 -5 16 -1.1940 -0.0485
-4 -5 17 3.6002 0.0100
-4 -5 18 2.0794 0.0481
-4 -5 19 -1.7120 -0.0095
-4 -5 20 -3.1748 -0.0131
-4 -5 21 1.0980 0.0123
-4 -5 22 2.0026 0.0006
-4 -5 23 -1.3739 -0.0083
-4 -5 24 0.9345 -0.0016
-4 -5 25 1.9768 0.0220
-4 -5 26 0.3510 -0.0058
-4 -5 27 0.2835 -0.0249
-4 -5 28 -1.2446 0.0349
-4 -5 29 -1.5795 0.0265
-4 -5 30 1.8155 -0.0592
-4 -5 31 4.4458 -0.0297
-4 -5 32 2.1233 0.0620
-4 -5 33 -0.7724 -0.0438
-4 -4 1 17.4681 -0.6098
-4 -4 2 6.4581 -0.4211
-4 -4 3 -12.4762 0.0639
-4 -4 4 -4.5524 0.3226
-4 -4 5 5.6816 0.0409
-4 -4 6 2.1783 -0.1775
-4 -4 7 -0.7643 0.0529
-4 -4 8 0.5909 0.1542
-4 -4 9 1.5660 -0.0667
-4 -4 10 2.3264 -0.0559
-4 -4 11 2.5489 0.0749
-4 -4 12 -2.4126 0.0010
-4 -4 13 -2.9432 -0.0646
-4 -4 14 1.5965 -0.0235
-4 -4 15 -0.0109 0.0103
-4 -4 16 -2.3628 -0.0205
-4 -4 17 -1.5171 0.0012
-4 -4 18 1.2963 0.0401
-4 -4 19 1.8935 -0.0089
-4 -4 20 0.1219 -0.0228
-4 -4 21 0.3813 -0.0046
-4 -4 22 -2.4253 -0.0011
-4 -4 23 -2.6067 -0.0063
-4 -4 24 3.3911 -0.0224
-4 -4 25 4.5522 0.0027
-4 -4 26 1.5573 0.0266
-4 -4 27 -0.7536 -0.0038
-4 -4 28 -1.8748 -0.0127
-4 -4 29 0.6174 0.0206
-4 -4 30 5.7213 -0.0135
-4 -4 31 4.6999 -0.0216
-4 -4 32 -2.2612 0.0693
-4 -4 33 -1.8386 -0.0154
-4 -4 34 2.4391 -0.1949
-4 -3 1 9.8231 0.1780
-4 -3 2 -11.1546 -0.5758
-4 -3 3 -2.2167 -0.1870
-4 -3 4 14.4669 0.3774
-4 -3 5 0.1711 -0.0531
-4 -3 6 -12.5397 -0.3770
-4 -3 7 -3.8779 0.0321
-4 -3 8 2.1318 0.2188
-4 -3 9 -0.7256 -0.0215
-4 -3 10 2.4463 -0.0698
-4 -3 11 7.3724 0.0287
-4 -3 12 1.4780 0.0552
-4 -3 13 -2.5123 -0.0190
-4 -3 14 -0.7944 -0.0577
-4 -3 15 -1.3206 0.0209
-4 -3 16 -1.2991 -0.0037
-4 -3 17 0.7963 -0.0542
-4 -3 18 2.4708 -0.0149
-4 -3 19 -0.5968 0.0180
-4 -3 20 -2.4074 0.0219
-4 -3 21 -0.2471 -0.0151
-4 -3 22 -0.2279 -0.0253
-4 -3 23 1.8434 0.0014
-4 -3 24 3.3564 -0.0107
-4 -3 25 0.1384 -0.0222
-4 -3 26 -0.6547 0.0092
-4 -3 27 2.0860 -0.0043
-4 -3 28 2.2163 -0.0376
-4 -3 29 0.3420 0.0225
-4 -3 30 2.4704 0.0444
-4 -3 31 3.1705 0.0057
-4 -3 32 -0.3831 0.0244
-4 -3 33 -0.8037 0.0002
-4 -3 34 -0.6311 -0.0585
-4 -2 1 6.8305 0.7382
-4 -2 2 -9.0037 -0.1142
-4 -2 3 17.5429 -0.1428
-4 -2 4 23.7175 0.1005
-4 -2 5 -13.6741 -0.0629
-4 -2 6 -23.8415 -0.1780
-4 -2 7 -0.4525 -0.0553
-4 -2 8 4.8827 0.0439
-4 -2 9 -6.7747 0.0764
-4 -2 10 -1.2919 0.0035
-4 -2 11 9.7665 -0.0784
-4 -2 12 3.2447 0.0430
-4 -2 13 -3.4451 0.0615
-4 -2 14 0.2369 -0.0449
-4 -2 15 3.4013 -0.0198
-4 -2 16 0.8584 0.0088
-4 -2 17 -0.9980 -0.0100
-4 -2 18 -0.6296 -0.0293
-4 -2 19 -2.7391 0.0029
-4 -2 20 -1.0425 0.0475
-4 -2 21 2.2358 0.0037
-4 -2 22 1.4138 -0.0350
-4 -2 23 0.9646 0.0013
-4 -2 24 0.1241 0.0133
-4 -2 25 -0.1312 -0.0323
-4 -2 26 2.3058 -0.0141
-4 -2 27 3.5592 0.0144
-4 -2 28 0.3349 -0.0263
-4 -2 29 -1.1293 -0.0036
-4 -2 30 3.5276 0.0538
-4 -2 31 3.2409 0.0212
-4 -2 32 -2.0520 -0.0442
-4 -2 33 -3.1522 -0.0108
-4 -2 34 -1.8578 0.0897
-4 -1 1 5.5942 0.4487
-4 -1 2 -14.4501 0.4379
-4 -1 3 29.4043 0.0720
-4 -1 4 36.2282 -0.2556
-4 -1 5 -13.3709 0.0309
-4 -1 6 -24.8018 0.2500
-4 -1 7 2.1113 -0.0415
-4 -1 8 2.2332 -0.1790
-4 -1 9 -13.4326 0.0715
-4 -1 10 -3.9693 0.0960
-4 -1 11 8.1852 -0.0886
-4 -1 12 2.1085 -0.0386
-4 -1 13 -0.5827 0.0380
-4 -1 14 4.8083 0.0129
-4 -1 15 4.2164 -0.0022
-4 -1 16 -2.1895 0.0205
-4 -1 17 -1.5707 0.0331
-4 -1 18 2.0413 -0.0232
-4 -1 19 -0.3164 -0.0276
-4 -1 20 -1.6920 0.0271
-4 -1 21 -0.8684 0.0392
-4 -1 22 0.8513 -0.0015
-4 -1 23 2.1874 -0.0162
-4 -1 24 0.5326 0.0165
-4 -1 25 -0.1901 0.0062
-4 -1 26 1.5112 0.0068
-4 -1 27 2.6492 0.0289
-4 -1 28 0.7838 -0.0155
-4 -1 29 0.7690 -0.0400
-4 -1 30 2.5707 0.0267
-4 -1 31 -0.2160 0.0312
-4 -1 32 -1.8787 -0.0771
-4 -1 33 -1.5913 -0.0577
-4 -1 34 -2.5649 0.1109
-4 0 1 -8.8714 -0.4509
-4 0 2 -14.6407 0.3985
-4 0 3 43.4029 0.2294
-4 0 4 45.8555 -0.2353
-4 0 5 -8.9699 0.0818
-4 0 6 -19.3717 0.3034
-4 0 7 5.0316 0.0187
-4 0 8 -1.1968 -0.1661
-4 0 9 -16.2162 -0.0327
-4 0 10 -3.5357 0.0697
-4 0 11 7.4663 0.0334
-4 0 12 1.6536 -0.0274
-4 0 13 -1.6037 -0.0275
-4 0 14 2.0494 0.0292
-4 0 15 2.6907 -0.0096
-4 0 16 -0.5257 -0.0271
-4 0 17 2.3735 0.0386
-4 0 18 4.5188 0.0388
-4 0 19 -1.4203 -0.0208
-4 0 20 -4.6835 -0.0407
-4 0 21 -0.7385 0.0285
-4 0 22 3.2773 0.0376
-4 0 23 1.6090 -0.0102
-4 0 24 -0.2828 0.0158
-4 0 25 0.2317 0.0215
-4 0 26 -0.1963 -0.0056
-4 0 27 -0.5142 0.0238
-4 0 28 0.3994 0.0360
-4 0 29 3.8072 -0.0219
-4 0 30 2.9993 -0.0283
-4 0 31 -3.2668 0.0071
-4 0 32 -4.0695 -0.0147
-4 0 33 -1.1803 -0.0382
-4 0 34 1.1955 -0.0131
-4 1 1 -8.9321 -0.7992
-4 1 2 -13.1446 -0.0773
-4 1 3 36.9208 0.1373
-4 1 4 42.1964 0.0677
-4 1 5 0.0257 -0.0443
-4 1 6 -9.7472 -0.1322
-4 1 7 5.1844 0.0410
-4 1 8 -1.3375 0.1001
-4 1 9 -8.5320 -0.0610
-4 1 10 0.1339 -0.0404
-4 1 11 1.6101 0.1020
-4 1 12 -3.4980 0.0133
-4 1 13 -3.4167 -0.0819
-4 1 14 1.7355 -0.0153
-4 1 15 4.1176 -0.0104
-4 1 16 0.6021 -0.0171
-4 1 17 0.0449 0.0168
-4 1 18 0.9449 0.0382
-4 1 19 -0.5259 -0.0011
-4 1 20 -0.0642 -0.0541
-4 1 21 2.1096 -0.0070
-4 1 22 1.1814 0.0191
-4 1 23 -1.2198 -0.0151
-4 1 24 -0.8518 -0.0054
-4 1 25 -0.8327 0.0131
-4 1 26 0.8744 -0.0104
-4 1 27 2.0874 -0.0017
-4 1 28 -1.5832 0.0410
-4 1 29 -1.4053 0.0167
-4 1 30 0.0099 -0.0288
-4 1 31 -1.6848 -0.0120
-4 1 32 -1.4827 0.0417
-4 1 33 -0.4409 0.0066
-4 1 34 1.1265 -0.1064
-4 2 1 -9.9757 -0.0191
-4 2 2 -14.2640 -0.3177
-4 2 3 22.6835 -0.2792
-4 2 4 29.9273 0.1224
-4 2 5 4.3713 -0.0554
-4 2 6 -1.3230 -0.2982
-4 2 7 6.7489 0.0213
-4 2 8 2.3955 0.2021
-4 2 9 -1.7297 -0.0295
-4 2 10 -2.1197 -0.1269
-4 2 11 -2.7778 0.0074
-4 2 12 0.2551 0.0152
-4 2 13 -0.2099 -0.0310
-4 2 14 -1.7237 -0.0075
-4 2 15 -1.1530 0.0209
-4 2 16 -2.0558 0.0113
-4 2 17 -0.1454 -0.0381
-4 2 18 2.8258 0.0024
-4 2 19 1.5502 0.0399
-4 2 20 -0.7119 -0.0300
-4 2 21 -0.4217 -0.0605
-4 2 22 -0.8023 -0.0130
-4 2 23 -0.2964 0.0057
-4 2 24 1.6683 -0.0167
-4 2 25 1.5899 -0.0021
-4 2 26 1.5249 -0.0091
-4 2 27 -3.2850 -0.0410
-4 2 28 -5.8592 -0.0099
-4 2 29 2.7613 0.0340
-4 2 30 3.3859 0.0034
-4 2 31 -5.2465 -0.0357
-4 2 32 -6.2756 0.0358
-4 2 33 -1.2238 0.0639
-4 2 34 3.2505 -0.0505
-4 3 1 -1.9693 0.7641
-4 3 2 -9.2439 -0.1311
-4 3 3 5.0384 -0.4381
-4 3 4 13.8614 0.0006
-4 3 5 7.6514 0.1086
-4 3 6 3.0762 -0.0019
-4 3 7 2.4928 -0.0392
-4 3 8 3.4741 -0.0221
-4 3 9 4.3524 0.0009
-4 3 10 -1.4156 -0.0310
-4 3 11 -1.2426 -0.0585
-4 3 12 4.7658 -0.0211
-4 3 13 -0.7763 0.0370
-4 3 14 -6.4062 0.0236
-4 3 15 -2.3621 0.0314
-4 3 16 1.0816 0.0349
-4 3 17 0.3587 -0.0379
-4 3 18 -0.6955 -0.0407
-4 3 19 -0.3781 0.0203
-4 3 20 0.4155 0.0305
-4 3 21 -0.4780 -0.0127
-4 3 22 -1.5474 -0.0132
-4 3 23 1.9159 0.0014
-4 3 24 1.9273 -0.0213
-4 3 25 -1.9497 -0.0057
-4 3 26 0.4136 0.0014
-4 3 27 1.0093 -0.0406
-4 3 28 0.5445 -0.0531
-4 3 29 1.0215 0.0084
-4 3 30 -6.0913 0.0294
-4 3 31 -7.0453 -0.0270
-4 3 32 1.1574 -0.0090
-4 3 33 2.6465 0.0583
-4 3 34 -0.0722 0.0569
-4 4 1 2.3490 0.4357
-4 4 2 -7.1145 0.1982
-4 4 3 -1.1230 0.0025
-4 4 4 9.6123 -0.1076
-4 4 5 4.8036 0.0786
-4 4 6 -5.9464 0.2738
-4 4 7 -3.3670 -0.0068
-4 4 8 9.1508 -0.1622
-4 4 9 8.8652 0.0348
-4 4 10 -3.1236 0.0736
-4 4 11 0.6060 -0.0425
-4 4 12 8.5116 -0.0054
-4 4 13 -0.8587 0.0631
-4 4 14 -7.1938 -0.0015
-4 4 15 -0.2229 -0.0110
-4 4 16 2.9117 0.0297
-4 4 17 -1.1516 0.0106
-4 4 18 -1.3663 -0.0186
-4 4 19 0.9995 0.0110
-4 4 20 0.0019 0.0543
-4 4 21 -1.7480 0.0172
-4 4 22 -0.2561 0.0015
-4 4 23 1.8040 0.0149
-4 4 24 -1.2519 -0.0163
-4 4 25 0.1795 -0.0227
-4 4 26 4.8789 0.0196
-4 4 27 -1.4605 0.0227
-4 4 28 -3.4234 -0.0357
-4 4 29 2.8142 -0.0254
-4 4 30 0.3685 0.0186
-4 4 31 -2.9193 0.0016
-4 4 32 -2.2088 -0.0205
-4 4 33 -2.0033 0.0139
-4 4 34 0.3768 0.0708
-4 5 1 8.2807 -0.5314
-4 5 2 0.8613 0.1975
-4 5 3 -1.1943 0.4571
-4 5 4 4.4085 -0.0505
-4 5 5 -1.5656 -0.1018
-4 5 6 -11.0868 0.1418
-4 5 7 -4.0952 0.0366
-4 5 8 9.4561 -0.0334
-4 5 9 5.4987 0.0503
-4 5 10 -4.6249 0.0567
-4 5 11 3.0860 0.0026
-4 5 12 9.6372 0.0166
-4 5 13 -0.5215 0.0365
-4 5 14 -5.4770 -0.0119
-4 5 15 1.8879 -0.0465
-4 5 16 3.8357 -0.0097
-4 5 17 -1.3457 0.0630
-4 5 18 -1.6598 0.0287
-4 5 19 0.9903 -0.0280
-4 5 20 1.6139 0.0107
-4 5 21 0.2269 0.0263
-4 5 22 -1.3365 0.0086
-4 5 23 -0.5339 0.0028
-4 5 24 0.6082 0.0023
-4 5 25 1.8062 -0.0062
-4 5 26 -1.0664 0.0168
-4 5 27 -3.4942 0.0455
-4 5 28 5.3669 0.0098
-4 5 29 7.2085 -0.0254
-4 5 30 -4.2556 -0.0147
-4 5 31 -6.1395 0.0246
-4 5 32 -0.1453 0.0087
-4 5 33 2.1090 -0.0112
-4 6 1 12.4650 -0.7425
-4 6 2 -1.0425 -0.0423
-4 6 3 -3.9933 0.3134
-4 6 4 6.0457 0.0220
-4 6 5 1.4614 -0.1789
-4 6 6 -10.9938 -0.1644
-4 6 7 -7.7145 0.0144
-4 6 8 3.2435 0.1092
-4 6 9 1.0453 -0.0023
-4 6 10 -4.6185 -0.0136
-4 6 11 2.3228 0.0323
-4 6 12 7.2757 0.0058
-4 6 13 0.8468 -0.0043
-4 6 14 -2.2489 0.0127
-4 6 15 1.5602 -0.0242
-4 6 16 0.8690 -0.0355
-4 6 17 -1.0638 0.0282
-4 6 18 2.1568 0.0125
-4 6 19 2.2777 -0.0282
-4 6 20 -1.0311 -0.0145
-4 6 21 -1.2510 -0.0047
-4 6 22 1.0811 -0.0110
-4 6 23 1.2554 -0.0110
-4 6 24 -1.9271 0.0163
-4 6 25 -2.2664 0.0141
-4 6 26 0.3809 -0.0091
-4 6 27 3.9324 -0.0070
-4 6 28 4.7711 0.0137
-4 6 29 -2.7337 0.0101
-4 6 30 -5.1844 -0.0109
-4 6 31 2.1987 0.0011
-4 6 32 2.9579 -0.0061
-4 6 33 -0.4988 0.0361
-4 7 1 5.0446 0.0405
-4 7 2 -1.5091 -0.1669
-4 7 3 3.1679 -0.2166
-4 7 4 10.3501 0.0099
-4 7 5 1.1480 -0.0408
-4 7 6 -9.3059 -0.2282
-4 7 7 -6.3785 -0.0171
-4 7 8 -1.2971 0.0662
-4 7 9 -3.9273 -0.0868
-4 7 10 -5.2642 -0.0270
-4 7 11 1.1095 0.0433
-4 7 12 4.8928 -0.0324
-4 7 13 0.5515 -0.0489
-4 7 14 -2.7109 0.0295
-4 7 15 -0.3115 0.0356
-4 7 16 1.2298 -0.0197
-4 7 17 1.4985 -0.0381
-4 7 18 1.5241 -0.0171
-4 7 19 -1.2170 0.0093
-4 7 20 -1.4131 -0.0202
-4 7 21 1.6639 -0.0266
-4 7 22 0.8495 -0.0060
-4 7 23 -2.7589 -0.0231
-4 7 24 -1.2013 -0.0146
-4 7 25 2.8553 -0.0030
-4 7 26 0.4502 -0.0199
-4 7 27 -1.2775 -0.0082
-4 7 28 1.1473 0.0227
-4 7 29 -0.5436 -0.0214
-4 7 30 -0.9122 -0.0598
-4 7 31 1.8578 -0.0196
-4 7 32 0.6517 0.0294
-4 7 33 -0.6576 0.1033
-4 8 1 2.9757 0.7206
-4 8 2 2.6382 -0.1151
-4 8 3 6.2009 -0.4343
-4 8 4 6.8800 0.0651
-4 8 5 0.4072 0.1715
-4 8 6 -3.1890 -0.0436
-4 8 7 -2.8536 -0.0145
-4 8 8 -2.4314 -0.0405
-4 8 9 -2.6641 -0.0782
-4 8 10 -3.3776 -0.0145
-4 8 11 -2.4592 -0.0089
-4 8 12 -0.6077 -0.0291
-4 8 13 -0.9010 -0.0264
-4 8 14 -0.2492 0.0127
-4 8 15 2.8158 0.0531
-4 8 16 1.0429 0.0188
-4 8 17 -3.1783 -0.0542
-4 8 18 -1.5408 -0.0128
-4 8 19 1.4602 0.0509
-4 8 20 0.4888 -0.0138
-4 8 21 -0.7373 -0.0285
-4 8 22 -0.3461 0.0079
-4 8 23 -0.1587 -0.0216
-4 8 24 0.6743 -0.0255
-4 8 25 -1.1557 0.0047
-4 8 26 -4.2535 -0.0004
-4 8 27 2.2990 -0.0168
-4 8 28 7.7825 -0.0260
-4 8 29 -0.9187 -0.0208
-4 8 30 -6.2443 0.0245
-4 8 31 -0.2022 -0.0274
-4 8 32 2.7663 -0.0853
-4 9 1 0.2746 0.4403
-4 9 2 0.1796 0.0261
-4 9 3 3.3777 -0.1068
-4 9 4 3.3935 0.1449
-4 9 5 1.1153 0.2417
-4 9 6 1.2632 0.1499
-4 9 7 0.7760 -0.0290
-4 9 8 0.5187 -0.0851
-4 9 9 -0.4844 0.0389
-4 9 10 -4.2983 -0.0021
-4 9 11 -4.4685 -0.0611
-4 9 12 0.6118 0.0403
-4 9 13 2.0879 0.0392
-4 9 14 -0.2841 -0.0446
-4 9 15 0.4962 -0.0126
-4 9 16 0.5499 0.0477
-4 9 17 -1.7556 0.0127
-4 9 18 -0.4233 0.0050
-4 9 19 0.6068 0.0242
-4 9 20 -1.2339 0.0026
-4 9 21 0.4675 0.0204
-4 9 22 0.9973 0.0207
-4 9 23 -3.7247 -0.0108
-4 9 24 -2.3605 -0.0026
-4 9 25 2.7662 -0.0079
-4 9 26 1.9065 -0.0145
-4 9 27 1.9233 0.0222
-4 9 28 1.9831 0.0046
-4 9 29 -2.5805 -0.0172
-4 9 30 -2.2788 0.0307
-4 9 31 2.3587 -0.0449
-4 10 1 -3.6905 -0.3296
-4 10 2 -0.6370 0.2044
-4 10 3 1.9125 0.3022
-4 10 4 -0.4394 0.0226
-4 10 5 1.6517 0.0555
-4 10 6 3.6849 0.1751
-4 10 7 -1.6350 -0.0274
-4 10 8 -2.2451 -0.0434
-4 10 9 2.4417 0.1277
-4 10 10 1.7171 0.0418
-4 10 11 -1.3238 -0.0350
-4 10 12 -0.7009 0.0237
-4 10 13 -0.6291 0.0163
-4 10 14 -0.8626 -0.0332
-4 10 15 3.4387 -0.0311
-4 10 16 4.2623 0.0145
-4 10 17 -1.1032 0.0283
-4 10 18 -1.9679 0.0200
-4 10 19 -0.1949 0.0150
-4 10 20 -1.1089 0.0192
-4 10 21 -0.2256 0.0240
-4 10 22 -0.1911 -0.0018
-4 10 23 -1.8651 0.0021
-4 10 24 1.6971 0.0297
-4 10 25 3.0480 0.0072
-4 10 26 -2.1093 0.0060
-4 10 27 -1.5514 0.0260
-4 10 28 2.9181 -0.0471
-4 10 29 2.0050 -0.0380
-4 10 30 0.0376 0.1041
-4 10 31 0.4596 0.0472
-4 11 1 -2.8297 -0.6114
-4 11 2 3.6110 0.2387
-4 11 3 1.9154 0.2880
-4 11 4 -5.0158 -0.2486
-4 11 5 -1.7641 -0.2199
-4 11 6 1.1253 0.0840
-4 11 7 -2.2958 0.0945
-4 11 8 -0.2014 0.0506
-4 11 9 3.6813 0.0144
-4 11 10 2.4629 -0.0076
-4 11 11 -0.5924 0.0396
-4 11 12 -1.7632 0.0115
-4 11 13 -1.0763 -0.0183
-4 11 14 0.9749 -0.0220
-4 11 15 4.0271 -0.0488
-4 11 16 3.2270 0.0041
-4 11 17 -0.3204 0.0536
-4 11 18 -0.5466 -0.0011
-4 11 19 -0.3655 -0.0416
-4 11 20 -1.2286 -0.0061
-4 11 21 0.8247 0.0133
-4 11 22 2.3627 -0.0030
-4 11 23 -0.1407 0.0222
-4 11 24 -2.3554 0.0468
-4 11 25 -1.5089 -0.0009
-4 11 26 1.2992 -0.0207
-4 11 27 2.2963 0.0228
-4 11 28 -0.1097 -0.0064
-4 11 29 -0.6519 -0.0345
-4 11 30 1.5170 0.0442
-4 12 1 0.4604 -0.1907
-4 12 2 5.4743 -0.0558
-4 12 3 -1.1551 -0.0755
-4 12 4 -8.9656 -0.2012
-4 12 5 -1.0169 -0.2142
-4 12 6 5.1057 -0.0688
-4 12 7 0.0411 0.1277
-4 12 8 -3.3868 0.0705
-4 12 9 -0.1245 -0.1234
-4 12 10 4.3629 -0.0338
-4 12 11 1.4474 0.0686
-4 12 12 -3.1155 -0.0431
-4 12 13 -0.5986 -0.0305
-4 12 14 2.0103 0.0513
-4 12 15 0.9061 0.0129
-4 12 16 0.0660 -0.0226
-4 12 17 0.1175 -0.0313
-4 12 18 1.0744 -0.0313
-4 12 19 2.8661 -0.0116
-4 12 20 1.5287 -0.0184
-4 12 21 -2.0825 -0.0205
-4 12 22 -1.1046 0.0131
-4 12 23 1.6721 0.0197
-4 12 24 0.1506 -0.0078
-4 12 25 -0.2553 -0.0187
-4 12 26 2.1584 0.0106
-4 12 27 -0.1959 0.0604
-4 12 28 -3.0878 0.0255
-4 12 29 -0.1184 -0.0767
-4 13 1 0.1990 0.3222
-4 13 2 2.9761 -0.3586
-4 13 3 -2.6121 -0.2597
-4 13 4 -3.7048 0.1913
-4 13 5 4.2331 0.0386
-4 13 6 2.6621 -0.2010
-4 13 7 -2.9666 -0.0360
-4 13 8 -2.0769 0.0284
-4 13 9 1.4119 -0.0540
-4 13 10 3.7649 -0.0229
-4 13 11 1.3048 -0.0335
-4 13 12 -0.1231 -0.0282
-4 13 13 1.6349 0.0708
-4 13 14 -1.4158 0.0564
-4 13 15 -3.7883 -0.0161
-4 13 16 0.8635 -0.0313
-4 13 17 2.9297 -0.0402
-4 13 18 -0.0104 -0.0027
-4 13 19 -0.1331 0.0331
-4 13 20 -0.4529 -0.0159
-4 13 21 -1.6143 -0.0449
-4 13 22 2.6545 -0.0218
-4 13 23 4.6364 -0.0117
-4 13 24 -0.4950 0.0195
-4 13 25 -1.3147 0.0324
-4 13 26 1.7613 -0.0359
-4 13 27 -0.3778 -0.0139
-4 13 28 -2.0052 0.0895
-4 14 1 -0.6410 0.4431
-4 14 2 2.6906 -0.1879
-4 14 3 0.4224 -0.0882
-4 14 4 -0.1516 0.3308
-4 14 5 1.1923 0.1715
-4 14 6 -0.9805 -0.1167
-4 14 7 -0.8669 -0.1500
-4 14 8 -0.7292 -0.0658
-4 14 9 1.6133 0.0719
-4 14 10 6.1406 0.0581
-4 14 11 1.7755 -0.0586
-4 14 12 -1.6192 -0.0160
-4 14 13 2.9164 0.0359
-4 14 14 1.3618 0.0046
-4 14 15 -3.2113 0.0289
-4 14 16 -0.7592 0.0224
-4 14 17 -0.2391 -0.0232
-4 14 18 -2.5164 0.0117
-4 14 19 0.6496 0.0239
-4 14 20 2.2178 -0.0111
-4 14 21 -0.2358 0.0115
-4 14 22 0.1971 0.0153
-4 14 23 0.9529 -0.0465
-4 14 24 0.9284 -0.0296
-4 14 25 2.6032 0.0437
-4 14 26 1.1717 0.0105
-4 14 27 -1.8004 0.0053
-4 15 1 -0.4207 0.0995
-4 15 2 2.1790 0.2072
-4 15 3 -0.7535 0.1553
-4 15 4 -0.4800 0.0350
-4 15 5 1.7157 0.0569
-4 15 6 -1.0796 0.1068
-4 15 7 -2.5922 -0.0638
-4 15 8 -0.7332 -0.0892
-4 15 9 4.4075 0.0837
-4 15 10 4.7806 0.0537
-4 15 11 -1.9173 -0.0047
-4 15 12 0.4988 0.0334
-4 15 13 5.8350 -0.0384
-4 15 14 -1.0252 -0.0652
-4 15 15 -4.5550 0.0419
-4 15 16 2.0334 0.0640
-4 15 17 2.5806 0.0194
-4 15 18 -0.2896 0.0096
-4 15 19 -0.0702 0.0080
-4 15 20 -2.4665 0.0304
-4 15 21 -2.3479 0.0289
-4 15 22 1.3435 -0.0200
-4 15 23 0.8527 -0.0155
-4 15 24 0.7527 0.0671
-4 15 25 3.2025 0.0872
-4 15 26 1.0696 -0.0352
-4 16 1 -2.2753 -0.2589
-4 16 2 -1.1009 0.2971
-4 16 3 1.5704 0.1262
-4 16 4 4.8241 -0.2631
-4 16 5 -0.4862 -0.0667
-4 16 6 -5.8555 0.1906
-4 16 7 -0.5459 0.0729
-4 16 8 2.6148 -0.0012
-4 16 9 1.5300 -0.0048
-4 16 10 0.5100 -0.0315
-4 16 11 -1.6632 0.0483
-4 16 12 -0.1803 0.0348
-4 16 13 1.2946 -0.0702
-4 16 14 -0.7030 -0.0256
-4 16 15 2.4507 0.0302
-4 16 16 4.7696 0.0073
-4 16 17 -0.8779 0.0385
-4 16 18 -1.8559 0.0294
-4 16 19 0.3759 -0.0439
-4 16 20 -1.5470 -0.0121
-4 16 21 -0.0325 0.0737
-4 16 22 1.2425 0.0984
-4 16 23 -1.7452 0.0403
-4 16 24 0.1825 -0.0336
-4 16 25 3.5923 -0.0136
-4 17 1 -2.9190 -0.2825
-4 17 2 0.9853 -0.0094
-4 17 3 1.9512 -0.0790
-4 17 4 0.9451 -0.1750
-4 17 5 -0.9394 -0.0340
-4 17 6 -0.5311 0.0495
-4 17 7 0.7667 0.0865
-4 17 8 -1.6384 0.0835
-4 17 9 -1.1018 -0.0845
-4 17 10 0.0580 -0.1142
-4 17 11 -1.8821 0.0322
-4 17 12 0.5493 0.0507
-4 17 13 1.7169 0.0269
-4 17 14 -1.6622 0.0221
-4 17 15 1.0791 -0.0511
-4 17 16 1.7848 -0.0664
-4 17 17 -3.4171 -0.0031
-4 17 18 0.8650 0.0071
-4 17 19 5.6164 0.0399
-4 17 20 0.3334 0.0823
-4 17 21 -2.1711 -0.0024
-4 17 22 -0.5256 -0.0556
-4 17 23 -0.7347 0.0274
-4 17 24 0.1702 0.0925
-4 18 1 0.0777 0.0032
-4 18 2 -0.3616 -0.2080
-4 18 3 -2.8991 -0.1726
-4 18 4 2.7791 0.0655
-4 18 5 3.4365 0.0555
-4 18 6 -2.6497 -0.0738
-4 18 7 -2.6929 -0.0125
-4 18 8 -0.8069 -0.0159
-4 18 9 -0.5911 -0.0822
-4 18 10 0.2194 0.0318
-4 18 11 1.1666 0.0610
-4 18 12 1.3151 -0.0351
-4 18 13 -2.6310 0.0018
-4 18 14 -4.7874 0.0315
-4 18 15 1.0261 -0.0415
-4 18 16 1.8167 -0.0565
-4 18 17 -1.1620 0.0049
-4 18 18 3.5479 0.0477
-4 18 19 3.4586 0.0319
-4 18 20 -2.8328 -0.0347
-4 18 21 -1.7558 -0.0399
-4 18 22 1.3855 0.0605
-4 19 1 -2.0905 0.1905
-4 19 2 -0.1320 -0.1411
-4 19 3 0.2680 -0.0025
-4 19 4 1.8493 0.2034
-4 19 5 -0.9515 -0.0098
-4 19 6 -1.8546 -0.1591
-4 19 7 0.5191 -0.0633
-4 19 8 -2.2527 0.0046
-4 19 9 -1.7761 0.0856
-4 19 10 2.3796 0.0855
-4 19 11 -0.3880 -0.0808
-4 19 12 -3.1657 -0.0749
-4 19 13 -1.8498 0.0379
-4 19 14 -0.1180 -0.0002
-4 19 15 2.9656 0.0053
-4 19 16 1.5730 0.0617
-4 19 17 -2.1647 -0.0081
-4 19 18 -0.4266 -0.0613
-4 19 19 1.2499 0.0167
-4 19 20 0.3223 0.0895
-4 20 1 1.6759 0.1244
-4 20 2 2.3415 0.0622
-4 20 3 -1.8743 0.1472
-4 20 4 0.8093 0.0239
-4 20 5 0.6625 -0.1206
-4 20 6 -1.2339 0.0170
-4 20 7 0.1209 0.0680
-4 20 8 -1.3095 -0.0047
-4 20 9 -2.2367 0.0310
-4 20 10 -1.9281 0.0160
-4 20 11 -2.6318 -0.0195
-4 20 12 0.5260 0.0318
-4 20 13 2.0347 -0.0446
-4 20 14 -0.5442 -0.0888
-4 20 15 -0.3118 0.0715
-4 20 16 -0.5418 0.0863
-4 20 17 -0.9432 -0.0168
-4 20 18 1.4490 0.0516
-4 21 1 1.4569 -0.0209
-4 21 2 -1.5864 0.0520
-4 21 3 0.5772 0.0438
-4 21 4 4.7327 -0.0865
-4 21 5 -0.5747 0.0348
-4 21 6 -1.9058 0.1322
-4 21 7 1.2904 -0.0521
-4 21 8 -1.5979 -0.0392
-4 21 9 -1.8890 0.1158
-4 21 10 0.2237 0.0324
-4 21 11 -1.3844 -0.0414
-4 21 12 -0.8394 -0.0053
-4 21 13 -0.7457 -0.0694
-4 21 14 -2.6743 -0.0512
-4 21 15 -0.6440 0.0797
-4 21 16 1.8466 0.0666
-4 22 1 1.7870 -0.1423
-4 22 2 2.5959 -0.0007
-4 22 3 2.6218 -0.0201
-4 22 4 1.6741 -0.0800
-4 22 5 -1.6998 0.0824
-4 22 6 -0.9192 0.0613
-4 22 7 1.1043 -0.0489
-4 22 8 2.0552 0.0596
-4 22 9 3.0226 0.0323
-4 22 10 -1.2853 -0.0891
-4 22 11 -4.3538 0.0278
-4 22 12 -0.1294 0.0810
-4 22 13 0.4627 -0.0726
-4 23 1 3.4077 -0.0608
-4 23 2 2.6777 0.0243
-4 23 3 1.3482 -0.0539
-4 23 4 -0.6848 -0.0537
-4 23 5 -1.9784 0.0683
-4 23 6 1.1777 -0.0071
-4 23 7 2.9474 -0.0349
-4 23 8 1.5996 0.0335
-4 23 9 0.7980 -0.0204
-3 -22 1 2.2363 -0.0426
-3 -22 2 2.3171 0.2828
-3 -22 3 -1.5019 0.1449
-3 -22 4 -2.3310 -0.1772
-3 -22 5 2.0413 -0.1794
-3 -22 6 2.0373 0.0743
-3 -22 7 -1.2908 0.0418
-3 -22 8 0.0381 -0.1477
-3 -22 9 0.0254 -0.1056
-3 -22 10 -2.6507 0.0506
-3 -22 11 -2.2247 0.0960
-3 -21 1 2.3103 -0.2510
-3 -21 2 2.0785 0.2607
-3 -21 3 -0.7154 0.2812
-3 -21 4 0.3365 -0.1234
-3 -21 5 4.7179 -0.1912
-3 -21 6 1.1282 0.0724
-3 -21 7 -2.6417 0.0532
-3 -21 8 -0.0821 -0.1402
-3 -21 9 -0.2010 -0.1282
-3 -21 10 0.4087 0.0824
-3 -21 11 0.4762 0.1148
-3 -21 12 -4.1365 -0.1106
-3 -21 13 -3.2681 -0.0362
-3 -21 14 -0.2760 0.1686
-3 -21 15 0.2266 0.0115
-3 -20 1 0.2226 -0.2350
-3 -20 2 2.1780 -0.1206
-3 -20 3 1.6139 0.0943
-3 -20 4 2.8591 0.1135
-3 -20 5 2.9458 -0.0134
-3 -20 6 -3.0954 -0.0544
-3 -20 7 -1.8720 0.0091
-3 -20 8 3.6130 0.0201
-3 -20 9 2.0961 -0.0865
-3 -20 10 1.5658 -0.0174
-3 -20 11 -1.4058 0.0943
-3 -20 12 -5.6559 -0.0400
-3 -20 13 -1.7008 -0.0591
-3 -20 14 -1.1430 0.0810
-3 -20 15 -3.5476 0.0533
-3 -20 16 -0.6700 -0.0750
-3 -20 17 1.6167 -0.0788
-3 -20 18 0.9064 0.0751
-3 -19 1 -0.4920 0.0697
-3 -19 2 2.5066 -0.4277
-3 -19 3 0.4204 -0.2347
-3 -19 4 0.0629 0.2724
-3 -19 5 -0.1155 0.1883
-3 -19 6 -2.0820 -0.1564
-3 -19 7 2.3041 -0.0668
-3 -19 8 3.7890 0.1494
-3 -19 9 -0.4851 0.0023
-3 -19 10 1.0356 -0.0978
-3 -19 11 0.2191 0.0237
-3 -19 12 -3.5659 0.0155
-3 -19 13 -3.5386 -0.0488
-3 -19 14 -3.6356 0.0201
-3 -19 15 -0.4381 0.0783
-3 -19 16 2.3120 -0.0229
-3 -19 17 -0.9552 -0.0928
-3 -19 18 -3.9244 0.0575
-3 -19 19 -1.2744 0.0888
-3 -19 20 3.1030 -0.1359
-3 -18 1 -0.1252 0.3807
-3 -18 2 0.5554 -0.2489
-3 -18 3 -1.1932 -0.2940
-3 -18 4 -0.0427 0.1037
-3 -18 5 -0.4511 0.1550
-3 -18 6 -1.6823 -0.0581
-3 -18 7 1.5915 -0.0835
-3 -18 8 1.3696 0.0656
-3 -18 9 -0.2425 0.0526
-3 -18 10 2.2134 -0.0594
-3 -18 11 -0.2493 -0.0290
-3 -18 12 -3.7706 0.0540
-3 -18 13 -2.1237 0.0140
-3 -18 14 1.0679 -0.0513
-3 -18 15 1.1927 -0.0027
-3 -18 16 -2.8600 0.0335
-3 -18 17 -2.4997 -0.0255
-3 -18 18 -0.0904 -0.0164
-3 -18 19 -0.0961 0.0059
-3 -18 20 0.7074 -0.0516
-3 -18 21 -0.0091 0.0282
-3 -18 22 0.4598 0.0754
-3 -17 1 -0.3567 0.3211
-3 -17 2 0.2748 0.2820
-3 -17 3 0.4467 -0.0005
-3 -17 4 -0.2500 -0.2542
-3 -17 5 -2.0889 -0.0693
-3 -17 6 -1.7775 0.1351
-3 -17 7 1.2720 -0.0208
-3 -17 8 1.7282 -0.0655
-3 -17 9 1.3247 0.0527
-3 -17 10 1.1247 0.0068
-3 -17 11 -0.4785 -0.0432
-3 -17 12 -0.7425 0.0284
-3 -17 13 -0.9260 0.0312
-3 -17 14 -0.0816 -0.0479
-3 -17 15 -0.2845 -0.0505
-3 -17 16 -0.6769 0.0200
-3 -17 17 2.3585 0.0158
-3 -17 18 -0.2462 -0.0112
-3 -17 19 -1.9665 0.0065
-3 -17 20 2.8747 -0.0051
-3 -17 21 2.6266 0.0005
-3 -17 22 -0.4446 -0.0124
-3 -17 23 -2.4829 -0.0110
-3 -17 24 -2.3560 0.0847
-3 -16 1 2.6926 -0.1171
-3 -16 2 0.5923 0.4974
-3 -16 3 -0.6095 0.2774
-3 -16 4 -0.5445 -0.3444
-3 -16 5 -1.4234 -0.1345
-3 -16 6 -0.8353 0.2328
-3 -16 7 2.5935 0.0185
-3 -16 8 3.6069 -0.1240
-3 -16 9 1.6081 0.0240
-3 -16 10 0.0089 0.0476
-3 -16 11 0.0621 -0.0474
-3 -16 12 -0.9951 -0.0526
-3 -16 13 -1.4168 0.0349
-3 -16 14 2.7311 0.0254
-3 -16 15 1.4182 -0.0612
-3 -16 16 -1.7336 0.0013
-3 -16 17 1.2343 0.0597
-3 -16 18 1.3070 -0.0143
-3 -16 19 2.1452 -0.0426
-3 -16 20 3.1160 -0.0004
-3 -16 21 0.8626 0.0364
-3 -16 22 1.5570 0.0191
-3 -16 23 -0.3366 -0.0266
-3 -16 24 -3.3761 -0.0138
-3 -16 25 -1.8832 0.0655
-3 -15 1 1.8191 -0.5132
-3 -15 2 -2.2530 0.1636
-3 -15 3 -1.6531 0.2656
-3 -15 4 0.0997 -0.0718
-3 -15 5 0.5302 -0.0238
-3 -15 6 2.1637 0.1192
-3 -15 7 3.4921 0.0520
-3 -15 8 1.3056 -0.0363
-3 -15 9 -0.3126 -0.0573
-3 -15 10 -0.3365 -0.0051
-3 -15 11 -0.1212 0.0175
-3 -15 12 1.2623 -0.0368
-3 -15 13 4.4507 -0.0033
-3 -15 14 2.6609 0.0319
-3 -15 15 -5.8625 -0.0136
-3 -15 16 -2.8048 0.0069
-3 -15 17 5.1386 0.0121
-3 -15 18 1.0921 -0.0270
-3 -15 19 -0.7071 0.0025
-3 -15 20 2.3763 0.0339
-3 -15 21 3.6801 0.0089
-3 -15 22 3.0106 -0.0237
-3 -15 23 -0.9455 -0.0288
-3 -15 24 -1.6981 0.0205
-3 -15 25 0.1158 0.0942
-3 -15 26 -0.1088 0.0201
-3 -15 27 -1.2563 -0.0961
-3 -14 1 1.6470 -0.3709
-3 -14 2 -1.7205 -0.4055
-3 -14 3 -1.7806 -0.0325
-3 -14 4 1.8397 0.3090
-3 -14 5 1.7667 0.0805
-3 -14 6 -0.1116 -0.1725
-3 -14 7 -0.1547 0.0326
-3 -14 8 0.2118 0.1245
-3 -14 9 1.2929 -0.0548
-3 -14 10 0.7925 -0.0430
-3 -14 11 0.1423 0.0547
-3 -14 12 2.3981 -0.0074
-3 -14 13 4.2093 -0.0364
-3 -14 14 -1.0591 0.0162
-3 -14 15 -5.6178 0.0283
-3 -14 16 0.7348 -0.0104
-3 -14 17 1.2117 -0.0369
-3 -14 18 -3.3159 0.0097
-3 -14 19 2.0165 0.0420
-3 -14 20 3.5416 -0.0024
-3 -14 21 -0.4762 -0.0331
-3 -14 22 0.0288 0.0101
-3 -14 23 1.6496 0.0399
-3 -14 24 0.1108 0.0008
-3 -14 25 -2.3085 -0.0164
-3 -14 26 0.0221 -0.0390
-3 -14 27 1.7932 -0.0470
-3 -14 28 -0.2381 0.0496
-3 -13 1 2.5636 0.2433
-3 -13 2 -1.2817 -0.5830
-3 -13 3 -0.9520 -0.2866
-3 -13 4 1.4004 0.3443
-3 -13 5 -1.1751 0.0163
-3 -13 6 -1.0936 -0.3052
-3 -13 7 0.9646 0.0024
-3 -13 8 0.3603 0.1727
-3 -13 9 1.2196 0.0164
-3 -13 10 0.8822 -0.0600
-3 -13 11 -1.5159 0.0102
-3 -13 12 0.0410 0.0603
-3 -13 13 3.6065 -0.0025
-3 -13 15 -3.9737 0.0029
-3 -13 16 -0.2337 0.0208
-3 -13 17 -0.5711 -0.0020
-3 -13 18 -0.2330 0.0051
-3 -13 19 2.7316 -0.0124
-3 -13 20 -0.9411 -0.0038
-3 -13 21 -3.2386 0.0141
-3 -13 22 -1.4559 -0.0074
-3 -13 23 -0.0085 -0.0115
-3 -13 24 0.2904 0.0016
-3 -13 25 0.5408 0.0088
-3 -13 26 1.3473 -0.0291
-3 -13 27 -0.5442 -0.0633
-3 -13 28 -0.8003 0.0134
-3 -13 29 -0.2546 0.0794
-3 -12 1 3.9463 0.7234
-3 -12 2 -0.0553 -0.1059
-3 -12 3 -1.9246 -0.2928
-3 -12 4 1.0105 -0.0273
-3 -12 5 0.8276 -0.0005
-3 -12 6 0.2395 -0.0559
-3 -12 7 -0.8929 -0.0946
-3 -12 8 -0.7238 -0.0214
-3 -12 9 1.8278 0.1009
-3 -12 10 0.5220 0.0130
-3 -12 11 -2.2030 -0.0683
-3 -12 12 -0.5366 0.0364
-3 -12 13 1.2468 0.0441
-3 -12 14 -1.2762 -0.0256
-3 -12 15 0.0719 -0.0049
-3 -12 16 2.2694 0.0137
-3 -12 17 -1.5713 0.0265
-3 -12 18 -1.0762 -0.0068
-3 -12 19 0.6483 -0.0614
-3 -12 20 -0.9777 0.0115
-3 -12 21 -0.3294 0.0383
-3 -12 22 0.0176 -0.0452
-3 -12 23 -0.1855 -0.0245
-3 -12 24 -0.6030 0.0336
-3 -12 25 -0.3157 0.0034
-3 -12 26 -0.7498 -0.0337
-3 -12 27 -2.2846 -0.0415
-3 -12 28 0.9506 0.0022
-3 -12 29 1.1565 0.0775
-3 -12 30 -1.8618 0.0083
-3 -11 1 2.4472 0.3583
-3 -11 2 -1.7407 0.4823
-3 -11 3 0.4718 0.0686
-3 -11 4 4.4173 -0.3186
-3 -11 5 0.6641 0.0177
-3 -11 6 -2.4483 0.2732
-3 -11 7 -1.2416 -0.0957
-3 -11 8 1.1472 -0.2240
-3 -11 9 0.7519 0.0490
-3 -11 10 -0.6578 0.0803
-3 -11 11 0.1512 -0.0438
-3 -11 12 0.1903 -0.0125
-3 -11 13 -1.2998 0.0336
-3 -11 14 0.0605 0.0274
-3 -11 15 3.0737 0.0028
-3 -11 16 -1.7503 -0.0106
-3 -11 17 -4.8244 0.0306
-3 -11 18 2.3412 -0.0032
-3 -11 19 3.5019 -0.0633
-3 -11 20 0.5738 0.0139
-3 -11 21 2.4073 0.0542
-3 -11 22 2.1036 -0.0247
-3 -11 23 -2.1425 -0.0416
-3 -11 24 -3.1441 -0.0131
-3 -11 25 2.4406 -0.0091
-3 -11 26 1.7259 0.0232
-3 -11 27 -3.2711 0.0091
-3 -11 28 0.4021 -0.0280
-3 -11 29 1.4289 0.0431
-3 -11 30 -0.6881 0.0456
-3 -10 1 0.7117 -0.4864
-3 -10 2 0.9063 0.5609
-3 -10 3 2.3170 0.3887
-3 -10 4 0.9733 -0.2577
-3 -10 5 -1.7098 -0.0006
-3 -10 6 -0.9070 0.2876
-3 -10 7 1.4982 0.0254
-3 -10 8 1.6687 -0.1534
-3 -10 9 -1.7708 -0.0545
-3 -10 10 -1.7470 0.0457
-3 -10 11 2.2375 0.0376
-3 -10 12 2.0756 -0.0203
-3 -10 13 -1.8823 -0.0283
-3 -10 14 -1.1361 0.0196
-3 -10 15 1.2174 0.0100
-3 -10 16 -2.8746 -0.0242
-3 -10 17 -1.2298 0.0064
-3 -10 18 4.6862 0.0291
-3 -10 19 1.0124 0.0045
-3 -10 20 -1.1642 -0.0062
-3 -10 21 3.5982 -0.0033
-3 -10 22 4.7628 -0.0159
-3 -10 23 -1.5829 -0.0005
-3 -10 24 -3.5656 -0.0032
-3 -10 25 3.6858 -0.0429
-3 -10 26 2.9794 0.0158
-3 -10 27 -1.0228 0.0634
-3 -10 28 1.4297 -0.0157
-3 -10 29 -0.6422 -0.0029
-3 -10 30 -1.5881 0.0712
-3 -10 31 2.3008 -0.0377
-3 -9 1 0.0975 -0.7690
-3 -9 2 1.9772 -0.0037
-3 -9 3 -0.6372 0.2384
-3 -9 4 -1.9485 0.0613
-3 -9 5 2.1742 -0.0596
-3 -9 6 3.1432 -0.0517
-3 -9 7 -0.0567 0.1334
-3 -9 8 -2.2252 0.1243
-3 -9 9 -2.7896 -0.0749
-3 -9 10 -0.2013 -0.0571
-3 -9 11 2.8001 0.0503
-3 -9 12 1.4946 0.0065
-3 -9 13 -2.6310 -0.0540
-3 -9 14 -1.0654 -0.0325
-3 -9 15 1.8718 0.0012
-3 -9 16 -1.3913 -0.0001
-3 -9 17 -0.8912 -0.0187
-3 -9 18 1.5036 0.0180
-3 -9 19 -0.1542 0.0386
-3 -9 20 -0.1105 -0.0150
-3 -9 21 2.5536 -0.0319
-3 -9 22 3.5295 -0.0152
-3 -9 23 -1.7543 0.0103
-3 -9 24 -2.2553 0.0141
-3 -9 25 4.0103 -0.0290
-3 -9 26 1.4129 0.0113
-3 -9 27 -0.9978 0.0730
-3 -9 28 1.2586 -0.0084
-3 -9 29 -0.7339 -0.0498
-3 -9 30 0.5330 0.0523
-3 -9 31 4.1863 0.0288
-3 -9 32 2.9017 -0.0985
-3 -8 1 -4.3748 -0.1102
-3 -8 2 3.7920 -0.5127
-3 -8 3 2.0665 -0.2309
-3 -8 4 -2.1111 0.2118
-3 -8 5 2.1603 -0.0409
-3 -8 6 3.1049 -0.2519
-3 -8 7 -1.3294 0.0828
-3 -8 8 -2.8799 0.1966
-3 -8 9 -0.4248 -0.0083
-3 -8 10 0.2780 -0.0693
-3 -8 11 -1.3372 -0.0097
-3 -8 12 -0.7479 0.0063
-3 -8 13 0.2830 -0.0062
-3 -8 14 1.3385 -0.0270
-3 -8 15 -0.3631 -0.0185
-3 -8 16 -2.5351 -0.0056
-3 -8 17 0.0723 -0.0274
-3 -8 18 0.6692 0.0116
-3 -8 19 -0.4216 0.0291
-3 -8 20 0.1491 -0.0259
-3 -8 21 2.3631 -0.0307
-3 -8 22 2.3214 -0.0238
-3 -8 23 -4.0340 -0.0023
-3 -8 24 -3.0261 0.0477
-3 -8 25 2.1959 0.0188
-3 -8 26 -0.8508 -0.0215
-3 -8 27 -0.5633 0.0243
-3 -8 28 1.6220 0.0092
-3 -8 29 -0.1900 -0.0469
-3 -8 30 1.2258 0.0454
-3 -8 31 3.3614 0.0632
-3 -8 32 2.2475 -0.1122
-3 -7 1 -1.3563 0.6023
-3 -7 2 10.7529 -0.3664
-3 -7 3 -1.5222 -0.3445
-3 -7 4 -8.9749 0.1110
-3 -7 5 4.8259 0.0035
-3 -7 6 10.1701 -0.1193
-3 -7 7 -0.7784 -0.0202
-3 -7 8 -6.6376 0.0249
-3 -7 9 -0.2013 0.0360
-3 -7 10 2.2278 0.0087
-3 -7 11 -1.8286 -0.0441
-3 -7 12 -1.9326 -0.0276
-3 -7 13 0.4219 0.0470
-3 -7 14 -0.1143 0.0391
-3 -7 15 -3.4322 -0.0083
-3 -7 16 -1.0848 -0.0104
-3 -7 17 3.0564 -0.0204
-3 -7 18 1.2060 -0.0119
-3 -7 19 0.0665 -0.0060
-3 -7 20 -0.4513 -0.0082
-3 -7 21 0.1160 0.0172
-3 -7 22 -0.3082 0.0043
-3 -7 23 -3.3356 -0.0316
-3 -7 24 0.5935 0.0088
-3 -7 25 1.8795 0.0521
-3 -7 26 -3.4988 -0.0051
-3 -7 27 -2.7284 -0.0171
-3 -7 28 -0.8057 0.0178
-3 -7 29 -0.1010 -0.0203
-3 -7 30 2.7937 -0.0026
-3 -7 31 4.0001 0.0267
-3 -7 32 2.3821 -0.0559
-3 -7 33 -0.8669 -0.0813
-3 -6 1 1.5825 0.4916
-3 -6 2 0.7299 0.0843
-3 -6 3 -9.7260 -0.0195
-3 -6 4 -1.1211 0.0057
-3 -6 5 14.0765 0.0705
-3 -6 6 6.3954 0.1039
-3 -6 7 -7.7109 -0.0871
-3 -6 8 -3.2985 -0.1135
-3 -6 9 8.5122 0.0386
-3 -6 10 4.8875 0.0510
-3 -6 11 -5.7556 -0.0078
-3 -6 12 -6.6439 -0.0091
-3 -6 13 0.1088 0.0450
-3 -6 14 1.2595 0.0348
-3 -6 15 -3.4956 0.0078
-3 -6 16 -0.1061 0.0211
-3 -6 17 4.1166 -0.0073
-3 -6 18 1.7095 -0.0228
-3 -6 19 -1.4113 0.0123
-3 -6 20 -3.4225 0.0266
-3 -6 21 0.9732 0.0172
-3 -6 22 2.9900 0.0163
-3 -6 23 -1.1136 -0.0200
-3 -6 24 0.6470 -0.0110
-3 -6 25 0.9504 0.0521
-3 -6 26 -2.7046 -0.0011
-3 -6 27 -2.7066 -0.0287
-3 -6 28 -1.7801 0.0313
-3 -6 29 -0.0277 -0.0064
-3 -6 30 2.3646 -0.0306
-3 -6 31 4.1058 0.0277
-3 -6 32 3.4666 -0.0216
-3 -6 33 -0.8586 -0.1421
-3 -5 1 4.7489 -0.2056
-3 -5 2 2.7425 0.2854
-3 -5 3 -10.3112 0.2826
-3 -5 4 -2.6452 -0.0167
-3 -5 5 7.6577 0.0528
-3 -5 6 1.2687 0.1065
-3 -5 7 -2.4377 -0.0777
-3 -5 8 6.5601 -0.0478
-3 -5 9 10.3230 0.0319
-3 -5 10 0.9214 0.0336
-3 -5 11 -6.7947 0.0299
-3 -5 12 -4.7956 -0.0028
-3 -5 13 2.3243 0.0005
-3 -5 14 0.8791 -0.0076
-3 -5 15 -4.9675 0.0027
-3 -5 16 -0.6134 0.0488
-3 -5 17 3.1346 0.0310
-3 -5 18 1.7923 -0.0191
-3 -5 19 -0.9132 -0.0002
-3 -5 20 -2.7966 0.0239
-3 -5 21 1.7709 0.0028
-3 -5 22 2.0600 0.0236
-3 -5 23 -1.1258 0.0086
-3 -5 24 2.4455 -0.0197
-3 -5 25 3.2632 0.0242
-3 -5 26 -0.2527 0.0138
-3 -5 27 -1.7127 -0.0082
-3 -5 28 -2.1315 0.0280
-3 -5 29 -1.0971 0.0133
-3 -5 30 2.5580 -0.0396
-3 -5 31 5.6881 -0.0139
-3 -5 32 2.5261 0.0040
-3 -5 33 -2.4685 -0.1111
-3 -4 1 20.0475 -0.4214
-3 -4 2 -7.3674 0.1862
-3 -4 3 -23.0409 0.1283
-3 -4 4 -1.2396 -0.1239
-3 -4 5 8.8023 -0.0367
-3 -4 6 -3.8214 -0.0049
-3 -4 7 -5.0768 -0.0218
-3 -4 8 7.1209 0.0314
-3 -4 9 9.5038 -0.0236
-3 -4 10 3.6490 -0.0025
-3 -4 11 -0.4132 0.0377
-3 -4 12 -2.0549 0.0003
-3 -4 13 0.9516 -0.0176
-3 -4 14 -0.9104 -0.0342
-3 -4 15 -4.9074 -0.0175
-3 -4 16 -1.9136 0.0229
-3 -4 17 1.2343 0.0220
-3 -4 18 3.6748 -0.0257
-3 -4 19 1.0653 -0.0145
-3 -4 20 -3.3924 0.0148
-3 -4 21 -0.3567 -0.0192
-3 -4 22 0.5833 0.0002
-3 -4 23 0.0599 0.0204
-3 -4 24 4.5437 -0.0117
-3 -4 25 5.3960 -0.0061
-3 -4 26 0.4596 0.0088
-3 -4 27 -2.5479 -0.0032
-3 -4 28 -0.5334 0.0115
-3 -4 29 2.5803 0.0166
-3 -4 30 3.1564 -0.0417
-3 -4 31 0.6921 0.0055
-3 -4 32 -1.8363 0.0809
-3 -4 33 0.0929 -0.0886
-3 -4 34 2.4040 -0.2149
-3 -3 1 13.2973 0.0431
-3 -3 2 -10.6023 -0.0393
-3 -3 3 -3.3546 -0.1822
-3 -3 4 9.3300 -0.1626
-3 -3 5 -11.0670 -0.1048
-3 -3 6 -25.3189 -0.0908
-3 -3 7 -5.4816 0.0436
-3 -3 8 13.2333 0.0222
-3 -3 9 8.7003 -0.1046
-3 -3 10 4.5602 -0.0094
-3 -3 11 4.6304 0.0518
-3 -3 12 0.0640 0.0011
-3 -3 13 -1.3188 -0.0354
-3 -3 14 -2.2290 -0.0248
-3 -3 15 -1.6756 -0.0235
-3 -3 16 0.7885 -0.0466
-3 -3 17 0.7512 0.0049
-3 -3 18 0.8004 0.0184
-3 -3 19 -2.1326 -0.0181
-3 -3 20 -2.8646 -0.0210
-3 -3 21 1.8805 -0.0250
-3 -3 22 2.3890 -0.0112
-3 -3 23 0.5204 0.0012
-3 -3 24 1.1206 -0.0225
-3 -3 25 1.6478 -0.0255
-3 -3 26 2.6648 0.0031
-3 -3 27 4.4035 -0.0253
-3 -3 28 2.0186 -0.0234
-3 -3 29 -2.0074 0.0430
-3 -3 30 -0.3057 0.0028
-3 -3 31 1.8183 -0.0105
-3 -3 32 -0.5581 0.0653
-3 -3 33 -1.5750 -0.0116
-3 -3 34 0.0840 -0.1347
-3 -2 1 23.1998 0.4132
-3 -2 2 4.1923 -0.1197
-3 -2 3 15.2505 -0.1481
-3 -2 4 7.0479 0.0122
-3 -2 5 -29.6426 -0.0587
-3 -2 6 -31.4114 -0.0833
-3 -2 7 1.9293 0.0775
-3 -2 8 11.5797 0.0279
-3 -2 9 -2.4633 -0.0552
-3 -2 10 1.0045 -0.0240
-3 -2 11 8.7215 -0.0291
-3 -2 12 3.1930 -0.0064
-3 -2 13 -0.4364 -0.0093
-3 -2 14 0.8953 0.0154
-3 -2 15 2.8634 0.0163
-3 -2 16 0.3976 -0.0487
-3 -2 17 -3.6125 -0.0141
-3 -2 18 -2.3148 0.0311
-3 -2 19 0.4572 0.0145
-3 -2 20 2.2205 -0.0070
-3 -2 21 1.3414 -0.0323
-3 -2 22 -1.4612 -0.0358
-3 -2 23 -1.7778 0.0078
-3 -2 24 0.8394 0.0082
-3 -2 25 4.2589 -0.0315
-3 -2 26 5.4102 -0.0107
-3 -2 27 1.8986 -0.0197
-3 -2 28 -2.7466 -0.0214
-3 -2 29 0.1026 0.0311
-3 -2 30 5.5833 -0.0176
-3 -2 31 1.1692 -0.0534
-3 -2 32 -5.8354 0.0508
-3 -2 33 -4.5284 0.0894
-3 -2 34 0.2704 -0.0103
-3 -1 1 13.9101 0.2305
-3 -1 2 5.2057 -0.0126
-3 -1 3 40.2817 0.0827
-3 -1 4 23.1858 0.1889
-3 -1 5 -32.3091 0.1285
-3 -1 6 -32.8707 0.0444
-3 -1 7 4.1591 0.0031
-3 -1 8 3.8457 -0.0037
-3 -1 9 -13.6771 0.0853
-3 -1 10 -1.4197 -0.0067
-3 -1 11 11.8752 -0.0952
-3 -1 12 6.7296 0.0228
-3 -1 13 0.7569 0.0354
-3 -1 14 -0.1305 0.0200
-3 -1 15 1.5059 0.0292
-3 -1 16 1.2514 -0.0121
-3 -1 17 0.1388 -0.0049
-3 -1 18 0.2560 0.0304
-3 -1 19 -0.0398 0.0192
-3 -1 20 -1.4027 0.0062
-3 -1 21 -1.5780 0.0167
-3 -1 22 1.8265 -0.0047
-3 -1 23 3.0900 0.0034
-3 -1 24 -0.3215 0.0193
-3 -1 25 -2.0598 0.0064
-3 -1 26 1.2831 0.0300
-3 -1 27 4.5721 -0.0014
-3 -1 28 2.9406 -0.0571
-3 -1 29 0.6188 -0.0180
-3 -1 30 -0.7910 0.0178
-3 -1 31 -2.1015 -0.0144
-3 -1 32 -1.5248 -0.0103
-3 -1 33 -1.4370 0.0526
-3 -1 34 -1.2824 0.0792
-3 0 1 -3.5372 -0.2414
-3 0 2 19.7318 0.2000
-3 0 3 66.8680 0.1746
-3 0 4 31.4404 0.0375
-3 0 5 -32.3703 0.1256
-3 0 6 -24.6498 0.1447
-3 0 7 9.3732 -0.0438
-3 0 8 -3.0003 -0.0566
-3 0 9 -17.7442 0.1407
-3 0 10 0.9444 0.0643
-3 0 11 10.5174 -0.0336
-3 0 12 1.1363 0.0161
-3 0 13 -3.7494 -0.0196
-3 0 14 0.4763 -0.0224
-3 0 15 5.3368 0.0281
-3 0 16 4.0086 0.0275
-3 0 17 -0.1738 -0.0001
-3 0 18 -2.1610 0.0019
-3 0 19 -1.1344 0.0062
-3 0 20 0.3878 0.0311
-3 0 21 1.9534 0.0490
-3 0 22 2.0394 -0.0097
-3 0 23 -1.3470 -0.0018
-3 0 24 -2.6129 0.0425
-3 0 25 0.2834 0.0201
-3 0 26 3.2043 0.0237
-3 0 27 2.0464 0.0346
-3 0 28 -0.9717 -0.0112
-3 0 29 -0.4355 -0.0333
-3 0 30 -0.0607 0.0185
-3 0 31 -1.2310 0.0328
-3 0 32 -0.5911 -0.0270
-3 0 33 0.1559 -0.0417
-3 0 34 -0.4829 0.0553
-3 1 1 -13.9867 -0.4638
-3 1 2 15.6740 0.1171
-3 1 3 65.2287 0.0086
-3 1 4 34.4316 -0.1843
-3 1 5 -19.4280 -0.0720
-3 1 6 -10.7279 0.0998
-3 1 7 12.3788 0.0406
-3 1 8 -2.6394 -0.0399
-3 1 9 -12.1081 0.0097
-3 1 10 -1.3978 0.0129
-3 1 11 -0.2189 0.0270
-3 1 12 -3.1215 -0.0036
-3 1 13 -0.0519 -0.0606
-3 1 14 3.6085 -0.0391
-3 1 15 2.5143 0.0086
-3 1 16 -1.8823 0.0263
-3 1 17 -2.5785 0.0022
-3 1 18 1.3050 -0.0113
-3 1 19 3.4000 -0.0327
-3 1 20 0.6885 -0.0158
-3 1 21 -1.5588 0.0251
-3 1 22 -1.4384 0.0073
-3 1 23 0.2553 0.0027
-3 1 24 1.5903 0.0057
-3 1 25 0.1026 -0.0057
-3 1 26 -0.3347 0.0167
-3 1 27 -0.9111 0.0605
-3 1 28 -1.9479 0.0313
-3 1 29 0.1287 -0.0417
-3 1 30 0.5323 -0.0096
-3 1 31 -1.8143 0.0608
-3 1 32 -1.9453 -0.0015
-3 1 33 0.5049 -0.0880
-3 1 34 0.8220 0.0184
-3 2 1 -28.0930 -0.1466
-3 2 2 7.2968 -0.2141
-3 2 3 52.4817 -0.1780
-3 2 4 28.5635 -0.0389
-3 2 5 -6.8208 -0.1130
-3 2 6 4.3844 -0.0711
-3 2 7 14.0398 0.0665
-3 2 8 -2.9106 0.0177
-3 2 9 -7.9728 -0.1387
-3 2 10 -1.6014 -0.1155
-3 2 11 -0.3629 0.0222
-3 2 12 -0.2013 0.0174
-3 2 13 -1.5117 -0.0049
-3 2 14 -2.6455 -0.0101
-3 2 15 -2.2792 -0.0222
-3 2 16 -1.2015 -0.0135
-3 2 17 1.3013 -0.0141
-3 2 18 2.1770 -0.0149
-3 2 19 -0.7629 -0.0385
-3 2 20 -2.0580 -0.0396
-3 2 21 0.4773 -0.0132
-3 2 22 1.2986 0.0038
-3 2 23 1.1270 -0.0022
-3 2 24 -0.0452 -0.0118
-3 2 25 -1.2359 -0.0048
-3 2 26 0.0770 -0.0212
-3 2 27 -1.9882 -0.0020
-3 2 28 -2.5740 0.0317
-3 2 29 2.0939 -0.0044
-3 2 30 0.4269 -0.0274
-3 2 31 -5.9089 0.0193
-3 2 32 -4.1595 0.0129
-3 2 33 3.3854 -0.0273
-3 2 34 3.5294 0.0362
-3 3 1 -19.8742 0.3879
-3 3 2 2.0071 -0.3645
-3 3 3 24.8416 -0.1466
-3 3 4 15.6133 0.2909
-3 3 5 7.2433 0.0448
-3 3 6 11.8054 -0.1752
-3 3 7 4.3490 -0.0501
-3 3 8 -2.0022 0.0410
-3 3 9 5.5180 -0.0430
-3 3 10 4.2450 -0.0658
-3 3 11 -2.5168 -0.0420
-3 3 12 -2.6295 -0.0138
-3 3 13 -2.2546 0.0626
-3 3 14 -2.1430 0.0259
-3 3 15 -0.9860 -0.0396
-3 3 16 -0.4089 -0.0291
-3 3 17 -1.4385 -0.0038
-3 3 18 -2.4012 0.0095
-3 3 19 -0.1951 0.0044
-3 3 20 3.4251 -0.0182
-3 3 21 1.5514 -0.0332
-3 3 22 -1.8846 0.0033
-3 3 23 0.5052 0.0032
-3 3 24 0.3816 -0.0135
-3 3 25 -0.6980 -0.0018
-3 3 26 2.3751 -0.0401
-3 3 27 0.4579 -0.0427
-3 3 28 -3.1838 0.0282
-3 3 29 -2.8383 0.0385
-3 3 30 -2.1923 -0.0355
-3 3 31 -0.5838 -0.0525
-3 3 32 1.5572 -0.0144
-3 3 33 0.7350 0.0371
-3 3 34 -2.3401 0.0801
-3 4 1 -7.8205 0.4388
-3 4 2 2.5863 -0.0277
-3 4 3 6.3129 0.0742
-3 4 4 2.4732 0.2010
-3 4 5 6.0974 0.1262
-3 4 6 7.6581 0.0236
-3 4 7 0.9364 -0.0809
-3 4 8 4.7855 -0.0278
-3 4 9 10.1895 0.0934
-3 4 10 2.0146 0.0907
-3 4 11 -1.5764 -0.0347
-3 4 12 1.8958 -0.0516
-3 4 13 0.4113 0.0158
-3 4 14 -2.4029 0.0126
-3 4 15 -1.8808 0.0179
-3 4 16 -0.8922 0.0227
-3 4 17 -1.1446 0.0148
-3 4 18 -0.4842 0.0178
-3 4 19 0.9379 0.0348
-3 4 20 0.7156 0.0190
-3 4 21 -1.1677 -0.0129
-3 4 22 1.0639 0.0059
-3 4 23 4.0159 -0.0091
-3 4 24 0.0655 -0.0153
-3 4 25 -0.3819 0.0298
-3 4 26 1.9640 0.0305
-3 4 27 -1.9943 -0.0166
-3 4 28 -1.8496 -0.0235
-3 4 29 2.5848 0.0143
-3 4 30 0.6920 0.0070
-3 4 31 -3.3999 -0.0229
-3 4 32 -2.0812 -0.0488
-3 4 33 1.2623 -0.0070
-3 5 1 8.9986 -0.1242
-3 5 2 4.9233 0.3991
-3 5 3 -8.4605 0.3134
-3 5 4 -7.7255 -0.1586
-3 5 5 4.8577 -0.0369
-3 5 6 4.1678 0.1659
-3 5 7 -4.6821 0.0132
-3 5 8 1.5129 -0.0313
-3 5 9 8.4663 0.0762
-3 5 10 3.2746 0.0843
-3 5 11 0.7273 0.0175
-3 5 12 2.3260 -0.0016
-3 5 13 1.1925 -0.0364
-3 5 14 -0.3872 -0.0193
-3 5 15 0.0303 0.0477
-3 5 16 -0.0101 0.0431
-3 5 17 -1.1798 0.0216
-3 5 18 -1.6385 0.0035
-3 5 19 -0.3616 0.0195
-3 5 20 1.8950 0.0273
-3 5 21 1.3747 -0.0025
-3 5 22 0.4656 0.0020
-3 5 23 0.7156 0.0205
-3 5 24 -0.1770 0.0198
-3 5 25 0.9691 0.0097
-3 5 26 2.0818 0.0264
-3 5 27 2.1337 0.0231
-3 5 28 2.3364 0.0040
-3 5 29 -1.7728 -0.0004
-3 5 30 -4.7685 -0.0103
-3 5 31 -0.4894 0.0118
-3 5 32 4.0708 0.0113
-3 5 33 2.4757 -0.0015
-3 6 1 11.8835 -0.4936
-3 6 2 1.1019 0.3273
-3 6 3 -7.8768 0.1567
-3 6 4 -1.6276 -0.3580
-3 6 5 2.9895 -0.1646
-3 6 6 -6.6209 0.0912
-3 6 7 -11.4125 0.0928
-3 6 8 0.0778 0.0307
-3 6 9 5.2808 -0.0608
-3 6 10 -0.9143 -0.0631
-3 6 11 -0.8039 0.0605
-3 6 12 4.1594 0.0848
-3 6 13 3.1966 -0.0409
-3 6 14 -0.5312 -0.0474
-3 6 15 -0.7704 0.0029
-3 6 16 -0.0032 0.0110
-3 6 17 0.5453 0.0221
-3 6 18 0.6257 -0.0180
-3 6 19 -0.1807 -0.0247
-3 6 20 -0.2004 0.0098
-3 6 21 -0.9606 0.0075
-3 6 22 -0.7443 -0.0011
-3 6 23 1.0508 0.0219
-3 6 24 1.1247 0.0106
-3 6 25 1.4795 -0.0280
-3 6 26 2.9656 0.0106
-3 6 27 1.9477 0.0393
-3 6 28 -2.3989 0.0034
-3 6 29 -2.7859 -0.0428
-3 6 30 2.4243 -0.0150
-3 6 31 2.3792 0.0799
-3 6 32 -1.1242 0.0771
-3 6 33 0.4369 -0.0053
-3 7 1 12.1037 -0.2163
-3 7 2 5.1005 -0.1919
-3 7 3 -0.0687 -0.3101
-3 7 4 1.8048 -0.1371
-3 7 5 -0.2443 0.0126
-3 7 6 -8.3426 -0.0763
-3 7 7 -11.0778 0.0089
-3 7 8 -4.5215 0.0515
-3 7 9 -0.4127 -0.0767
-3 7 10 -1.2791 -0.0971
-3 7 11 -0.3080 0.0069
-3 7 12 1.0743 0.0297
-3 7 13 -0.2478 -0.0000
-3 7 14 -0.2207 0.0141
-3 7 15 1.4736 -0.0303
-3 7 16 1.2845 -0.0387
-3 7 17 1.3700 -0.0015
-3 7 18 -0.1197 -0.0264
-3 7 19 -2.7077 -0.0275
-3 7 20 -0.1152 -0.0001
-3 7 21 2.1547 -0.0084
-3 7 22 -0.5774 -0.0327
-3 7 23 -1.6837 -0.0042
-3 7 24 0.3133 0.0110
-3 7 25 1.0523 -0.0250
-3 7 26 1.7272 -0.0281
-3 7 27 2.6084 -0.0001
-3 7 28 -0.4197 0.0164
-3 7 29 -2.5837 -0.0296
-3 7 30 0.2174 -0.0515
-3 7 31 1.7584 0.0166
-3 7 32 0.9860 0.0902
-3 8 1 10.9332 0.2682
-3 8 2 3.9764 -0.4709
-3 8 3 1.3134 -0.3983
-3 8 4 3.5523 0.2371
-3 8 5 2.4806 0.1447
-3 8 6 -3.9480 -0.1605
-3 8 7 -8.1907 -0.0536
-3 8 8 -4.0601 0.0022
-3 8 9 -0.3006 -0.0085
-3 8 10 -3.3677 0.0149
-3 8 11 -4.9756 -0.0377
-3 8 12 -0.9722 -0.0677
-3 8 13 1.9567 0.0364
-3 8 14 2.3335 0.0835
-3 8 15 1.3064 -0.0163
-3 8 16 -1.1697 -0.0513
-3 8 17 -0.8545 -0.0196
-3 8 18 0.4168 0.0050
-3 8 19 0.2630 -0.0020
-3 8 20 1.8565 -0.0298
-3 8 21 1.1993 -0.0143
-3 8 22 -2.4762 -0.0123
-3 8 23 -1.5958 -0.0238
-3 8 24 1.0928 -0.0132
-3 8 25 0.1543 -0.0058
-3 8 26 1.8305 -0.0147
-3 8 27 4.9112 -0.0096
-3 8 28 0.2809 -0.0016
-3 8 29 -4.4675 -0.0364
-3 8 30 -0.5156 -0.0511
-3 8 31 2.9421 -0.0261
-3 8 32 -0.0008 0.0411
-3 9 1 1.5108 0.3507
-3 9 2 0.7665 -0.1279
-3 9 3 4.1062 0.0885
-3 9 4 4.9350 0.3073
-3 9 5 2.7829 -0.0430
-3 9 6 0.3983 -0.1130
-3 9 7 -1.9237 0.0135
-3 9 8 -2.4172 -0.0198
-3 9 9 -3.0739 0.0479
-3 9 10 -4.2408 0.0761
-3 9 11 -1.1496 -0.0261
-3 9 12 2.4446 -0.0293
-3 9 13 0.1348 0.0435
-3 9 14 -0.5255 0.0178
-3 9 15 2.3650 -0.0054
-3 9 16 0.5325 0.0251
-3 9 17 -0.8669 0.0076
-3 9 18 1.1084 0.0159
-3 9 19 -0.2499 0.0099
-3 9 20 -1.1223 -0.0177
-3 9 21 1.0694 0.0127
-3 9 22 0.5924 0.0006
-3 9 23 -0.5528 -0.0340
-3 9 24 0.7011 -0.0004
-3 9 25 0.8615 0.0273
-3 9 26 1.4343 -0.0089
-3 9 27 3.9667 -0.0300
-3 9 28 2.1552 -0.0080
-3 9 29 -3.1795 0.0220
-3 9 30 -2.4092 -0.0018
-3 9 31 2.8858 -0.0784
-3 10 1 -1.2575 0.0952
-3 10 2 1.4280 0.3065
-3 10 3 2.5760 0.4139
-3 10 4 1.0968 0.0442
-3 10 5 2.6260 -0.1716
-3 10 6 1.6098 0.0549
-3 10 7 -3.3652 0.0487
-3 10 8 -1.5433 -0.0303
-3 10 9 3.1678 0.0681
-3 10 10 0.7179 0.0537
-3 10 11 -2.3330 -0.0026
-3 10 12 -1.3437 0.0129
-3 10 13 -1.2662 -0.0170
-3 10 14 2.4963 -0.0443
-3 10 15 7.1444 0.0477
-3 10 16 1.6326 0.0729
-3 10 17 -3.5653 -0.0038
-3 10 18 -1.4328 0.0168
-3 10 19 -1.1454 0.0276
-3 10 20 -0.0263 -0.0072
-3 10 21 3.2364 0.0100
-3 10 22 0.9716 0.0167
-3 10 23 -1.8578 0.0167
-3 10 24 0.3484 0.0261
-3 10 25 0.8828 -0.0067
-3 10 26 -0.0685 -0.0318
-3 10 27 2.9355 0.0038
-3 10 28 3.5595 0.0342
-3 10 29 -1.1186 0.0451
-3 10 30 -0.8852 0.0016
-3 10 31 2.8731 -0.0673
-3 11 1 -0.9094 -0.1936
-3 11 2 2.2467 0.2653
-3 11 3 -0.3150 0.1514
-3 11 4 -3.6843 -0.1914
-3 11 5 -0.6394 0.0410
-3 11 6 0.6122 0.2079
-3 11 7 -0.1342 -0.0361
-3 11 8 3.0727 -0.0401
-3 11 9 2.9546 0.0484
-3 11 10 -2.4443 -0.0303
-3 11 11 -2.5545 -0.0248
-3 11 12 0.4485 0.0203
-3 11 13 -0.9471 -0.0223
-3 11 14 2.3977 -0.0325
-3 11 15 7.1478 0.0366
-3 11 16 0.6124 0.0282
-3 11 17 -3.9774 -0.0212
-3 11 18 0.3224 0.0033
-3 11 19 1.3897 0.0153
-3 11 20 0.0291 0.0118
-3 11 21 0.6541 0.0128
-3 11 22 0.0073 0.0002
-3 11 23 -1.2888 0.0196
-3 11 24 -0.7687 0.0363
-3 11 25 0.1473 0.0087
-3 11 26 0.6160 -0.0034
-3 11 27 1.9370 -0.0035
-3 11 28 2.2530 -0.0133
-3 11 29 -0.2923 0.0348
-3 11 30 -1.1741 0.0615
-3 12 1 0.3615 -0.2835
-3 12 2 3.4640 -0.0371
-3 12 3 -3.1948 -0.2237
-3 12 4 -5.8977 -0.1811
-3 12 5 2.6886 0.2165
-3 12 6 4.7634 0.1663
-3 12 7 -1.3598 -0.0572
-3 12 8 -2.0871 -0.0271
-3 12 9 1.9071 -0.0530
-3 12 10 2.1740 -0.0646
-3 12 11 -0.1705 0.0184
-3 12 12 -1.7450 0.0117
-3 12 13 -2.2352 -0.0167
-3 12 14 1.7848 -0.0077
-3 12 15 3.7072 -0.0191
-3 12 16 -0.8076 -0.0365
-3 12 17 -0.4438 -0.0164
-3 12 18 3.1158 -0.0046
-3 12 19 0.9311 -0.0185
-3 12 20 -2.3823 -0.0013
-3 12 21 -1.2149 0.0116
-3 12 22 1.7822 0.0043
-3 12 23 0.9859 0.0104
-3 12 24 -1.4488 0.0034
-3 12 25 0.1028 -0.0171
-3 12 26 1.3843 -0.0050
-3 12 27 -0.7311 0.0343
-3 12 28 -1.4502 0.0386
-3 12 29 -0.5131 0.0007
-3 13 1 -0.4845 -0.0889
-3 13 2 3.6518 -0.2095
-3 13 3 0.1646 -0.2325
-3 13 4 -0.0697 0.0239
-3 13 5 1.5984 0.0680
-3 13 6 -1.9959 -0.0899
-3 13 7 -1.4021 0.0096
-3 13 8 3.2827 0.0547
-3 13 9 3.6180 -0.0881
-3 13 10 1.1603 -0.0426
-3 13 11 0.9439 0.0486
-3 13 12 0.3588 0.0207
-3 13 13 -2.8743 0.0083
-3 13 14 -2.0826 -0.0201
-3 13 15 1.6155 -0.0613
-3 13 16 2.0594 -0.0380
-3 13 17 0.0894 -0.0045
-3 13 18 -1.5547 -0.0078
-3 13 19 -0.4683 -0.0031
-3 13 20 0.7982 0.0035
-3 13 21 1.0233 -0.0205
-3 13 22 2.2356 -0.0347
-3 13 23 0.5364 -0.0263
-3 13 24 -2.0284 0.0033
-3 13 25 0.4251 0.0275
-3 13 26 1.4697 0.0050
-3 13 27 -1.2808 0.0092
-3 13 28 -1.0959 0.0178
-3 14 1 0.0924 0.2213
-3 14 2 4.1953 -0.0945
-3 14 3 1.6571 0.0344
-3 14 4 -0.3660 0.1279
-3 14 5 -2.0982 -0.2195
-3 14 6 -1.6877 -0.2418
-3 14 7 2.5924 0.0857
-3 14 8 3.6679 0.0953
-3 14 9 3.9962 -0.0036
-3 14 10 3.6506 0.0328
-3 14 11 -0.5670 -0.0170
-3 14 12 -1.9340 -0.0348
-3 14 13 1.0502 0.0488
-3 14 14 1.4821 0.0292
-3 14 15 -1.3932 -0.0352
-3 14 16 -2.2222 -0.0187
-3 14 17 -1.3029 0.0177
-3 14 18 0.6842 0.0163
-3 14 19 3.2717 -0.0148
-3 14 20 0.7132 -0.0357
-3 14 21 -2.7602 -0.0048
-3 14 22 -0.3622 0.0181
-3 14 23 1.5923 -0.0119
-3 14 24 0.6897 0.0216
-3 14 25 1.0254 0.0372
-3 14 26 0.7604 -0.0729
-3 14 27 0.0883 -0.0440
-3 15 1 0.0443 0.3068
-3 15 2 1.6344 0.0581
-3 15 3 0.0716 0.1491
-3 15 4 1.7290 0.0399
-3 15 5 -0.6778 -0.2029
-3 15 6 -2.9546 -0.0617
-3 15 7 1.4737 0.0646
-3 15 8 5.0781 0.0045
-3 15 9 4.7765 0.0592
-3 15 10 -0.1248 0.0472
-3 15 11 -2.6234 -0.0695
-3 15 12 3.2351 -0.0204
-3 15 13 3.9758 0.0571
-3 15 14 -4.0917 0.0381
-3 15 15 -3.9278 0.0502
-3 15 16 3.9372 0.0295
-3 15 17 3.5707 -0.0424
-3 15 18 -1.4958 -0.0252
-3 15 19 -2.7594 0.0325
-3 15 20 -2.1333 0.0323
-3 15 21 0.6306 0.0395
-3 15 22 2.5421 0.0349
-3 15 23 0.1666 -0.0190
-3 15 24 -0.7246 0.0281
-3 15 25 1.1871 0.0623
-3 15 26 0.6923 -0.0484
-3 16 1 0.1223 -0.0139
-3 16 2 0.9321 0.0521
-3 16 3 2.2150 0.1019
-3 16 4 2.1303 -0.0268
-3 16 5 -3.4725 0.0436
-3 16 6 -1.9161 0.1697
-3 16 7 2.9619 -0.0198
-3 16 8 0.8074 -0.1331
-3 16 9 1.4864 0.0088
-3 16 10 2.6081 0.0571
-3 16 11 -0.7181 0.0093
-3 16 12 -0.1280 0.0066
-3 16 13 1.0543 0.0001
-3 16 14 -0.5227 0.0227
-3 16 15 1.7264 0.0472
-3 16 16 1.5454 -0.0104
-3 16 17 -3.6384 -0.0259
-3 16 18 -2.3114 0.0299
-3 16 19 1.7604 0.0292
-3 16 20 1.4471 0.0199
-3 16 21 0.9240 0.0743
-3 16 22 -0.3365 0.0392
-3 16 23 -1.9864 -0.0626
-3 16 24 -0.0140 0.0429
-3 16 25 1.5703 0.1613
-3 17 1 -0.0965 -0.2963
-3 17 2 0.7144 -0.0366
-3 17 3 0.5763 0.0071
-3 17 4 0.6784 0.0326
-3 17 5 -0.7530 0.1774
-3 17 6 0.2619 0.0751
-3 17 7 -0.7593 -0.1087
-3 17 8 -2.0929 -0.0480
-3 17 9 2.5782 0.0189
-3 17 10 2.0579 -0.0024
-3 17 11 -0.8474 0.0371
-3 17 12 3.6419 0.0393
-3 17 13 2.0448 -0.0456
-3 17 14 -4.4457 -0.0559
-3 17 15 -1.9607 -0.0003
-3 17 16 -0.6075 0.0124
-3 17 17 -1.3209 0.0024
-3 17 18 4.0323 0.0052
-3 17 19 2.8883 0.0190
-3 17 20 -3.8186 0.0020
-3 17 21 -2.0801 -0.0171
-3 17 22 1.7101 0.0143
-3 17 23 -0.2209 0.0595
-3 18 1 1.0916 -0.1102
-3 18 2 -0.9793 -0.0654
-3 18 3 -0.0547 -0.1360
-3 18 4 3.2311 0.0222
-3 18 5 -0.3979 0.0727
-3 18 6 -1.7358 -0.0797
-3 18 7 -0.8104 -0.0067
-3 18 8 -1.9957 0.0885
-3 18 9 0.4280 -0.0352
-3 18 10 2.7559 -0.0583
-3 18 12 2.6646 0.0085
-3 18 13 -4.3492 -0.0137
-3 18 14 -4.6269 -0.0214
-3 18 15 4.0436 -0.0781
-3 18 16 2.6963 -0.0426
-3 18 17 -1.4508 0.0472
-3 18 18 0.9265 0.0080
-3 18 19 -1.5078 -0.0530
-3 18 20 -3.9872 -0.0244
-3 18 21 0.4402 0.0372
-3 18 22 2.1896 0.0409
-3 19 1 0.9899 0.2423
-3 19 2 -0.9647 -0.0197
-3 19 3 -0.5524 -0.2138
-3 19 4 1.8392 -0.0382
-3 19 5 0.4234 0.0100
-3 19 6 0.3018 -0.0441
-3 19 7 -1.7298 0.0270
-3 19 8 -3.1567 0.0177
-3 19 9 1.1604 -0.0238
-3 19 10 1.2203 0.0301
-3 19 11 0.1458 0.0048
-3 19 12 2.4218 -0.0493
-3 19 13 -0.5572 -0.0167
-3 19 14 -0.3059 -0.0289
-3 19 15 4.5484 -0.0293
-3 19 16 0.3944 0.0616
-3 19 17 -3.5290 0.0043
-3 19 18 -0.3296 -0.1040
-3 19 19 0.7323 0.0243
-3 19 20 -0.3921 0.1020
-3 20 1 2.7169 0.2451
-3 20 2 -0.9198 0.0654
-3 20 3 -1.3261 -0.0120
-3 20 4 2.4043 -0.0514
-3 20 5 0.0385 -0.0996
-3 20 6 -0.9374 0.0108
-3 20 7 -0.4018 0.0869
-3 20 8 -0.7193 0.0063
-3 20 9 -0.7837 -0.0114
-3 20 10 -2.0482 0.0195
-3 20 11 1.8471 -0.0433
-3 20 12 5.0114 -0.0581
-3 20 13 -1.2205 0.0334
-3 20 14 -2.7807 0.0530
-3 20 15 1.0718 0.0064
-3 20 16 0.5632 0.0093
-3 20 17 1.3155 0.0188
-3 20 18 1.9838 0.0333
-3 21 1 1.1095 -0.0801
-3 21 2 -2.7255 0.0591
-3 21 3 0.7617 0.1811
-3 21 4 2.1585 -0.0415
-3 21 5 -1.5058 -0.0640
-3 21 6 -0.1064 0.1041
-3 21 7 0.0679 0.0475
-3 21 8 0.0224 -0.0547
-3 21 9 1.5118 -0.0426
-3 21 10 -0.6700 -0.0221
-3 21 11 0.8915 0.0293
-3 21 12 2.3972 0.0776
-3 21 13 -3.2417 -0.0056
-3 21 14 -3.7635 -0.0992
-3 21 15 1.3094 -0.0029
-3 21 16 2.9986 0.1389
-3 22 1 1.9493 -0.3354
-3 22 2 0.1480 -0.0206
-3 22 3 1.6713 0.2008
-3 22 4 -0.3918 0.0621
-3 22 5 -2.8807 0.0492
-3 22 6 -0.5511 -0.0325
-3 22 7 1.0763 -0.1160
-3 22 8 3.6393 0.0236
-3 22 9 2.0935 0.0488
-3 22 10 -2.7079 -0.0200
-3 22 11 0.9589 0.0403
-3 22 12 2.6641 -0.0036
-3 22 13 -2.7031 -0.1296
-3 23 1 2.3400 -0.2525
-3 23 2 -0.4659 -0.0131
-3 23 3 0.0243 0.0296
-3 23 4 -2.2099 -0.0375
-3 23 5 -0.8172 0.0437
-3 23 6 1.9577 -0.0288
-3 23 7 0.1074 -0.0238
-3 23 8 0.9981 0.0738
-2 -23 1 4.1778 0.2467
-2 -23 2 -1.0422 -0.2328
-2 -23 3 -2.8172 -0.1341
-2 -23 4 -0.4498 0.1711
-2 -23 5 -0.5250 -0.0652
-2 -23 6 0.7848 -0.1833
-2 -22 1 3.2781 0.3098
-2 -22 2 -2.5603 -0.0079
-2 -22 3 -2.4929 -0.0641
-2 -22 4 1.7886 0.0023
-2 -22 5 2.1057 -0.0544
-2 -22 6 -0.1135 -0.0759
-2 -22 7 -2.2066 -0.0480
-2 -22 8 -1.0609 0.0230
-2 -22 9 0.8569 -0.0271
-2 -22 10 -2.2007 0.0065
-2 -22 11 -4.7616 0.1283
-2 -22 12 0.6335 -0.0158
-2 -21 1 2.2706 0.0368
-2 -21 2 -0.9394 0.2843
-2 -21 3 1.0123 0.1579
-2 -21 4 3.4937 -0.1729
-2 -21 5 0.5378 -0.1028
-2 -21 6 -3.1260 0.0586
-2 -21 7 -2.0411 -0.0005
-2 -21 8 1.2493 -0.0248
-2 -21 9 2.3202 -0.0385
-2 -21 10 -0.8777 0.0378
-2 -21 11 -5.4257 0.0624
-2 -21 12 -2.5617 -0.0604
-2 -21 13 0.2691 -0.0045
-2 -21 14 -3.1955 0.0448
-2 -21 15 0.2012 -0.0412
-2 -21 16 2.9698 -0.0193
-2 -20 1 0.9612 -0.2814
-2 -20 2 1.5693 0.1929
-2 -20 3 1.5958 0.1515
-2 -20 4 1.1396 -0.1198
-2 -20 5 -1.0243 0.0131
-2 -20 6 -2.1314 0.1245
-2 -20 7 1.2675 0.0427
-2 -20 8 3.0554 -0.0581
-2 -20 9 1.3309 -0.1245
-2 -20 10 -2.3886 0.0526
-2 -20 11 -5.5760 0.1345
-2 -20 12 -0.6738 -0.0408
-2 -20 13 0.0793 -0.0670
-2 -20 14 -6.4089 -0.0042
-2 -20 15 -1.2227 0.0064
-2 -20 16 4.5211 0.0213
-2 -20 17 -0.7822 0.0014
-2 -20 18 -3.8693 0.0013
-2 -19 1 -0.0683 -0.3484
-2 -19 2 0.6891 -0.1596
-2 -19 3 -0.4323 0.0609
-2 -19 4 0.7231 0.1274
-2 -19 5 0.4070 0.0183
-2 -19 6 0.1817 -0.1110
-2 -19 7 2.3647 0.0242
-2 -19 8 -0.3549 0.0993
-2 -19 9 -2.1671 -0.0307
-2 -19 10 0.0717 -0.0035
-2 -19 11 -0.6593 0.0181
-2 -19 12 -1.2568 -0.0336
-2 -19 13 -3.9556 0.0129
-2 -19 14 -3.9476 0.0124
-2 -19 15 3.6083 -0.0116
-2 -19 16 2.5594 0.0027
-2 -19 17 -5.5036 -0.0421
-2 -19 18 -6.0217 -0.0288
-2 -19 19 0.4872 0.0228
-2 -19 20 4.6128 -0.0271
-2 -18 1 0.0520 0.0983
-2 -18 2 1.5050 -0.3214
-2 -18 3 -0.5440 -0.1696
-2 -18 4 0.1533 0.1361
-2 -18 5 0.5853 -0.0046
-2 -18 6 0.3154 -0.1860
-2 -18 7 0.2963 0.0072
-2 -18 8 -1.7379 0.1217
-2 -18 9 0.1071 -0.0019
-2 -18 10 1.6406 -0.0362
-2 -18 11 -1.7482 -0.0003
-2 -18 12 -1.9407 0.0252
-2 -18 13 -0.9259 0.0174
-2 -18 14 0.1328 -0.0383
-2 -18 15 0.4670 -0.0210
-2 -18 16 -1.6812 0.0066
-2 -18 17 -1.3353 -0.0421
-2 -18 18 -1.7958 -0.0085
-2 -18 19 -1.7097 0.0265
-2 -18 20 1.5909 -0.0269
-2 -18 21 2.0302 -0.0028
-2 -18 22 -0.2804 0.0051
-2 -17 1 1.1569 0.4178
-2 -17 2 1.3357 -0.1313
-2 -17 3 -1.2100 -0.1674
-2 -17 4 -0.9430 0.0025
-2 -17 5 0.0132 -0.0018
-2 -17 6 1.1264 -0.0592
-2 -17 7 2.0977 -0.0331
-2 -17 8 0.0909 0.0135
-2 -17 9 -0.6873 0.0252
-2 -17 10 0.0784 0.0081
-2 -17 11 0.3967 -0.0233
-2 -17 12 -1.1095 -0.0250
-2 -17 13 -3.2464 0.0024
-2 -17 14 -0.1356 0.0094
-2 -17 15 1.8138 0.0079
-2 -17 16 1.0240 -0.0009
-2 -17 17 0.6899 -0.0271
-2 -17 18 -2.3710 -0.0084
-2 -17 19 -0.8145 0.0035
-2 -17 20 3.2793 -0.0041
-2 -17 21 1.4646 0.0264
-2 -17 22 -2.7240 -0.0014
-2 -17 23 -3.8986 -0.0417
-2 -17 24 0.5632 0.0321
-2 -16 1 2.1198 0.2004
-2 -16 2 0.7526 0.2365
-2 -16 3 -2.2451 0.0574
-2 -16 4 -0.8079 -0.1035
-2 -16 5 2.3860 0.0831
-2 -16 6 2.8902 0.1319
-2 -16 7 1.1450 -0.0666
-2 -16 8 -0.2270 -0.0788
-2 -16 9 0.6616 0.0141
-2 -16 10 0.8211 0.0105
-2 -16 11 -0.5729 -0.0121
-2 -16 12 -2.6444 -0.0251
-2 -16 13 -0.7141 -0.0081
-2 -16 14 2.9899 0.0266
-2 -16 15 -0.9692 0.0362
-2 -16 16 -2.5169 0.0122
-2 -16 17 1.2746 -0.0379
-2 -16 18 1.9176 -0.0167
-2 -16 19 1.8178 0.0369
-2 -16 20 -0.2777 0.0128
-2 -16 21 -0.4688 0.0066
-2 -16 22 0.7932 0.0263
-2 -16 23 -1.7187 -0.0529
-2 -16 24 -0.4181 -0.0289
-2 -16 25 1.2387 0.1883
-2 -15 1 -0.0672 -0.2390
-2 -15 2 -1.4311 0.3968
-2 -15 3 -1.1283 0.1703
-2 -15 4 2.3294 -0.1251
-2 -15 5 3.1965 0.1463
-2 -15 6 0.3170 0.1702
-2 -15 7 -0.6980 -0.0772
-2 -15 8 0.9217 -0.0591
-2 -15 9 0.7733 0.0180
-2 -15 10 -0.8963 0.0030
-2 -15 11 0.9752 0.0023
-2 -15 12 3.3111 -0.0039
-2 -15 13 2.3841 0.0056
-2 -15 14 -3.7918 -0.0051
-2 -15 15 -7.4172 -0.0090
-2 -15 16 1.1457 0.0328
-2 -15 17 4.2069 0.0005
-2 -15 18 -1.6908 -0.0197
-2 -15 19 -1.3963 0.0531
-2 -15 20 1.3202 0.0240
-2 -15 21 3.3773 -0.0355
-2 -15 22 0.8768 0.0405
-2 -15 23 -3.8276 0.0145
-2 -15 24 -0.5200 -0.0337
-2 -15 25 1.8509 0.1010
-2 -15 26 -1.7855 0.0290
-2 -15 27 -2.5663 -0.1246
-2 -14 1 0.9156 -0.3278
-2 -14 2 1.3090 0.1858
-2 -14 3 -0.6838 -0.0063
-2 -14 4 0.8879 -0.1419
-2 -14 5 1.5717 0.0483
-2 -14 6 -1.0246 0.0723
-2 -14 7 -2.2302 0.0068
-2 -14 8 0.9563 0.0118
-2 -14 9 3.0817 -0.0073
-2 -14 10 0.6950 0.0011
-2 -14 11 -0.1503 0.0080
-2 -14 12 2.2322 -0.0048
-2 -14 13 2.2116 0.0111
-2 -14 14 -4.5004 -0.0350
-2 -14 15 -4.9734 -0.0497
-2 -14 16 2.6542 0.0359
-2 -14 17 -0.6393 0.0244
-2 -14 18 -3.4954 -0.0178
-2 -14 19 2.0799 0.0457
-2 -14 20 0.8190 0.0129
-2 -14 21 -2.2593 -0.0362
-2 -14 22 -1.6102 0.0799
-2 -14 23 -0.2664 0.0222
-2 -14 24 0.7079 -0.1173
-2 -14 25 -0.0972 0.0217
-2 -14 26 -0.5210 0.0618
-2 -14 27 -0.5200 -0.0477
-2 -14 28 -0.1986 0.0412
-2 -13 1 2.9431 -0.0957
-2 -13 2 -1.2292 -0.2494
-2 -13 3 -3.8730 -0.1387
-2 -13 4 0.9846 -0.0235
-2 -13 5 3.1419 -0.1274
-2 -13 6 -0.3303 -0.0854
-2 -13 7 -2.5353 0.0866
-2 -13 8 1.3587 0.0481
-2 -13 9 3.2424 -0.0428
-2 -13 10 -1.8639 0.0002
-2 -13 11 -3.9997 0.0042
-2 -13 12 2.3874 -0.0185
-2 -13 13 5.8268 0.0110
-2 -13 14 -2.6018 -0.0158
-2 -13 15 -4.7828 -0.0516
-2 -13 16 2.2444 0.0082
-2 -13 17 0.7865 0.0362
-2 -13 18 -1.4963 -0.0161
-2 -13 19 -0.9407 0.0002
-2 -13 20 -3.0444 0.0156
-2 -13 21 -2.6638 -0.0195
-2 -13 22 -0.1414 0.0168
-2 -13 23 1.3683 0.0055
-2 -13 24 -0.4651 -0.0291
-2 -13 25 -1.7889 0.0355
-2 -13 26 0.1665 -0.0099
-2 -13 27 0.0117 -0.0790
-2 -13 28 -1.1249 0.0341
-2 -13 29 -1.3127 0.0148
-2 -12 1 3.2577 0.1744
-2 -12 2 -1.4962 -0.3697
-2 -12 3 -4.0662 0.0155
-2 -12 4 1.0802 0.1634
-2 -12 5 4.3983 -0.1952
-2 -12 6 0.6310 -0.1761
-2 -12 7 -3.9854 0.0761
-2 -12 8 -0.1616 0.0595
-2 -12 9 3.5190 -0.0279
-2 -12 10 -1.2425 -0.0120
-2 -12 11 -4.5994 -0.0074
-2 -12 12 1.4391 -0.0138
-2 -12 13 4.8307 0.0221
-2 -12 14 -1.8310 0.0453
-2 -12 15 -1.4534 -0.0131
-2 -12 16 3.5479 -0.0379
-2 -12 17 -0.4182 0.0088
-2 -12 18 -3.4406 -0.0082
-2 -12 19 -0.5366 -0.0117
-2 -12 20 2.1343 0.0187
-2 -12 21 0.4342 -0.0121
-2 -12 22 -0.8459 -0.0070
-2 -12 23 0.6751 0.0191
-2 -12 24 -2.6348 -0.0046
-2 -12 25 -4.6055 -0.0021
-2 -12 26 -0.7330 -0.0274
-2 -12 27 2.0586 -0.0565
-2 -12 28 1.8974 0.0639
-2 -12 29 -0.7460 0.0632
-2 -12 30 -0.3243 -0.1943
-2 -11 1 4.7132 0.2159
-2 -11 2 -2.3798 -0.0778
-2 -11 3 -4.6510 0.1855
-2 -11 4 0.5602 0.1885
-2 -11 5 3.6726 -0.0229
-2 -11 6 -0.4926 -0.0692
-2 -11 7 -3.7639 -0.0453
-2 -11 8 1.0155 -0.0040
-2 -11 9 3.3978 0.0501
-2 -11 10 -0.6930 0.0376
-2 -11 11 -3.0674 0.0041
-2 -11 12 0.2476 -0.0188
-2 -11 13 2.0722 -0.0033
-2 -11 14 -0.4345 0.0672
-2 -11 15 -0.6677 0.0321
-2 -11 16 -0.8534 -0.0397
-2 -11 17 -0.6310 0.0001
-2 -11 18 1.7583 0.0108
-2 -11 19 3.2537 -0.0072
-2 -11 20 3.6678 0.0279
-2 -11 21 0.1386 0.0226
-2 -11 22 -1.9369 -0.0225
-2 -11 23 -0.3259 -0.0415
-2 -11 24 -1.2928 -0.0356
-2 -11 25 -1.6217 0.0311
-2 -11 26 -0.5585 0.0593
-2 -11 27 1.9118 -0.0174
-2 -11 28 2.0803 0.0194
-2 -11 29 -2.8677 0.0468
-2 -11 30 -1.0162 -0.1578
-2 -10 1 1.4350 0.0219
-2 -10 2 -1.3525 0.2912
-2 -10 3 -2.8982 0.0662
-2 -10 4 -2.6119 -0.0617
-2 -10 5 1.2388 0.1686
-2 -10 6 1.6556 0.1312
-2 -10 7 -1.2757 -0.0961
-2 -10 8 -1.2470 -0.0673
-2 -10 9 0.1372 0.0543
-2 -10 10 0.7779 0.0510
-2 -10 11 0.2323 0.0336
-2 -10 12 -0.0027 -0.0165
-2 -10 13 -0.7079 -0.0650
-2 -10 14 -1.5206 0.0247
-2 -10 15 -1.5852 0.0750
-2 -10 16 -0.4750 0.0018
-2 -10 17 2.8826 -0.0178
-2 -10 18 1.1687 0.0234
-2 -10 19 -1.5160 0.0237
-2 -10 20 2.3103 -0.0021
-2 -10 21 3.6924 -0.0199
-2 -10 22 1.3379 -0.0118
-2 -10 23 -1.2044 0.0016
-2 -10 24 -1.1379 -0.0304
-2 -10 25 0.7297 0.0159
-2 -10 26 -0.3491 0.0872
-2 -10 27 1.4259 -0.0219
-2 -10 28 1.0597 -0.0400
-2 -10 29 -3.9428 0.1090
-2 -10 30 -0.0835 -0.0117
-2 -10 31 4.8777 -0.2280
-2 -9 1 -1.4321 -0.1745
-2 -9 2 1.7886 0.2218
-2 -9 3 0.4430 -0.2106
-2 -9 4 -1.5382 -0.2015
-2 -9 5 1.4821 0.1900
-2 -9 6 0.0186 0.1333
-2 -9 7 -4.0196 -0.0734
-2 -9 8 -2.9894 -0.0474
-2 -9 9 0.6872 -0.0033
-2 -9 10 1.8959 -0.0378
-2 -9 11 0.4963 0.0144
-2 -9 12 -1.1138 0.0302
-2 -9 13 -1.5685 -0.0737
-2 -9 14 1.0737 -0.0613
-2 -9 15 0.3805 0.0592
-2 -9 16 -3.2070 0.0462
-2 -9 17 -1.7235 -0.0354
-2 -9 18 -0.1046 -0.0074
-2 -9 19 1.1557 0.0148
-2 -9 20 2.7785 -0.0285
-2 -9 21 1.6500 -0.0396
-2 -9 22 -0.6328 0.0141
-2 -9 23 -2.1697 0.0545
-2 -9 24 1.6601 -0.0281
-2 -9 25 2.1180 -0.0590
-2 -9 26 -3.4725 0.0571
-2 -9 27 0.1425 0.0600
-2 -9 28 2.9333 -0.0178
-2 -9 29 -1.6441 0.0214
-2 -9 30 0.4939 -0.0035
-2 -9 31 3.8493 -0.1305
-2 -9 32 1.0914 -0.0378
-2 -8 1 -5.3586 -0.0854
-2 -8 2 8.3830 -0.1115
-2 -8 3 7.7347 -0.2785
-2 -8 4 -3.9060 -0.0491
-2 -8 5 -4.2221 0.0597
-2 -8 6 2.0512 -0.0429
-2 -8 7 1.7694 -0.0220
-2 -8 8 -3.4090 0.0441
-2 -8 9 -3.8408 -0.0340
-2 -8 10 -0.5475 -0.1443
-2 -8 11 1.4736 -0.0498
-2 -8 12 0.6161 0.0851
-2 -8 13 -0.1315 0.0155
-2 -8 14 0.9817 -0.0969
-2 -8 15 -2.4963 -0.0376
-2 -8 16 -3.9268 0.0323
-2 -8 17 1.0593 -0.0061
-2 -8 18 1.7836 -0.0277
-2 -8 19 -1.1349 -0.0201
-2 -8 20 -1.5335 -0.0069
-2 -8 21 1.7217 -0.0261
-2 -8 22 1.0008 -0.0378
-2 -8 23 -3.4588 0.0325
-2 -8 24 -0.6804 0.0316
-2 -8 25 -0.6505 -0.0399
-2 -8 26 -3.1941 0.0050
-2 -8 27 3.1125 0.0492
-2 -8 28 3.5311 -0.0430
-2 -8 29 -1.8169 -0.0213
-2 -8 30 0.4267 0.0926
-2 -8 31 2.5738 -0.0552
-2 -8 32 -0.0142 -0.1751
-2 -7 1 -7.3524 0.1814
-2 -7 2 10.2343 -0.1936
-2 -7 3 6.2457 -0.0322
-2 -7 4 -4.0962 0.1276
-2 -7 5 2.4430 -0.0533
-2 -7 6 8.9707 -0.0564
-2 -7 7 -0.3366 0.0280
-2 -7 8 -8.6441 0.0189
-2 -7 9 -2.4642 -0.0008
-2 -7 10 3.8858 -0.0371
-2 -7 11 1.3387 -0.0574
-2 -7 12 -4.1055 0.0205
-2 -7 13 -2.7048 0.0884
-2 -7 14 2.2630 -0.0222
-2 -7 15 0.6954 -0.0965
-2 -7 16 -0.8721 -0.0064
-2 -7 17 -0.1587 0.0470
-2 -7 18 -0.2346 -0.0083
-2 -7 19 -0.1190 -0.0425
-2 -7 20 -0.6317 0.0161
-2 -7 21 0.5717 0.0144
-2 -7 22 -1.1811 -0.0569
-2 -7 23 -2.6561 -0.0144
-2 -7 24 1.5239 0.0716
-2 -7 25 -1.4207 -0.0009
-2 -7 26 -4.5951 -0.0796
-2 -7 27 0.9849 0.0239
-2 -7 28 1.8976 0.0521
-2 -7 29 0.5255 -0.0210
-2 -7 30 2.5570 0.0023
-2 -7 31 2.0919 -0.0525
-2 -7 32 -0.4236 -0.1192
-2 -7 33 -0.8114 0.0311
-2 -6 1 -14.4446 0.0784
-2 -6 2 3.7503 0.0266
-2 -6 3 8.7670 0.3581
-2 -6 4 3.1694 0.1139
-2 -6 5 1.3356 -0.1588
-2 -6 6 3.0039 0.0509
-2 -6 7 2.9535 0.1083
-2 -6 8 2.7400 -0.0183
-2 -6 9 1.5896 0.0205
-2 -6 10 -1.7001 0.1312
-2 -6 11 -4.2000 0.0143
-2 -6 12 -4.8753 -0.0950
-2 -6 13 0.4696 0.0534
-2 -6 14 3.6482 0.0973
-2 -6 15 -0.6210 -0.0246
-2 -6 16 -1.3956 -0.0473
-2 -6 17 0.5854 0.0272
-2 -6 18 1.5391 0.0476
-2 -6 19 -0.5858 0.0037
-2 -6 20 -2.5877 0.0034
-2 -6 21 1.8334 0.0398
-2 -6 22 2.4436 0.0077
-2 -6 23 -0.4226 -0.0492
-2 -6 24 -0.3570 0.0155
-2 -6 25 -2.7797 0.0366
-2 -6 26 -1.9064 -0.0319
-2 -6 27 1.0533 0.0294
-2 -6 28 -1.2206 0.0334
-2 -6 29 -0.3155 -0.0577
-2 -6 30 4.5354 0.0017
-2 -6 31 4.8693 0.0186
-2 -6 32 -0.2775 -0.1091
-2 -6 33 -3.2450 -0.0915
-2 -5 1 -3.8388 -0.2923
-2 -5 2 -0.9323 0.1481
-2 -5 3 -7.1101 0.4258
-2 -5 4 -4.7834 -0.0460
-2 -5 5 2.9940 -0.2128
-2 -5 6 7.3277 0.0556
-2 -5 7 8.9158 0.1419
-2 -5 8 6.6163 0.0064
-2 -5 9 -1.2221 -0.0558
-2 -5 10 -3.1413 0.1114
-2 -5 11 -0.2311 0.0969
-2 -5 12 -1.7691 -0.0623
-2 -5 13 -1.2383 -0.0095
-2 -5 14 -1.3594 0.0679
-2 -5 15 -1.9338 0.0246
-2 -5 16 0.9195 -0.0277
-2 -5 17 1.1446 -0.0012
-2 -5 18 1.0222 0.0566
-2 -5 19 -0.5678 0.0371
-2 -5 20 -1.8999 -0.0316
-2 -5 21 1.7860 0.0189
-2 -5 22 2.4715 0.0780
-2 -5 23 1.5014 -0.0245
-2 -5 24 1.5953 -0.0308
-2 -5 25 -0.3622 0.0549
-2 -5 26 -0.5157 0.0170
-2 -5 27 -0.9331 -0.0174
-2 -5 28 -1.6288 0.0010
-2 -5 29 1.9076 0.0073
-2 -5 30 4.3556 0.0050
-2 -5 31 1.4556 -0.0212
-2 -5 32 -2.7478 -0.0676
-2 -5 33 -1.0362 -0.0748
-2 -4 1 7.6233 -0.2762
-2 -4 2 -20.8177 0.0011
-2 -4 3 -24.7008 -0.0420
-2 -4 4 2.1662 -0.1601
-2 -4 5 7.4969 -0.0476
-2 -4 6 -7.6831 -0.1055
-2 -4 7 -1.3969 -0.0541
-2 -4 8 14.5318 0.0538
-2 -4 9 8.8709 -0.0453
-2 -4 10 0.3908 -0.0157
-2 -4 11 -0.2841 0.0713
-2 -4 12 -2.5768 0.0249
-2 -4 13 -2.9330 -0.0764
-2 -4 14 -2.5356 -0.0632
-2 -4 15 -0.6664 0.0533
-2 -4 16 0.2210 0.0436
-2 -4 17 -0.5543 -0.0571
-2 -4 18 2.1053 -0.0400
-2 -4 19 -0.2397 0.0389
-2 -4 20 -3.6767 -0.0073
-2 -4 21 1.0573 -0.0173
-2 -4 22 4.0476 0.0607
-2 -4 23 1.9877 0.0091
-2 -4 24 0.7222 -0.0470
-2 -4 25 1.5861 0.0038
-2 -4 26 2.3274 0.0237
-2 -4 27 1.5222 -0.0072
-2 -4 28 1.3443 -0.0012
-2 -4 29 -0.5273 0.0098
-2 -4 30 -3.5566 -0.0151
-2 -4 31 -1.1890 0.0103
-2 -4 32 2.9737 0.0052
-2 -4 33 3.0289 -0.0957
-2 -3 1 26.3285 0.2840
-2 -3 2 -10.9803 -0.2260
-2 -3 3 -23.2508 -0.6706
-2 -3 4 -6.8366 -0.1263
-2 -3 5 -13.2985 0.3113
-2 -3 6 -23.3021 -0.1263
-2 -3 7 3.6629 -0.2412
-2 -3 8 24.9101 0.0262
-2 -3 9 8.1403 0.0280
-2 -3 10 -3.0913 -0.0790
-2 -3 11 1.7055 -0.0557
-2 -3 12 1.4208 0.0231
-2 -3 13 -1.8729 -0.0275
-2 -3 14 -1.9518 -0.0627
-2 -3 15 0.8439 -0.0089
-2 -3 16 -0.5833 0.0128
-2 -3 17 -1.7562 -0.0241
-2 -3 18 1.2907 -0.0505
-2 -3 19 -0.9452 -0.0013
-2 -3 20 -2.5029 -0.0061
-2 -3 21 1.9977 -0.0459
-2 -3 22 2.3656 -0.0069
-2 -3 23 -1.1684 0.0106
-2 -3 24 0.4332 -0.0349
-2 -3 25 5.5551 -0.0245
-2 -3 26 5.3340 0.0228
-2 -3 27 0.6399 -0.0151
-2 -3 28 -1.3200 -0.0255
-2 -3 29 -1.0571 0.0149
-2 -3 30 -0.0977 -0.0047
-2 -3 31 0.6280 0.0076
-2 -3 32 -1.9287 0.0260
-2 -3 33 -3.0837 -0.0579
-2 -3 34 0.2575 -0.1178
-2 -2 1 54.4450 0.4136
-2 -2 2 -2.4797 -0.1350
-2 -2 3 -25.9337 -0.4528
-2 -2 4 -11.0058 0.0963
-2 -2 5 -17.4180 0.3345
-2 -2 6 -26.2596 -0.0323
-2 -2 7 0.9652 -0.1223
-2 -2 8 16.9981 -0.0133
-2 -2 9 0.8470 0.0329
-2 -2 10 -1.6888 -0.0464
-2 -2 11 7.7923 -0.0858
-2 -2 12 5.5125 0.0177
-2 -2 13 -1.3689 0.0497
-2 -2 14 -0.4703 0.0002
-2 -2 15 3.0766 -0.0533
-2 -2 16 -1.5469 0.0010
-2 -2 17 -3.8233 0.0555
-2 -2 18 1.7159 -0.0300
-2 -2 19 2.3787 -0.0545
-2 -2 20 -1.3171 0.0013
-2 -2 21 -0.9254 -0.0146
-2 -2 22 0.7365 -0.0366
-2 -2 23 0.0098 0.0085
-2 -2 24 1.7362 0.0018
-2 -2 25 4.4784 -0.0283
-2 -2 26 1.0478 -0.0130
-2 -2 27 -1.6913 -0.0224
-2 -2 28 3.7768 0.0031
-2 -2 29 5.9276 0.0140
-2 -2 30 -1.7634 -0.0528
-2 -2 31 -7.6787 -0.0197
-2 -2 32 -5.0921 0.0913
-2 -2 33 1.1023 0.0329
-2 -2 34 3.4845 -0.1193
-2 -1 1 52.2617 0.0729
-2 -1 2 10.1611 0.2104
-2 -1 3 2.6158 0.2466
-2 -1 4 4.7657 0.1599
-2 -1 5 -24.1303 -0.0533
-2 -1 6 -34.5440 0.0547
-2 -1 7 -1.4282 0.1714
-2 -1 8 9.3151 0.0016
-2 -1 9 -6.6918 -0.0030
-2 -1 10 -0.4053 0.0300
-2 -1 11 12.7879 0.0099
-2 -1 12 6.7832 0.0213
-2 -1 13 -4.1546 0.0369
-2 -1 14 -1.5332 0.0512
-2 -1 15 5.2545 -0.0142
-2 -1 16 1.7276 -0.0145
-2 -1 17 -2.2299 0.0572
-2 -1 18 0.3385 0.0296
-2 -1 19 0.8624 -0.0188
-2 -1 20 -1.1012 0.0188
-2 -1 21 1.4883 0.0227
-2 -1 22 3.3965 -0.0244
-2 -1 23 -1.0201 0.0110
-2 -1 24 -2.8445 0.0286
-2 -1 25 1.0620 -0.0071
-2 -1 26 3.7402 -0.0154
-2 -1 27 3.8615 -0.0142
-2 -1 28 1.5704 0.0092
-2 -1 29 -3.4512 0.0165
-2 -1 30 -3.1585 -0.0263
-2 -1 31 2.4107 -0.0178
-2 -1 32 0.7999 0.0703
-2 -1 33 -4.1059 0.0566
-2 -1 34 -2.2212 -0.0463
-2 0 1 51.6012 -0.3530
-2 0 2 34.1583 0.1203
-2 0 3 26.9863 0.4350
-2 0 4 9.0818 0.0637
-2 0 5 -24.4050 -0.2651
-2 0 6 -24.2458 0.1080
-2 0 7 1.3129 0.2192
-2 0 8 -1.2400 -0.0214
-2 0 9 -9.8508 0.0263
-2 0 10 1.6574 0.0742
-2 0 11 7.4287 0.0261
-2 0 12 0.4527 -0.0213
-2 0 13 -3.3011 -0.0105
-2 0 14 2.6611 0.0579
-2 0 15 6.9423 0.0304
-2 0 16 0.5570 -0.0301
-2 0 17 -5.1606 0.0116
-2 0 18 -0.6469 0.0738
-2 0 19 3.9010 0.0313
-2 0 20 1.1880 0.0054
-2 0 21 -0.8029 0.0160
-2 0 22 -0.5223 -0.0027
-2 0 23 0.2279 0.0172
-2 0 24 2.8416 0.0305
-2 0 25 2.3746 0.0186
-2 0 26 -1.8700 0.0151
-2 0 27 -2.7509 0.0073
-2 0 28 -0.0203 0.0009
-2 0 29 1.5292 0.0195
-2 0 30 2.6449 0.0298
-2 0 31 1.0314 0.0022
-2 0 32 -4.2424 -0.0104
-2 0 33 -3.5946 0.0097
-2 0 34 1.3548 0.0758
-2 1 1 31.4138 -0.5501
-2 1 2 33.3861 -0.1546
-2 1 3 39.7952 0.1876
-2 1 4 19.5506 -0.0207
-2 1 5 -12.6650 -0.1419
-2 1 6 -9.0717 0.0945
-2 1 7 5.3843 0.0044
-2 1 8 -5.2021 -0.0817
-2 1 9 -11.7272 0.0276
-2 1 10 -4.5234 -0.0046
-2 1 11 0.9344 -0.0159
-2 1 12 3.4789 -0.0068
-2 1 13 1.8919 -0.0367
-2 1 14 -0.3587 -0.0084
-2 1 15 -0.1841 0.0378
-2 1 16 -1.4333 -0.0167
-2 1 17 -1.3689 -0.0467
-2 1 18 2.4651 0.0206
-2 1 19 1.3780 0.0116
-2 1 20 -2.7292 -0.0109
-2 1 21 -0.9176 0.0108
-2 1 22 1.9773 0.0118
-2 1 23 3.0044 0.0049
-2 1 24 1.2241 0.0101
-2 1 25 -3.8777 0.0193
-2 1 26 -3.0841 0.0163
-2 1 27 3.3620 0.0192
-2 1 28 2.5087 0.0021
-2 1 29 -3.6787 0.0022
-2 1 30 -2.5731 0.0459
-2 1 31 1.1494 0.0207
-2 1 32 0.7900 -0.0800
-2 1 33 1.0570 -0.0131
-2 1 34 0.1077 0.2149
-2 2 1 5.5899 -0.0625
-2 2 2 32.4477 -0.1161
-2 2 3 43.2786 -0.1286
-2 2 4 19.4897 -0.0978
-2 2 5 1.2999 0.0365
-2 2 6 9.6378 0.0648
-2 2 7 4.2102 -0.1142
-2 2 8 -11.8461 -0.1006
-2 2 9 -5.9523 -0.0631
-2 2 10 2.2747 -0.0615
-2 2 11 0.2105 0.0368
-2 2 12 -0.6926 0.0373
-2 2 13 -2.1335 -0.0638
-2 2 14 -3.3330 -0.0803
-2 2 15 -0.2647 0.0081
-2 2 16 1.2338 -0.0055
-2 2 17 -0.1513 -0.0683
-2 2 18 -0.1205 -0.0399
-2 2 19 -0.5149 -0.0048
-2 2 20 0.0633 -0.0031
-2 2 21 0.3194 -0.0090
-2 2 22 -1.3683 0.0042
-2 2 23 1.2397 -0.0069
-2 2 24 2.5635 -0.0196
-2 2 25 -1.4173 -0.0101
-2 2 26 -1.8562 0.0051
-2 2 27 -0.1650 0.0342
-2 2 28 -1.8512 -0.0064
-2 2 29 -1.2977 -0.0582
-2 2 30 1.6817 0.0125
-2 2 31 -0.5003 0.0594
-2 2 32 -1.4563 -0.0568
-2 2 33 1.9638 -0.0101
-2 2 34 0.2948 0.1865
-2 3 1 -2.7088 0.4379
-2 3 2 19.8255 -0.0415
-2 3 3 25.3106 -0.1339
-2 3 4 17.1988 0.0575
-2 3 5 16.6063 0.0767
-2 3 6 12.0403 -0.1078
-2 3 7 -4.8687 -0.0935
-2 3 8 -1.5617 0.0816
-2 3 9 13.0510 0.0149
-2 3 10 2.3027 -0.0553
-2 3 11 -11.1358 -0.0169
-2 3 12 -3.5431 0.0126
-2 3 13 3.5474 -0.0027
-2 3 14 -0.4913 -0.0590
-2 3 15 -2.5164 -0.0318
-2 3 16 -1.2159 0.0221
-2 3 17 -0.9660 -0.0016
-2 3 18 0.2559 -0.0458
-2 3 19 1.6232 -0.0162
-2 3 20 1.6987 0.0010
-2 3 21 -0.8296 -0.0220
-2 3 22 -0.7047 -0.0041
-2 3 23 3.3303 -0.0080
-2 3 24 0.7048 -0.0033
-2 3 25 -3.4407 -0.0028
-2 3 26 0.1775 -0.0305
-2 3 27 2.0116 -0.0013
-2 3 28 -2.5810 0.0223
-2 3 29 -2.9157 -0.0187
-2 3 30 1.7408 -0.0197
-2 3 31 1.7842 -0.0125
-2 3 32 -0.6567 -0.0869
-2 3 33 -1.6077 0.0235
-2 4 1 0.2529 0.5408
-2 4 2 10.4822 0.1449
-2 4 3 1.4936 0.0513
-2 4 4 3.6019 0.1213
-2 4 5 20.1422 0.0244
-2 4 6 14.1986 -0.1439
-2 4 7 -4.5587 -0.0062
-2 4 8 3.4846 0.1587
-2 4 9 14.3200 0.0817
-2 4 10 0.1424 -0.0019
-2 4 11 -8.6348 -0.0756
-2 4 12 2.3822 -0.0341
-2 4 13 5.8345 0.0774
-2 4 14 -4.1890 0.0418
-2 4 15 -5.9903 -0.0284
-2 4 16 -0.1342 0.0204
-2 4 17 0.9973 0.0508
-2 4 18 -0.0129 -0.0097
-2 4 19 1.1575 -0.0021
-2 4 20 1.7516 0.0027
-2 4 21 0.0209 -0.0163
-2 4 22 1.1597 0.0081
-2 4 23 2.5761 0.0047
-2 4 24 -0.2828 0.0138
-2 4 25 -0.2079 0.0212
-2 4 26 1.9074 -0.0033
-2 4 27 -0.6498 -0.0022
-2 4 28 -3.0070 0.0215
-2 4 29 0.1953 -0.0018
-2 4 30 2.7243 -0.0311
-2 4 31 0.2245 -0.0466
-2 4 32 -1.7373 -0.0675
-2 4 33 -1.5998 0.0587
-2 5 1 9.5667 0.2034
-2 5 2 -0.5879 0.3306
-2 5 3 -19.7108 0.1847
-2 5 4 -0.8614 -0.0308
-2 5 5 24.8985 -0.0216
-2 5 6 6.2074 0.0078
-2 5 7 -17.0695 0.0086
-2 5 8 0.5759 -0.0203
-2 5 9 18.4865 0.0360
-2 5 10 4.9014 0.0975
-2 5 11 -7.7367 -0.0214
-2 5 12 0.8742 -0.0719
-2 5 13 5.5628 0.0409
-2 5 14 -2.9673 0.0891
-2 5 15 -4.3907 0.0058
-2 5 16 0.4504 0.0025
-2 5 17 0.0650 0.0475
-2 5 18 -1.3671 0.0149
-2 5 19 0.2567 0.0075
-2 5 20 0.9457 0.0035
-2 5 21 0.0662 0.0133
-2 5 22 1.4837 0.0303
-2 5 23 1.9821 0.0078
-2 5 24 0.3098 0.0117
-2 5 25 0.9718 0.0374
-2 5 26 2.4066 0.0204
-2 5 27 0.9246 -0.0193
-2 5 28 -2.7896 0.0117
-2 5 29 -3.0964 0.0295
-2 5 30 1.9072 0.0008
-2 5 31 4.9666 -0.0062
-2 5 32 1.0209 -0.0009
-2 5 33 -4.4109 0.0212
-2 6 1 14.5468 -0.3858
-2 6 2 1.6047 0.1855
-2 6 3 -16.6380 0.1169
-2 6 4 -2.5438 -0.1603
-2 6 5 10.1292 -0.0085
-2 6 6 -7.5732 0.1426
-2 6 7 -15.4299 0.0346
-2 6 8 3.9123 -0.1338
-2 6 9 12.3235 -0.0899
-2 6 10 -1.5270 0.0531
-2 6 11 -7.6255 0.0710
-2 6 12 3.6595 -0.0380
-2 6 13 6.7761 -0.0657
-2 6 14 -2.3024 0.0397
-2 6 15 -3.5056 0.0363
-2 6 16 0.8819 -0.0105
-2 6 17 0.5459 -0.0049
-2 6 18 -1.5008 0.0045
-2 6 19 -1.1974 0.0179
-2 6 20 -0.3088 0.0085
-2 6 21 -0.2178 0.0119
-2 6 22 0.4175 0.0229
-2 6 23 0.7892 0.0190
-2 6 24 1.1042 -0.0080
-2 6 25 2.3632 -0.0097
-2 6 26 1.7900 0.0130
-2 6 27 -2.5422 0.0019
-2 6 28 -4.1396 0.0153
-2 6 29 2.4531 0.0200
-2 6 30 6.3446 0.0203
-2 6 31 0.0513 0.0459
-2 6 32 -4.5281 0.0405
-2 7 1 20.3755 -0.6620
-2 7 2 3.1949 -0.2864
-2 7 3 -13.6558 -0.1181
-2 7 4 -2.8142 -0.0022
-2 7 5 5.4303 0.0856
-2 7 6 -7.5173 0.0467
-2 7 7 -13.3963 0.0290
-2 7 8 -2.4628 -0.0082
-2 7 9 4.1537 -0.1059
-2 7 10 -1.2981 -0.1030
-2 7 11 -4.4578 0.0559
-2 7 12 1.3017 0.0522
-2 7 13 3.4210 -0.0535
-2 7 14 0.0328 -0.0294
-2 7 15 -0.7293 -0.0127
-2 7 16 0.3457 -0.0226
-2 7 17 1.1276 -0.0226
-2 7 18 0.3790 -0.0101
-2 7 19 -0.7342 0.0019
-2 7 20 -0.2914 -0.0009
-2 7 21 -0.6107 -0.0034
-2 7 22 -0.8563 -0.0051
-2 7 23 0.7151 0.0010
-2 7 24 0.8940 -0.0246
-2 7 25 0.2641 -0.0141
-2 7 26 1.3449 0.0127
-2 7 27 0.1195 -0.0116
-2 7 28 -2.0800 -0.0027
-2 7 29 0.2122 0.0042
-2 7 30 2.1651 -0.0179
-2 7 31 0.5373 0.0088
-2 7 32 -0.0528 0.0837
-2 8 1 12.6793 -0.2234
-2 8 2 0.7514 -0.4970
-2 8 3 -4.1871 -0.2952
-2 8 4 4.8438 0.1502
-2 8 5 4.7120 0.0875
-2 8 6 -7.7933 -0.1272
-2 8 7 -11.0494 -0.0341
-2 8 8 -2.4994 0.1129
-2 8 9 2.3546 0.0285
-2 8 10 -2.0865 -0.0897
-2 8 11 -4.9017 0.0004
-2 8 12 -0.1309 0.0590
-2 8 13 3.1589 0.0043
-2 8 14 1.3063 -0.0456
-2 8 15 -0.9949 -0.0429
-2 8 16 0.2456 -0.0036
-2 8 17 3.0753 -0.0126
-2 8 18 1.2687 -0.0273
-2 8 19 -0.7607 -0.0194
-2 8 20 1.1086 -0.0065
-2 8 21 0.3920 -0.0217
-2 8 22 -0.8557 -0.0294
-2 8 23 1.0118 0.0084
-2 8 24 0.6869 0.0031
-2 8 25 0.6046 -0.0138
-2 8 26 2.6947 -0.0243
-2 8 27 -0.0066 -0.0289
-2 8 28 -3.3321 0.0000
-2 8 29 -0.0425 -0.0046
-2 8 30 3.4348 -0.0470
-2 8 31 1.2047 -0.0243
-2 9 1 4.3212 0.5304
-2 9 2 3.0258 -0.0447
-2 9 3 4.1036 -0.2027
-2 9 4 5.3046 -0.0680
-2 9 5 1.1187 -0.1092
-2 9 6 -3.9864 -0.0671
-2 9 7 -4.2324 -0.0050
-2 9 8 -1.9739 0.0529
-2 9 9 -0.6282 0.1154
-2 9 10 -0.6693 0.0540
-2 9 11 -0.4639 -0.0388
-2 9 12 -0.4179 -0.0178
-2 9 13 -0.3767 0.0502
-2 9 14 1.7637 0.0101
-2 9 15 1.9203 -0.0148
-2 9 16 0.1005 0.0175
-2 9 17 0.8107 -0.0039
-2 9 18 0.4623 -0.0287
-2 9 19 -0.0178 -0.0234
-2 9 20 1.8787 0.0059
-2 9 21 1.5305 0.0077
-2 9 22 1.0564 -0.0101
-2 9 23 1.7834 -0.0190
-2 9 24 -0.0294 -0.0205
-2 9 25 -0.6609 0.0195
-2 9 26 1.5707 0.0161
-2 9 27 3.0549 -0.0327
-2 9 28 1.6659 -0.0247
-2 9 29 -2.4960 0.0117
-2 9 30 -2.3960 -0.0104
-2 9 31 2.3458 -0.0315
-2 10 1 0.7782 0.6156
-2 10 2 2.6059 0.3956
-2 10 3 2.4727 0.1407
-2 10 4 0.6698 -0.2310
-2 10 5 0.3083 -0.2266
-2 10 6 0.1215 0.1204
-2 10 7 -1.0907 0.0834
-2 10 8 -0.6850 -0.0731
-2 10 9 0.7542 0.0206
-2 10 10 0.1271 0.0828
-2 10 11 -1.0439 -0.0113
-2 10 12 -1.1414 -0.0216
-2 10 13 0.9137 0.0511
-2 10 14 4.2747 0.0331
-2 10 15 1.9332 0.0217
-2 10 16 -2.2902 0.0259
-2 10 17 -0.6984 0.0055
-2 10 18 0.2284 0.0063
-2 10 19 0.2223 0.0039
-2 10 20 2.6234 -0.0004
-2 10 21 2.3794 -0.0017
-2 10 22 0.5029 0.0146
-2 10 23 -0.7882 0.0195
-2 10 24 -1.2561 0.0094
-2 10 25 0.7611 0.0039
-2 10 26 2.6720 -0.0269
-2 10 27 3.4635 -0.0012
-2 10 28 1.0045 0.0783
-2 10 29 -3.9191 0.0496
-2 10 30 -0.9372 -0.0690
-2 11 1 -3.4185 -0.1164
-2 11 2 -0.6148 0.2446
-2 11 3 0.9629 0.3962
-2 11 4 -0.3604 0.0328
-2 11 5 -0.3481 -0.0271
-2 11 6 0.7106 0.1118
-2 11 7 1.4706 0.0044
-2 11 8 1.0251 -0.0893
-2 11 9 -1.5497 -0.0465
-2 11 10 -2.0974 0.0140
-2 11 11 1.4751 0.0103
-2 11 12 1.4412 -0.0015
-2 11 13 -1.0862 0.0186
-2 11 14 1.7630 0.0265
-2 11 15 2.5840 0.0229
-2 11 16 -0.6171 0.0016
-2 11 17 -0.6805 0.0097
-2 11 18 -0.0807 0.0288
-2 11 19 0.6646 0.0093
-2 11 20 0.8376 -0.0063
-2 11 21 -0.2466 0.0125
-2 11 22 1.0440 0.0421
-2 11 23 0.5273 0.0098
-2 11 24 -1.4471 -0.0192
-2 11 25 -0.5066 0.0162
-2 11 26 0.2833 0.0271
-2 11 27 2.2457 0.0340
-2 11 28 2.3092 0.0519
-2 11 29 -2.8666 -0.0062
-2 11 30 -2.5322 -0.0615
-2 12 1 -2.2124 -0.6493
-2 12 2 2.5340 -0.1318
-2 12 3 0.6639 0.2611
-2 12 4 -1.9722 0.2988
-2 12 5 0.4856 0.1792
-2 12 6 1.4440 -0.1007
-2 12 7 -0.3356 -0.1164
-2 12 8 -0.5086 0.0537
-2 12 9 0.4515 -0.0016
-2 12 10 1.2301 -0.0558
-2 12 11 1.1393 -0.0096
-2 12 12 -2.2233 -0.0168
-2 12 13 -2.3940 -0.0228
-2 12 14 3.1996 0.0055
-2 12 15 2.6380 -0.0083
-2 12 16 -1.2584 -0.0294
-2 12 17 -0.8040 0.0010
-2 12 18 -0.1655 0.0132
-2 12 19 0.3875 0.0134
-2 12 20 -0.3351 0.0132
-2 12 21 0.2271 -0.0085
-2 12 22 3.4733 -0.0120
-2 12 23 0.2307 -0.0147
-2 12 24 -3.4297 0.0138
-2 12 25 -0.0527 0.0488
-2 12 26 1.0616 -0.0057
-2 12 27 -0.2066 -0.0239
-2 12 28 -0.9337 0.0526
-2 12 29 -2.5486 0.0421
-2 13 1 1.2708 -0.2556
-2 13 2 4.2876 -0.2228
-2 13 3 1.1531 -0.2279
-2 13 4 -1.8039 0.0864
-2 13 5 -2.3471 0.1551
-2 13 6 -0.6243 -0.1306
-2 13 7 3.3837 -0.0484
-2 13 8 3.8109 0.1026
-2 13 9 -0.0530 -0.0388
-2 13 10 -0.8370 -0.0427
-2 13 11 1.2664 0.0460
-2 13 12 -0.8385 -0.0340
-2 13 13 -1.8713 -0.0868
-2 13 14 1.0413 -0.0316
-2 13 15 0.3621 -0.0148
-2 13 16 -0.4840 -0.0077
-2 13 17 -0.6054 0.0027
-2 13 18 -1.0779 -0.0284
-2 13 19 1.5063 -0.0150
-2 13 20 0.7730 -0.0041
-2 13 21 -0.5351 -0.0304
-2 13 22 2.1901 -0.0046
-2 13 23 0.4335 -0.0005
-2 13 24 -1.2666 -0.0202
-2 13 25 1.3244 -0.0081
-2 13 26 -0.0940 -0.0197
-2 13 27 -1.9958 0.0050
-2 13 28 -0.5924 0.0608
-2 14 1 0.6374 0.3780
-2 14 2 3.9644 -0.0986
-2 14 3 1.6762 -0.4675
-2 14 4 -2.0419 -0.1968
-2 14 5 -2.7413 0.0139
-2 14 6 2.1095 0.0003
-2 14 7 5.8287 0.0616
-2 14 8 2.4976 0.0135
-2 14 9 -0.9395 -0.0668
-2 14 10 0.1815 0.0200
-2 14 11 0.9203 0.0432
-2 14 12 -1.0099 -0.0342
-2 14 13 -0.1137 -0.0250
-2 14 14 0.4442 -0.0022
-2 14 15 -1.9923 -0.0183
-2 14 16 -0.2510 0.0145
-2 14 17 1.0733 -0.0051
-2 14 18 0.1468 -0.0765
-2 14 19 0.9522 -0.0274
-2 14 20 -1.6955 0.0254
-2 14 21 -2.3764 0.0114
-2 14 22 2.4870 0.0184
-2 14 23 2.3465 -0.0295
-2 14 24 -0.5395 -0.0633
-2 14 25 0.4973 -0.0091
-2 14 26 1.2057 0.0099
-2 14 27 -0.0920 0.0071
-2 15 1 1.0230 0.4235
-2 15 2 1.1911 0.0798
-2 15 3 1.0278 -0.1452
-2 15 4 1.2992 -0.1561
-2 15 5 -1.3420 -0.0678
-2 15 6 0.1295 0.0777
-2 15 7 4.3895 0.0561
-2 15 8 3.2954 -0.0616
-2 15 9 -0.5703 -0.0212
-2 15 10 -1.2804 0.0343
-2 15 11 0.7458 0.0075
-2 15 12 1.4107 0.0417
-2 15 13 0.0738 0.0729
-2 15 14 -2.6940 0.0088
-2 15 15 -1.4983 -0.0212
-2 15 16 3.6747 0.0105
-2 15 17 1.1090 -0.0138
-2 15 18 -4.2357 -0.0154
-2 15 19 -1.7278 0.0465
-2 15 20 1.5603 0.0094
-2 15 21 1.3211 -0.0225
-2 15 22 0.5071 0.0390
-2 15 23 -0.6587 0.0242
-2 15 24 -0.5896 -0.0071
-2 15 25 1.0036 -0.0039
-2 15 26 1.1216 -0.0303
-2 16 1 0.1574 -0.0233
-2 16 2 0.1109 0.1883
-2 16 3 1.7791 0.3110
-2 16 4 0.8131 0.0113
-2 16 5 -2.5379 -0.0929
-2 16 6 0.2755 0.0642
-2 16 7 3.0481 -0.0060
-2 16 8 1.5107 -0.0509
-2 16 9 0.9438 0.0826
-2 16 10 0.6501 0.0392
-2 16 11 0.2436 -0.0571
-2 16 12 1.4703 0.0343
-2 16 13 0.8265 0.0945
-2 16 14 -3.1613 0.0306
-2 16 15 -2.6867 -0.0081
-2 16 16 0.9416 -0.0037
-2 16 17 -0.8853 0.0019
-2 16 18 -1.8893 0.0343
-2 16 19 2.3994 0.0409
-2 16 20 2.8197 -0.0088
-2 16 21 -1.6963 0.0164
-2 16 22 -2.4825 0.0464
-2 16 23 0.0993 -0.0040
-2 16 24 0.3261 0.0226
-2 17 1 1.4326 -0.3718
-2 17 2 0.2861 0.1197
-2 17 3 -1.3584 0.3449
-2 17 4 -0.9180 0.0334
-2 17 5 0.2232 -0.0684
-2 17 6 2.0514 0.0285
-2 17 7 0.3877 -0.0115
-2 17 8 -1.4128 0.0191
-2 17 9 0.5642 0.0621
-2 17 10 2.9076 -0.0270
-2 17 11 5.0412 -0.0167
-2 17 12 3.8091 0.0382
-2 17 13 -3.8578 -0.0277
-2 17 14 -7.9642 -0.0325
-2 17 15 -1.5139 0.0274
-2 17 16 4.3241 0.0020
-2 17 17 2.2751 -0.0196
-2 17 18 -1.4865 0.0265
-2 17 19 -2.6089 0.0136
-2 17 20 -1.7004 -0.0450
-2 17 21 0.0875 -0.0017
-2 17 22 1.1164 0.0450
-2 17 23 -0.1397 0.0268
-2 18 1 0.7293 -0.2865
-2 18 2 -0.7305 -0.1381
-2 18 3 0.9557 0.0288
-2 18 4 1.9922 0.0487
-2 18 5 -0.4317 -0.0077
-2 18 6 -0.6148 -0.0707
-2 18 7 -1.8389 -0.0135
-2 18 8 -2.0987 0.0834
-2 18 9 2.6557 0.0130
-2 18 10 5.7377 -0.0564
-2 18 11 4.1173 -0.0080
-2 18 12 -0.1807 -0.0383
-2 18 13 -3.9264 -0.0721
-2 18 14 -1.1851 -0.0061
-2 18 15 4.2027 -0.0070
-2 18 16 2.9948 -0.0363
-2 18 17 -2.4163 -0.0222
-2 18 18 -5.1336 -0.0467
-2 18 19 -2.9571 -0.0572
-2 18 20 0.7028 0.0110
-2 18 21 1.7398 0.0492
-2 19 1 1.2975 0.1218
-2 19 2 0.6763 -0.2147
-2 19 3 1.0956 -0.2593
-2 19 4 0.0082 0.0316
-2 19 5 -1.7435 0.0842
-2 19 6 0.9661 -0.0720
-2 19 7 1.0695 -0.0148
-2 19 8 -1.6176 0.0600
-2 19 9 -1.4620 -0.0572
-2 19 10 1.4572 -0.0670
-2 19 11 5.5445 0.0185
-2 19 12 4.4117 -0.0097
-2 19 13 -0.8689 -0.0255
-2 19 14 -0.3997 -0.0255
-2 19 15 1.9328 -0.0451
-2 19 16 -0.0118 -0.0002
-2 19 17 -1.5420 -0.0284
-2 19 18 -0.5284 -0.0755
-2 19 19 0.6051 0.0133
-2 19 20 -0.3959 0.0174
-2 20 1 1.9401 0.3852
-2 20 2 -2.2473 -0.0601
-2 20 3 -0.8146 -0.2346
-2 20 4 0.8707 0.0399
-2 20 5 0.2723 0.1306
-2 20 6 2.2728 -0.0099
-2 20 7 0.0229 -0.0341
-2 20 8 -3.4359 -0.0541
-2 20 9 -0.5337 -0.0653
-2 20 10 5.0035 0.0636
-2 20 11 6.0547 0.0511
-2 20 12 0.0589 -0.0489
-2 20 13 -3.7587 0.0169
-2 20 14 -0.6134 0.0029
-2 20 15 1.8134 -0.0402
-2 20 16 3.0730 0.0806
-2 20 17 3.0682 0.0615
-2 20 18 -0.1452 -0.0678
-2 21 1 -1.3127 0.1820
-2 21 2 -3.3721 0.2234
-2 21 3 1.5438 0.0593
-2 21 4 0.7503 -0.0674
-2 21 5 -2.1144 -0.0170
-2 21 6 -0.2927 0.0580
-2 21 7 0.8680 0.0497
-2 21 8 2.4135 -0.0676
-2 21 9 2.3942 -0.0745
-2 21 10 1.2800 0.0717
-2 21 11 1.9681 0.0631
-2 21 12 -0.5308 -0.0110
-2 21 13 -2.4572 -0.0269
-2 21 14 0.1440 -0.0728
-2 21 15 2.1241 0.0598
-2 22 1 -0.4525 -0.2015
-2 22 2 0.2799 0.1989
-2 22 3 1.3161 0.1715
-2 22 4 -4.2541 -0.0687
-2 22 5 -3.8325 -0.0619
-2 22 6 1.6930 0.0244
-2 22 7 2.9041 0.0566
-2 22 8 1.9316 -0.0364
-2 22 9 -0.3675 -0.0799
-2 22 10 1.2656 0.0423
-2 22 11 4.0026 0.0496
-2 22 12 -0.0837 -0.0684
-2 23 1 -0.9084 -0.4580
-2 23 2 -0.8505 0.0448
-2 23 3 -0.5226 0.1586
-2 23 4 -2.5057 0.0001
-2 23 5 0.8535 -0.0594
-2 23 6 0.2359 -0.0724
-2 23 7 -2.1298 0.0150
-2 23 8 1.0436 0.0210
-1 -23 1 4.1873 0.1575
-1 -23 2 -3.4561 -0.2234
-1 -23 3 -3.1765 -0.0374
-1 -23 4 0.5584 0.1151
-1 -23 5 0.5124 -0.0187
-1 -23 6 1.6571 -0.1186
-1 -23 7 0.3686 -0.0459
-1 -23 8 -1.5732 0.1531
-1 -22 1 1.3400 0.2588
-1 -22 2 -2.6911 -0.1024
-1 -22 3 0.9887 0.0065
-1 -22 4 2.3542 0.0305
-1 -22 5 -1.0913 -0.0683
-1 -22 6 -1.3019 -0.0693
-1 -22 7 -0.5541 0.0563
-1 -22 8 0.8083 0.1059
-1 -22 9 0.2779 -0.0599
-1 -22 10 -4.1586 -0.0245
-1 -22 11 -4.0694 0.0552
-1 -22 12 1.6413 -0.0313
-1 -22 13 1.8067 -0.0118
-1 -21 1 2.0860 0.0255
-1 -21 2 -0.7285 -0.0280
-1 -21 3 1.6261 0.0878
-1 -21 4 -0.3280 0.0727
-1 -21 5 -3.1535 0.0402
-1 -21 6 -0.7153 -0.0632
-1 -21 7 1.3190 -0.0081
-1 -21 8 2.4123 0.0898
-1 -21 9 1.6565 -0.0103
-1 -21 10 -4.1273 0.0061
-1 -21 11 -6.4000 0.0195
-1 -21 12 -0.5432 -0.0433
-1 -21 13 0.5289 -0.0200
-1 -21 14 -2.3178 -0.0054
-1 -21 15 0.6145 0.0434
-1 -21 16 1.6776 0.0503
-1 -20 1 -0.3576 -0.2064
-1 -20 2 -0.2759 0.1653
-1 -20 3 0.8842 0.0786
-1 -20 4 -0.6019 -0.0530
-1 -20 5 -1.0769 0.0793
-1 -20 6 0.4364 0.0400
-1 -20 7 1.1595 0.0122
-1 -20 8 1.8272 -0.0030
-1 -20 9 0.2826 -0.0564
-1 -20 10 -4.8989 0.0579
-1 -20 11 -3.6139 0.0713
-1 -20 12 2.6852 -0.0339
-1 -20 13 -1.3314 -0.0593
-1 -20 14 -4.5848 -0.0211
-1 -20 15 1.4997 0.0625
-1 -20 16 0.6543 0.0250
-1 -20 17 -4.5401 -0.0611
-1 -20 18 -2.4192 0.0036
-1 -20 19 3.4428 -0.0214
-1 -19 1 -0.8429 -0.1233
-1 -19 2 0.7946 0.1450
-1 -19 3 2.0694 -0.1411
-1 -19 4 0.8055 -0.1514
-1 -19 5 -0.9425 0.0930
-1 -19 6 -0.6382 0.0156
-1 -19 7 -0.3732 -0.0487
-1 -19 8 -0.7457 0.0079
-1 -19 9 -0.4763 0.0453
-1 -19 10 -1.3144 0.0264
-1 -19 11 0.7202 -0.0334
-1 -19 12 2.2027 0.0306
-1 -19 13 -3.5433 0.0043
-1 -19 14 -2.5648 -0.1140
-1 -19 15 3.1748 0.0199
-1 -19 16 -0.8280 0.0945
-1 -19 17 -5.6992 -0.0507
-1 -19 18 -4.2545 -0.0325
-1 -19 19 1.2107 -0.0078
-1 -19 20 5.0704 -0.0858
-1 -19 21 1.9452 0.0155
-1 -18 1 1.7106 0.0744
-1 -18 2 2.7324 -0.0617
-1 -18 3 0.1360 -0.2360
-1 -18 4 -0.4432 -0.0901
-1 -18 5 0.3341 0.0090
-1 -18 6 -0.4755 -0.0507
-1 -18 7 -1.4364 0.0004
-1 -18 8 -0.1108 0.0439
-1 -18 9 0.0876 0.0344
-1 -18 10 -2.1932 -0.0431
-1 -18 11 1.2723 -0.0759
-1 -18 12 2.7303 0.0772
-1 -18 13 -3.4330 0.0439
-1 -18 14 -0.8617 -0.1260
-1 -18 15 4.0012 -0.0061
-1 -18 16 -0.5384 0.0754
-1 -18 17 -5.1367 -0.0393
-1 -18 18 -4.7793 -0.0173
-1 -18 19 1.7445 -0.0188
-1 -18 20 6.6552 -0.0398
-1 -18 21 0.2593 0.0772
-1 -18 22 -6.1673 0.0013
-1 -17 1 1.2574 0.1385
-1 -17 2 0.3113 -0.1053
-1 -17 3 -0.7711 -0.0144
-1 -17 4 1.2872 0.0587
-1 -17 5 2.0780 -0.0513
-1 -17 6 0.4860 -0.0214
-1 -17 7 -0.3736 0.0371
-1 -17 8 -0.0025 -0.0281
-1 -17 9 -1.3773 0.0244
-1 -17 10 -2.3907 0.0220
-1 -17 11 1.0462 -0.0943
-1 -17 12 -0.1892 0.0038
-1 -17 13 -2.4434 0.0980
-1 -17 14 3.1401 -0.0154
-1 -17 15 2.4293 -0.0511
-1 -17 16 -2.5267 -0.0141
-1 -17 17 -1.1938 0.0092
-1 -17 18 -0.3025 0.0340
-1 -17 19 -0.0951 -0.0457
-1 -17 20 0.8446 -0.0152
-1 -17 21 -0.9898 0.1063
-1 -17 22 -2.8033 -0.0555
-1 -17 23 0.8685 -0.1280
-1 -17 24 3.8553 0.1503
-1 -16 1 1.5426 -0.0634
-1 -16 2 1.8180 0.0545
-1 -16 3 -0.7965 0.3446
-1 -16 4 0.9185 0.1471
-1 -16 5 3.2872 -0.1519
-1 -16 6 0.6285 -0.0090
-1 -16 7 -1.7418 0.1251
-1 -16 8 0.4066 -0.0303
-1 -16 9 -0.0393 -0.0393
-1 -16 10 -2.0932 0.0802
-1 -16 11 0.3878 0.0071
-1 -16 12 -0.4437 -0.0628
-1 -16 13 -1.4864 0.0334
-1 -16 14 1.4214 0.0862
-1 -16 15 -0.1756 0.0001
-1 -16 16 -1.1725 -0.0880
-1 -16 17 0.2128 0.0023
-1 -16 18 -0.9859 0.0961
-1 -16 19 -1.6930 -0.0438
-1 -16 20 0.3393 -0.0582
-1 -16 21 2.3296 0.1184
-1 -16 22 -0.7021 0.0031
-1 -16 23 -1.9824 -0.1197
-1 -16 24 1.6895 0.1506
-1 -16 25 0.4287 0.1616
-1 -15 1 1.7965 -0.2027
-1 -15 2 0.8017 0.0808
-1 -15 3 -1.1216 0.2545
-1 -15 4 1.4279 0.0643
-1 -15 5 2.2136 -0.1122
-1 -15 6 -1.3923 -0.0027
-1 -15 7 -2.0032 0.1186
-1 -15 8 1.1323 -0.0109
-1 -15 9 0.6108 -0.0841
-1 -15 10 0.2830 0.0788
-1 -15 11 2.1374 0.0987
-1 -15 12 -1.4140 -0.0567
-1 -15 13 -3.0276 -0.0528
-1 -15 14 -0.5473 0.0547
-1 -15 15 -1.0496 0.0437
-1 -15 16 -1.9373 -0.0474
-1 -15 17 -1.5798 -0.0204
-1 -15 18 1.0405 0.0788
-1 -15 19 1.2401 0.0193
-1 -15 20 -1.4144 -0.0557
-1 -15 21 -0.6804 0.0483
-1 -15 22 -1.5139 0.0514
-1 -15 23 -1.2524 -0.0573
-1 -15 24 2.4286 0.0475
-1 -15 25 0.7985 0.0686
-1 -15 26 -2.6455 -0.0963
-1 -15 27 -1.5845 0.0254
-1 -14 1 3.3539 -0.0633
-1 -14 2 2.8783 -0.0921
-1 -14 3 -2.1673 -0.2179
-1 -14 4 -0.5318 -0.0330
-1 -14 5 1.7499 0.1062
-1 -14 6 -1.9581 -0.0524
-1 -14 7 -2.4272 -0.0860
-1 -14 8 3.4556 0.0125
-1 -14 9 2.6981 0.0003
-1 -14 10 -2.2699 -0.0015
-1 -14 11 -1.3160 0.0254
-1 -14 12 0.9624 -0.0102
-1 -14 13 -0.0014 -0.0648
-1 -14 14 -3.0074 -0.0448
-1 -14 15 -1.6199 0.0575
-1 -14 16 1.0347 0.0538
-1 -14 17 -0.5039 -0.0524
-1 -14 18 0.0748 -0.0019
-1 -14 19 -1.9265 0.0768
-1 -14 20 -4.9230 -0.0204
-1 -14 21 -0.9520 -0.0236
-1 -14 22 1.1507 0.0449
-1 -14 23 0.3409 -0.0366
-1 -14 24 0.8759 -0.0084
-1 -14 25 0.3226 0.0722
-1 -14 26 -1.3824 -0.0235
-1 -14 27 -1.8022 -0.0176
-1 -14 28 0.6560 0.0454
-1 -13 1 3.7598 0.2391
-1 -13 2 0.0052 -0.0791
-1 -13 3 -3.7114 -0.4406
-1 -13 4 1.8861 -0.0940
-1 -13 5 4.3119 0.2407
-1 -13 6 -1.6624 -0.0290
-1 -13 7 -2.7107 -0.2060
-1 -13 8 2.5330 -0.0056
-1 -13 9 0.1853 0.0605
-1 -13 10 -3.9744 -0.0773
-1 -13 11 -0.6581 -0.0876
-1 -13 12 3.1822 0.0400
-1 -13 13 1.4000 0.0318
-1 -13 14 -2.0086 -0.0852
-1 -13 15 0.4186 -0.0342
-1 -13 16 1.0320 0.0726
-1 -13 17 -2.3701 -0.0070
-1 -13 18 -1.1160 -0.0425
-1 -13 19 -1.0139 0.0487
-1 -13 20 -2.3114 -0.0077
-1 -13 21 -1.0715 -0.0529
-1 -13 22 -0.0948 0.0467
-1 -13 23 0.4573 0.0457
-1 -13 24 -0.6832 -0.0136
-1 -13 25 -0.6048 -0.0406
-1 -13 26 -0.1470 -0.0568
-1 -13 27 -1.8118 0.0397
-1 -13 28 0.1638 0.0636
-1 -13 29 2.8942 -0.1362
-1 -12 1 4.0420 0.2697
-1 -12 2 -0.7697 0.2095
-1 -12 3 -4.6561 -0.0596
-1 -12 4 1.7945 -0.0991
-1 -12 5 5.7184 0.0678
-1 -12 6 -1.7871 0.0621
-1 -12 7 -4.4548 -0.0326
-1 -12 8 3.3331 -0.0099
-1 -12 9 2.7546 0.0218
-1 -12 10 -4.8038 -0.0359
-1 -12 11 -3.5245 -0.0613
-1 -12 12 4.4390 0.0293
-1 -12 13 4.0260 0.0723
-1 -12 14 -3.0803 -0.0446
-1 -12 15 -2.1374 -0.0888
-1 -12 16 1.6621 0.0432
-1 -12 17 1.3586 0.0497
-1 -12 18 0.3274 -0.0465
-1 -12 19 -0.4926 -0.0046
-1 -12 20 -0.3066 0.0349
-1 -12 21 -0.7639 0.0134
-1 -12 22 0.4425 0.0103
-1 -12 23 -0.0306 -0.0251
-1 -12 24 -5.2087 -0.0296
-1 -12 25 -2.7981 0.0077
-1 -12 26 2.9076 -0.0112
-1 -12 27 1.6410 0.0248
-1 -12 28 0.4998 0.0536
-1 -12 29 1.5388 -0.1354
-1 -11 1 2.0783 -0.0708
-1 -11 2 -5.9981 0.2784
-1 -11 3 -7.0853 0.3688
-1 -11 4 2.4468 -0.0252
-1 -11 5 6.7816 -0.1747
-1 -11 6 -1.7250 0.0868
-1 -11 7 -4.0273 0.2109
-1 -11 8 3.1250 0.0434
-1 -11 9 2.1265 -0.0287
-1 -11 10 -2.8667 0.0503
-1 -11 11 -1.2164 0.0161
-1 -11 12 1.6157 -0.0457
-1 -11 13 -1.0708 0.0538
-1 -11 14 -2.3749 0.0743
-1 -11 15 1.3125 -0.0579
-1 -11 16 2.1511 -0.0300
-1 -11 17 0.2055 0.0693
-1 -11 18 -0.2866 0.0288
-1 -11 19 2.9849 -0.0094
-1 -11 20 3.3943 0.0164
-1 -11 21 -3.3432 0.0087
-1 -11 22 -2.8304 -0.0299
-1 -11 23 1.0999 -0.0241
-1 -11 24 -2.0429 0.0333
-1 -11 25 -1.0906 0.0360
-1 -11 26 2.3590 -0.0424
-1 -11 27 -0.0286 0.0088
-1 -11 28 -2.9574 0.1069
-1 -11 29 -0.1392 -0.0789
-1 -11 30 4.7255 -0.2344
-1 -10 1 -0.7492 -0.4372
-1 -10 2 -1.8952 -0.0811
-1 -10 3 -4.2106 0.2986
-1 -10 4 -2.0849 0.0752
-1 -10 5 2.8595 -0.1966
-1 -10 6 -0.4555 0.0156
-1 -10 7 -3.1640 0.2007
-1 -10 8 1.2399 0.0082
-1 -10 9 2.5804 -0.0633
-1 -10 10 -0.8899 0.0921
-1 -10 11 -2.0320 0.0588
-1 -10 12 -0.0392 -0.0844
-1 -10 13 0.2296 0.0103
-1 -10 14 -0.9170 0.1191
-1 -10 15 -1.9472 0.0053
-1 -10 16 -0.4053 -0.0536
-1 -10 17 2.2651 0.0386
-1 -10 18 0.8392 0.0510
-1 -10 19 0.7940 -0.0330
-1 -10 20 0.0721 -0.0223
-1 -10 21 -2.2671 0.0493
-1 -10 22 2.7569 0.0248
-1 -10 23 3.1675 -0.0483
-1 -10 24 -4.0225 -0.0198
-1 -10 25 -3.1893 0.0675
-1 -10 26 1.4492 0.0128
-1 -10 27 0.4680 -0.0398
-1 -10 28 -2.7764 0.0727
-1 -10 29 -0.3455 0.0241
-1 -10 30 4.2283 -0.1886
-1 -10 31 2.4785 -0.0954
-1 -9 1 0.5315 -0.3621
-1 -9 2 2.6788 -0.3689
-1 -9 3 -1.5944 -0.0638
-1 -9 4 -4.8033 0.1062
-1 -9 5 -0.5064 -0.0645
-1 -9 6 -0.2204 -0.1098
-1 -9 7 -2.7313 -0.0357
-1 -9 8 -1.4247 -0.0598
-1 -9 9 0.6898 -0.0520
-1 -9 10 1.4451 0.0192
-1 -9 11 2.0583 0.0396
-1 -9 12 -0.1884 -0.0302
-1 -9 13 -2.7651 -0.0567
-1 -9 14 -1.0175 0.0311
-1 -9 15 -0.8920 0.0660
-1 -9 16 -1.4205 -0.0352
-1 -9 17 -0.3878 -0.0579
-1 -9 18 -0.5269 0.0219
-1 -9 19 1.1554 0.0015
-1 -9 20 0.5382 -0.0293
-1 -9 21 -1.0166 0.0182
-1 -9 22 1.1785 0.0327
-1 -9 23 -0.1069 -0.0240
-1 -9 24 -2.0579 -0.0371
-1 -9 25 -1.2640 0.0465
-1 -9 26 -0.5763 0.0324
-1 -9 27 0.8829 -0.0583
-1 -9 28 0.3427 0.0096
-1 -9 29 0.1790 0.0714
-1 -9 30 1.4655 -0.0776
-1 -9 31 0.5582 -0.1061
-1 -8 1 -4.8989 0.1772
-1 -8 2 12.3242 -0.2428
-1 -8 3 8.5905 -0.2651
-1 -8 4 -8.3999 0.0690
-1 -8 5 -6.4544 0.0562
-1 -8 6 4.2768 -0.1351
-1 -8 7 1.2126 -0.1601
-1 -8 8 -6.3628 -0.0265
-1 -8 9 -2.8648 -0.0281
-1 -8 10 4.5953 -0.1125
-1 -8 11 4.0538 0.0100
-1 -8 12 -2.6128 0.0800
-1 -8 13 -1.9808 -0.0895
-1 -8 14 2.7534 -0.1075
-1 -8 15 -1.5268 0.0723
-1 -8 16 -4.7225 0.0362
-1 -8 17 -0.3986 -0.0948
-1 -8 18 2.4348 -0.0506
-1 -8 19 0.1529 0.0175
-1 -8 20 -3.3510 0.0022
-1 -8 21 -0.2722 -0.0326
-1 -8 22 2.3526 0.0054
-1 -8 23 -2.2620 0.0292
-1 -8 24 -3.7761 -0.0373
-1 -8 25 -1.5984 -0.0273
-1 -8 26 1.7266 0.0355
-1 -8 27 4.4853 -0.0127
-1 -8 28 1.0886 -0.0311
-1 -8 29 -2.2031 0.0631
-1 -8 30 -1.5539 -0.0169
-1 -8 31 0.3738 -0.1519
-1 -8 32 1.9479 0.0354
-1 -7 1 -5.2052 0.6487
-1 -7 2 18.8745 0.1070
-1 -7 3 11.9530 -0.2052
-1 -7 4 -8.7076 0.0114
-1 -7 5 -3.1423 0.1895
-1 -7 6 9.6759 0.0123
-1 -7 7 0.1144 -0.1517
-1 -7 8 -10.8392 0.0473
-1 -7 9 -2.7774 0.0955
-1 -7 10 7.5402 -0.1044
-1 -7 11 3.0961 -0.0660
-1 -7 12 -5.7942 0.0976
-1 -7 13 -0.5514 0.0131
-1 -7 14 5.8893 -0.1045
-1 -7 15 -0.8673 -0.0043
-1 -7 16 -5.0866 0.0481
-1 -7 17 -0.3617 -0.0290
-1 -7 18 3.0202 -0.0475
-1 -7 19 -0.4504 0.0239
-1 -7 20 -3.1177 0.0362
-1 -7 21 0.9091 -0.0571
-1 -7 22 0.0773 -0.0477
-1 -7 23 -3.3503 0.0445
-1 -7 24 -0.2772 0.0111
-1 -7 25 0.1786 -0.0571
-1 -7 26 -1.0350 0.0143
-1 -7 27 0.8049 0.0536
-1 -7 28 1.6205 -0.0481
-1 -7 29 1.8093 -0.0410
-1 -7 30 0.8459 0.0103
-1 -7 31 0.0265 -0.0479
-1 -7 32 -0.1062 -0.0082
-1 -6 1 -12.6870 0.4622
-1 -6 2 16.6664 0.3521
-1 -6 3 14.1964 0.0323
-1 -6 4 -7.3448 -0.0676
-1 -6 5 -4.3467 0.1818
-1 -6 6 11.8430 0.1554
-1 -6 7 7.7722 -0.0494
-1 -6 8 -7.0229 0.0505
-1 -6 9 -7.5842 0.1493
-1 -6 10 3.7682 0.0393
-1 -6 11 3.3097 -0.0822
-1 -6 12 -5.7995 0.0112
-1 -6 13 -0.5221 0.1205
-1 -6 14 5.9964 0.0022
-1 -6 15 0.1961 -0.0820
-1 -6 16 -3.8547 0.0328
-1 -6 17 -0.8445 0.1009
-1 -6 18 2.0354 -0.0108
-1 -6 19 -0.6167 -0.0471
-1 -6 20 -1.4769 0.0401
-1 -6 21 2.6346 0.0292
-1 -6 22 1.3734 -0.0358
-1 -6 23 -1.4317 0.0000
-1 -6 24 -1.5586 0.0433
-1 -6 25 -2.7567 -0.0283
-1 -6 26 -0.2283 -0.0209
-1 -6 27 2.6779 0.0486
-1 -6 28 1.9430 -0.0226
-1 -6 29 1.9133 -0.0379
-1 -6 30 0.9843 0.0242
-1 -6 31 -1.1278 -0.0320
-1 -6 32 -1.7140 -0.0641
-1 -6 33 0.8722 0.0199
-1 -5 1 -7.7926 -0.2395
-1 -5 2 0.0200 0.3635
-1 -5 3 -5.3907 0.2787
-1 -5 4 -6.5222 -0.2291
-1 -5 5 6.1886 -0.1010
-1 -5 6 15.1075 0.1838
-1 -5 7 7.7483 0.1285
-1 -5 8 -6.8724 -0.0869
-1 -5 9 -8.2833 -0.0398
-1 -5 10 5.9508 0.1828
-1 -5 11 4.9554 0.0407
-1 -5 12 -7.8312 -0.1066
-1 -5 13 -3.3971 0.0586
-1 -5 14 4.2444 0.1031
-1 -5 15 0.7348 -0.0484
-1 -5 16 -3.2380 -0.0470
-1 -5 17 -1.3271 0.0760
-1 -5 18 2.3170 0.0531
-1 -5 19 0.6098 -0.0263
-1 -5 20 -0.9977 0.0021
-1 -5 21 1.5558 0.0678
-1 -5 22 1.7568 0.0188
-1 -5 23 0.1384 -0.0381
-1 -5 24 -1.3799 0.0209
-1 -5 25 -0.2965 0.0178
-1 -5 26 3.4283 -0.0140
-1 -5 27 1.5521 0.0177
-1 -5 28 -1.8056 0.0064
-1 -5 29 -0.2903 -0.0292
-1 -5 30 0.6111 -0.0308
-1 -5 31 -0.3049 0.0025
-1 -5 32 0.0315 0.0214
-1 -5 33 2.1967 -0.0142
-1 -4 1 -4.3793 -0.7442
-1 -4 2 -28.3158 0.0036
-1 -4 3 -20.7400 0.2095
-1 -4 4 7.5166 -0.1854
-1 -4 5 7.0851 -0.2552
-1 -4 6 -7.8230 -0.0298
-1 -4 7 3.7982 0.1633
-1 -4 8 13.4476 -0.0551
-1 -4 9 1.6207 -0.1823
-1 -4 10 -0.7254 0.0688
-1 -4 11 0.2310 0.0865
-1 -4 12 -5.6078 -0.0924
-1 -4 13 -3.7567 -0.0760
-1 -4 14 1.3551 0.0478
-1 -4 15 1.5072 0.0193
-1 -4 16 -1.2426 -0.0599
-1 -4 17 -1.2369 -0.0095
-1 -4 18 0.8498 0.0565
-1 -4 19 -0.9157 0.0065
-1 -4 20 -1.6771 -0.0515
-1 -4 21 1.4330 0.0263
-1 -4 22 2.6883 0.0496
-1 -4 23 1.0282 -0.0253
-1 -4 24 -0.5176 -0.0072
-1 -4 25 1.8681 0.0288
-1 -4 26 4.4581 -0.0016
-1 -4 27 1.3108 -0.0268
-1 -4 28 -2.2002 0.0004
-1 -4 29 -3.1643 0.0088
-1 -4 30 -1.9819 -0.0127
-1 -4 31 1.5000 0.0121
-1 -4 32 1.9600 0.0038
-1 -4 33 -0.3187 -0.0566
-1 -3 1 27.3028 -0.6578
-1 -3 2 -36.7734 -0.5844
-1 -3 3 -43.1070 -0.1267
-1 -3 4 -1.1141 0.2543
-1 -3 5 -0.7057 0.0302
-1 -3 6 -16.2348 -0.2906
-1 -3 7 11.5007 0.0067
-1 -3 8 23.4694 0.1230
-1 -3 9 -3.2767 -0.1311
-1 -3 10 -7.2170 -0.1687
-1 -3 11 4.7474 0.0211
-1 -3 12 0.8469 0.0374
-1 -3 13 -3.6318 -0.1012
-1 -3 14 0.8431 -0.0407
-1 -3 15 2.0361 0.0610
-1 -3 16 -2.2652 -0.0105
-1 -3 17 -1.9669 -0.0954
-1 -3 18 0.7794 -0.0279
-1 -3 19 -0.3670 0.0411
-1 -3 20 -0.9212 -0.0306
-1 -3 21 0.9773 -0.0443
-1 -3 22 1.6417 0.0213
-1 -3 23 0.0325 0.0087
-1 -3 24 -0.4902 -0.0349
-1 -3 25 2.9956 0.0023
-1 -3 26 4.7490 0.0252
-1 -3 27 1.8074 -0.0295
-1 -3 28 -0.7305 -0.0153
-1 -3 29 -3.3262 0.0260
-1 -3 30 -3.9241 -0.0051
-1 -3 31 -0.6121 -0.0366
-1 -3 32 0.2720 -0.0288
-1 -3 33 -1.0071 -0.0055
-1 -2 1 50.5856 -0.0867
-1 -2 2 -52.6236 -0.3033
-1 -2 3 -55.5188 -0.2341
-1 -2 4 12.9659 0.3286
-1 -2 5 6.6638 0.2618
-1 -2 6 -33.4993 -0.2226
-1 -2 7 -4.6773 -0.1557
-1 -2 8 23.1793 0.1290
-1 -2 9 1.7921 0.0859
-1 -2 10 -4.7099 -0.1336
-1 -2 11 7.7589 -0.0456
-1 -2 12 3.6162 0.1000
-1 -2 14 0.7971 -0.0506
-1 -2 15 1.5664 0.0055
-1 -2 16 -2.5851 0.0293
-1 -2 17 0.0042 -0.0621
-1 -2 18 3.2349 -0.0721
-1 -2 19 0.3771 0.0424
-1 -2 20 -2.1645 0.0340
-1 -2 21 -0.0249 -0.0570
-1 -2 22 1.8173 -0.0374
-1 -2 23 -0.0293 0.0158
-1 -2 24 0.0290 -0.0169
-1 -2 25 2.6881 -0.0122
-1 -2 26 1.1091 0.0242
-1 -2 27 0.7386 -0.0004
-1 -2 28 4.3201 -0.0213
-1 -2 29 -0.4998 -0.0193
-1 -2 30 -7.4010 -0.0111
-1 -2 31 -3.7591 0.0030
-1 -2 32 0.8536 0.0240
-1 -2 33 -0.5461 -0.0104
-1 -1 1 61.0937 0.5145
-1 -1 2 -31.8218 0.4130
-1 -1 3 -28.0121 -0.2013
-1 -1 4 21.2057 -0.1346
-1 -1 5 -13.5080 0.1197
-1 -1 6 -50.1002 0.1188
-1 -1 7 -1.4889 -0.0570
-1 -1 8 26.2526 -0.0050
-1 -1 9 -3.5394 0.1730
-1 -1 10 -7.0336 0.0612
-1 -1 11 11.1181 -0.0272
-1 -1 12 3.4265 0.0330
-1 -1 13 -6.5434 0.0636
-1 -1 14 1.9820 0.0028
-1 -1 15 5.0553 -0.0239
-1 -1 16 -0.4818 0.0604
-1 -1 17 -0.9346 0.0390
-1 -1 18 0.5401 -0.0401
-1 -1 19 -0.1569 -0.0013
-1 -1 20 0.4384 0.0445
-1 -1 21 3.0396 -0.0101
-1 -1 22 2.2993 -0.0285
-1 -1 23 -1.8606 0.0186
-1 -1 24 -1.7631 -0.0018
-1 -1 25 1.6242 -0.0247
-1 -1 26 1.3097 0.0072
-1 -1 27 1.5015 0.0219
-1 -1 28 2.0031 -0.0034
-1 -1 29 -2.3796 0.0087
-1 -1 30 -1.9312 0.0293
-1 -1 31 1.5068 -0.0084
-1 -1 32 -2.8915 -0.0142
-1 -1 33 -5.2551 -0.0277
-1 0 1 78.4337 0.1353
-1 0 2 -12.4169 0.5107
-1 0 3 -17.1584 0.1343
-1 0 4 22.3001 -0.3605
-1 0 5 -7.9568 -0.1889
-1 0 6 -38.5744 0.3527
-1 0 7 -5.0282 0.1469
-1 0 8 12.1987 -0.1769
-1 0 9 -7.0605 0.0081
-1 0 10 -5.6552 0.1264
-1 0 11 7.7192 0.0147
-1 0 12 2.0850 -0.0266
-1 0 13 -2.5193 0.0776
-1 0 14 4.1217 0.0561
-1 0 15 2.7493 -0.0327
-1 0 16 -4.3483 0.0154
-1 0 17 -3.4014 0.0763
-1 0 18 3.0622 0.0320
-1 0 19 3.9266 -0.0308
-1 0 20 -0.5454 0.0109
-1 0 21 -1.0648 0.0398
-1 0 22 1.7078 -0.0029
-1 0 23 2.2645 -0.0093
-1 0 24 1.1947 0.0133
-1 0 25 -1.0642 0.0016
-1 0 26 -3.5463 -0.0004
-1 0 27 -0.5421 0.0369
-1 0 28 3.2301 0.0391
-1 0 29 2.1201 0.0263
-1 0 30 1.8274 -0.0203
-1 0 31 -1.2569 -0.0484
-1 0 32 -5.7382 0.0341
-1 0 33 -1.6112 0.0673
-1 1 1 55.4112 -0.4286
-1 1 2 -3.6543 0.0813
-1 1 3 12.7656 0.4138
-1 1 4 39.8149 -0.0160
-1 1 5 -2.2691 -0.2227
-1 1 6 -32.1031 0.0981
-1 1 7 -6.4925 0.0206
-1 1 8 5.5838 -0.1342
-1 1 9 -9.1956 -0.0288
-1 1 10 -6.4004 0.0506
-1 1 11 8.6741 0.0124
-1 1 12 5.4609 -0.0171
-1 1 13 -4.5434 0.0097
-1 1 14 -3.3151 -0.0022
-1 1 15 0.9148 -0.0244
-1 1 16 0.8832 -0.0275
-1 1 17 0.5291 0.0405
-1 1 18 0.3629 0.0633
-1 1 19 -2.2388 -0.0392
-1 1 20 -1.5159 -0.0351
-1 1 21 2.7519 0.0407
-1 1 22 3.5811 0.0118
-1 1 23 1.5724 -0.0169
-1 1 24 -1.6014 0.0323
-1 1 25 -4.1823 0.0195
-1 1 26 -0.6366 -0.0191
-1 1 27 4.7319 0.0050
-1 1 28 0.1507 0.0202
-1 1 29 -4.2006 0.0295
-1 1 30 2.3793 0.0045
-1 1 31 3.9897 -0.0135
-1 1 32 -0.8356 0.0175
-1 1 33 -0.7794 0.0710
-1 2 1 44.6972 -0.0419
-1 2 2 21.4306 -0.3606
-1 2 3 24.2243 0.0672
-1 2 4 27.9296 0.1855
-1 2 5 6.1849 -0.0562
-1 2 6 -8.3291 -0.1303
-1 2 7 -5.7773 -0.0304
-1 2 8 -1.3380 0.0667
-1 2 9 -0.7594 -0.0171
-1 2 10 -0.8550 -0.0509
-1 2 11 0.4795 0.0015
-1 2 12 -1.0525 -0.0227
-1 2 13 -3.0271 -0.0858
-1 2 14 0.0447 -0.0355
-1 2 15 3.3596 0.0324
-1 2 16 0.4367 -0.0576
-1 2 17 -2.4855 -0.0577
-1 2 18 -1.1055 0.0359
-1 2 19 0.6244 0.0068
-1 2 20 1.6373 -0.0311
-1 2 21 -0.3188 0.0037
-1 2 22 -0.5892 0.0003
-1 2 23 3.6279 -0.0233
-1 2 24 1.7451 0.0091
-1 2 25 -4.2183 0.0046
-1 2 26 -2.2037 -0.0101
-1 2 27 1.4654 -0.0022
-1 2 28 -1.0204 -0.0103
-1 2 29 1.1800 0.0034
-1 2 30 4.6672 0.0249
-1 2 31 -0.8943 0.0145
-1 2 32 -1.6995 -0.0376
-1 2 33 3.1407 0.0447
-1 3 1 23.4563 0.5732
-1 3 2 9.3991 -0.5392
-1 3 3 15.9571 -0.4522
-1 3 4 29.2400 0.1626
-1 3 5 21.1349 0.2173
-1 3 6 -1.0011 -0.0878
-1 3 7 -7.4950 -0.0298
-1 3 8 7.1941 0.1064
-1 3 9 8.0687 -0.0190
-1 3 10 -7.5196 -0.0517
-1 3 11 -6.9529 0.0123
-1 3 12 4.8661 -0.0030
-1 3 13 3.4350 -0.0801
-1 3 14 -3.8565 -0.0398
-1 3 15 -2.8067 0.0406
-1 3 16 0.8263 -0.0253
-1 3 17 2.6054 -0.0672
-1 3 18 1.0702 -0.0062
-1 3 19 -1.2919 0.0249
-1 3 20 0.3727 -0.0204
-1 3 21 1.2945 -0.0283
-1 3 22 2.0286 -0.0075
-1 3 23 2.7382 -0.0129
-1 3 24 -1.8211 -0.0008
-1 3 25 -3.9008 -0.0018
-1 3 26 1.7171 -0.0040
-1 3 27 2.6294 -0.0032
-1 3 28 -2.4448 -0.0059
-1 3 29 -0.4857 -0.0198
-1 3 30 2.4011 -0.0161
-1 3 31 0.1711 -0.0150
-1 3 32 1.5571 -0.0453
-1 3 33 2.1516 0.0738
-1 4 1 3.8339 0.6992
-1 4 2 6.8132 -0.1774
-1 4 3 7.5188 -0.2784
-1 4 4 17.4315 0.1437
-1 4 5 21.5532 0.1062
-1 4 6 3.6344 -0.1662
-1 4 7 -6.9940 -0.0053
-1 4 8 7.7762 0.1149
-1 4 9 11.5955 0.0106
-1 4 10 -4.1029 -0.0205
-1 4 11 -5.9763 -0.0054
-1 4 12 4.7856 0.0312
-1 4 13 1.1117 0.0148
-1 4 14 -7.1983 -0.0217
-1 4 15 -2.0804 0.0098
-1 4 16 3.8495 0.0451
-1 4 17 1.5465 -0.0192
-1 4 18 -2.1199 -0.0545
-1 4 19 -0.1447 0.0195
-1 4 20 3.0087 0.0133
-1 4 21 0.6965 -0.0202
-1 4 22 -0.2109 -0.0013
-1 4 23 1.9377 0.0110
-1 4 24 1.4677 0.0104
-1 4 25 0.6150 0.0035
-1 4 26 0.0403 -0.0036
-1 4 27 -3.4550 -0.0093
-1 4 28 -2.9879 -0.0027
-1 4 29 4.5076 -0.0333
-1 4 30 5.2412 -0.0212
-1 4 31 -1.4840 0.0069
-1 4 32 -3.6437 -0.0133
-1 4 33 -0.9283 0.0464
-1 5 1 6.9906 0.3957
-1 5 2 -5.3595 0.4776
-1 5 3 -12.9170 0.1741
-1 5 4 11.8353 -0.1267
-1 5 5 22.7255 -0.1649
-1 5 6 -4.7346 -0.0229
-1 5 7 -14.5519 0.0714
-1 5 8 10.5719 -0.0201
-1 5 9 17.4143 0.0119
-1 5 10 -4.4729 0.0401
-1 5 11 -9.9887 -0.0559
-1 5 12 4.9132 0.0066
-1 5 13 4.1071 0.1160
-1 5 14 -5.8604 0.0320
-1 5 15 -3.1535 -0.0465
-1 5 16 1.3456 0.0432
-1 5 17 -0.1747 0.0342
-1 5 18 -1.5538 -0.0281
-1 5 19 -0.4152 0.0143
-1 5 20 0.2998 0.0255
-1 5 21 0.3850 0.0223
-1 5 22 1.7557 0.0202
-1 5 23 1.9855 0.0037
-1 5 24 0.3679 0.0045
-1 5 25 -0.8108 0.0155
-1 5 26 -1.0609 -0.0091
-1 5 27 -1.1368 -0.0168
-1 5 28 0.3864 0.0299
-1 5 29 2.6727 0.0165
-1 5 30 1.6897 0.0072
-1 5 31 -0.9431 -0.0050
-1 5 32 -2.4545 -0.0190
-1 6 1 10.2486 -0.3313
-1 6 2 -5.4276 0.4891
-1 6 3 -16.8965 0.3159
-1 6 4 2.1067 -0.1499
-1 6 5 10.5023 -0.0323
-1 6 6 -6.6971 0.1740
-1 6 7 -10.3620 -0.0311
-1 6 8 5.3175 -0.1937
-1 6 9 8.5571 0.0168
-1 6 10 -4.9158 0.0926
-1 6 11 -5.1249 -0.0437
-1 6 12 7.1657 -0.0362
-1 6 13 3.0698 0.0796
-1 6 14 -6.2815 0.0363
-1 6 15 -2.2191 -0.0511
-1 6 16 2.2226 0.0172
-1 6 17 -0.1966 0.0497
-1 6 18 -2.5723 0.0220
-1 6 19 -1.4972 0.0064
-1 6 20 0.8917 0.0101
-1 6 21 1.2004 0.0346
-1 6 22 -1.0062 0.0113
-1 6 23 -1.5118 -0.0070
-1 6 24 1.0351 0.0083
-1 6 25 1.7599 0.0148
-1 6 26 -0.9487 -0.0109
-1 6 27 -3.1858 0.0076
-1 6 28 -0.7932 0.0495
-1 6 29 3.4920 0.0211
-1 6 30 3.3011 0.0055
-1 6 31 -0.7866 -0.0112
-1 6 32 -3.3210 -0.0008
-1 7 1 15.7246 -0.9579
-1 7 2 -5.0738 0.1373
-1 7 3 -16.1480 0.3253
-1 7 4 1.8012 -0.0163
-1 7 5 7.6780 -0.0178
-1 7 6 -7.6532 0.0939
-1 7 7 -12.7702 -0.0223
-1 7 8 -0.7226 -0.0898
-1 7 9 6.4947 -0.0284
-1 7 10 -1.6580 0.0108
-1 7 11 -4.5002 0.0308
-1 7 12 2.4876 -0.0287
-1 7 13 1.6064 -0.0479
-1 7 14 -1.2618 0.0030
-1 7 15 0.7900 0.0105
-1 7 16 1.0731 -0.0143
-1 7 17 0.7444 -0.0024
-1 7 18 0.6131 0.0329
-1 7 19 -0.8538 -0.0130
-1 7 20 -0.9508 -0.0177
-1 7 21 -0.2425 0.0288
-1 7 22 -0.3643 0.0057
-1 7 23 0.8431 -0.0161
-1 7 24 1.6179 -0.0110
-1 7 25 -0.8778 0.0047
-1 7 26 -3.7609 0.0150
-1 7 27 -2.7432 0.0239
-1 7 28 2.2998 -0.0000
-1 7 29 4.7418 -0.0224
-1 7 30 1.0728 -0.0046
-1 7 31 -3.0049 0.0022
-1 7 32 -2.0559 0.0489
-1 8 1 10.5310 -0.5309
-1 8 2 0.6206 -0.3159
-1 8 3 -2.8434 -0.1057
-1 8 4 2.6375 0.0475
-1 8 5 -0.7813 -0.0129
-1 8 6 -6.8826 -0.1167
-1 8 7 -5.5988 0.0049
-1 8 8 0.2387 0.1495
-1 8 9 2.3296 -0.0266
-1 8 10 -3.4050 -0.1165
-1 8 11 -4.4263 0.0544
-1 8 12 1.2211 0.0222
-1 8 13 2.5130 -0.0979
-1 8 14 1.2811 -0.0298
-1 8 15 0.5037 0.0323
-1 8 16 0.8333 -0.0473
-1 8 17 2.7000 -0.0474
-1 8 18 1.2485 0.0215
-1 8 19 -1.0182 -0.0153
-1 8 20 0.9794 -0.0201
-1 8 21 2.4767 -0.0101
-1 8 22 1.3089 -0.0271
-1 8 23 0.0597 0.0021
-1 8 24 -1.1587 0.0130
-1 8 25 -1.2514 -0.0067
-1 8 26 -0.4512 -0.0231
-1 8 27 0.3489 -0.0342
-1 8 28 1.0684 -0.0242
-1 8 29 0.1183 0.0510
-1 8 30 -0.8369 0.0373
-1 8 31 -0.0852 -0.0719
-1 9 1 7.9165 0.4925
-1 9 2 3.2374 -0.5078
-1 9 3 0.8839 -0.5633
-1 9 4 0.8404 0.0382
-1 9 5 -0.8348 0.1167
-1 9 6 -1.1231 -0.1317
-1 9 7 -2.2515 -0.0397
-1 9 8 -2.1332 0.1614
-1 9 9 0.5016 0.0184
-1 9 10 0.0844 -0.0804
-1 9 11 -0.9860 0.0338
-1 9 12 -0.6838 0.0304
-1 9 13 0.1809 -0.0522
-1 9 14 1.6223 -0.0303
-1 9 15 0.3027 0.0184
-1 9 16 -0.3771 -0.0241
-1 9 17 2.2142 -0.0347
-1 9 18 2.3466 -0.0159
-1 9 19 1.5252 -0.0184
-1 9 20 1.9232 0.0089
-1 9 21 0.8485 -0.0117
-1 9 22 0.4814 -0.0236
-1 9 23 0.8668 -0.0021
-1 9 24 0.5585 -0.0184
-1 9 25 0.5366 -0.0160
-1 9 26 0.0599 0.0101
-1 9 27 0.1303 -0.0096
-1 9 28 -0.7801 -0.0204
-1 9 29 -2.3169 0.0521
-1 9 30 0.9304 0.0101
-1 10 1 -1.8114 0.8740
-1 10 2 1.5026 -0.1541
-1 10 3 4.2663 -0.3818
-1 10 4 0.4344 0.0122
-1 10 5 -1.9339 0.1919
-1 10 6 0.7021 0.0555
-1 10 7 -0.0710 -0.0837
-1 10 8 -1.5119 -0.0492
-1 10 9 1.0472 0.0561
-1 10 10 2.0318 0.0923
-1 10 11 -0.3889 0.0081
-1 10 12 -2.2551 -0.0177
-1 10 13 -0.1788 0.0261
-1 10 14 2.0501 0.0212
-1 10 15 -0.1115 0.0158
-1 10 16 -0.5000 0.0059
-1 10 17 1.2916 -0.0126
-1 10 18 0.7072 -0.0191
-1 10 19 1.7329 0.0154
-1 10 20 2.1215 0.0297
-1 10 21 0.1323 -0.0103
-1 10 22 0.5930 -0.0072
-1 10 23 0.6045 -0.0065
-1 10 24 -0.1484 -0.0078
-1 10 25 -0.0020 0.0367
-1 10 26 -0.0311 0.0517
-1 10 27 1.7259 -0.0105
-1 10 28 0.3628 -0.0568
-1 10 29 -3.2306 0.0171
-1 10 30 -0.4497 0.0603
-1 11 1 -4.7743 0.2245
-1 11 2 3.3614 0.4105
-1 11 3 4.5018 0.3286
-1 11 4 -2.8751 -0.0422
-1 11 5 -3.2935 -0.0622
-1 11 6 2.7895 0.1508
-1 11 7 2.4283 0.0592
-1 11 8 -1.8346 -0.1234
-1 11 9 -1.4789 -0.0018
-1 11 10 1.3629 0.1043
-1 11 11 1.3124 -0.0147
-1 11 12 -0.8399 0.0200
-1 11 13 -0.1081 0.1007
-1 11 14 1.1134 -0.0044
-1 11 15 -0.4657 -0.0420
-1 11 16 -0.4014 0.0413
-1 11 17 -0.4716 0.0540
-1 11 18 0.0475 0.0120
-1 11 19 3.2643 0.0105
-1 11 20 0.7848 -0.0059
-1 11 21 -1.2724 0.0004
-1 11 22 2.2076 0.0411
-1 11 23 -0.0876 0.0229
-1 11 24 -2.7628 0.0218
-1 11 25 0.1125 0.0268
-1 11 26 1.7337 0.0046
-1 11 27 1.5959 0.0130
-1 11 28 -2.0891 0.0089
-1 11 29 -4.7976 0.0129
-1 12 1 -3.5226 -0.5327
-1 12 2 2.3089 0.4343
-1 12 3 2.2586 0.5865
-1 12 4 -2.6979 -0.0799
-1 12 5 -1.8614 -0.2825
-1 12 6 2.0386 0.0531
-1 12 7 0.7858 0.1582
-1 12 8 -2.1841 -0.0331
-1 12 9 -0.2220 -0.0557
-1 12 10 2.8485 -0.0001
-1 12 11 0.7090 -0.0359
-1 12 12 -2.4245 0.0166
-1 12 13 -0.3155 0.0388
-1 12 14 0.7385 -0.0315
-1 12 15 -0.7185 -0.0112
-1 12 16 0.4549 0.0400
-1 12 17 -1.0660 0.0173
-1 12 18 -0.7334 0.0024
-1 12 19 2.7719 -0.0008
-1 12 20 -0.7170 -0.0184
-1 12 21 0.5073 0.0362
-1 12 22 5.3774 0.0443
-1 12 23 -1.4504 -0.0331
-1 12 24 -4.4668 -0.0065
-1 12 25 1.2831 0.0258
-1 12 26 0.8545 0.0170
-1 12 27 -2.1038 0.0604
-1 12 28 -2.3771 0.0267
-1 13 1 -0.0801 -0.5828
-1 13 2 3.1906 -0.1181
-1 13 3 0.6599 0.1136
-1 13 4 -3.7868 0.0182
-1 13 5 -2.6402 -0.1267
-1 13 6 2.7742 -0.1265
-1 13 7 3.4134 0.0196
-1 13 8 -0.7890 0.0572
-1 13 9 -0.8778 -0.0207
-1 13 10 1.2809 -0.0770
-1 13 11 -1.3612 -0.0752
-1 13 12 -2.6453 -0.0387
-1 13 13 1.5356 -0.0154
-1 13 14 0.6048 0.0026
-1 13 15 -1.8141 -0.0050
-1 13 16 0.2733 -0.0404
-1 13 17 -2.0152 -0.0371
-1 13 18 -0.6874 0.0096
-1 13 19 3.3562 0.0126
-1 13 20 -1.5819 -0.0263
-1 13 21 0.1217 -0.0237
-1 13 22 5.5209 -0.0342
-1 13 23 -0.6630 -0.0208
-1 13 24 -2.8781 0.0559
-1 13 25 1.1067 0.0086
-1 13 26 -0.3195 -0.0677
-1 13 27 -1.5655 0.0052
-1 14 1 1.3702 -0.0099
-1 14 2 0.9330 -0.4129
-1 14 3 -0.6743 -0.3781
-1 14 4 -0.9691 0.1148
-1 14 5 0.6850 0.1723
-1 14 6 3.5070 -0.1452
-1 14 7 1.7858 -0.1417
-1 14 8 -2.4583 0.0136
-1 14 9 -1.2224 -0.0014
-1 14 10 1.2632 -0.0115
-1 14 11 -1.2928 0.0099
-1 14 12 -1.1719 -0.0671
-1 14 13 2.3377 -0.0796
-1 14 14 -1.7605 0.0232
-1 14 15 -3.4461 0.0333
-1 14 16 1.8814 -0.0308
-1 14 17 0.4210 -0.0509
-1 14 18 -0.7939 -0.0356
-1 14 19 -0.5330 -0.0297
-1 14 20 -3.8978 -0.0305
-1 14 21 1.3671 0.0203
-1 14 22 6.1030 0.0366
-1 14 23 -0.2823 -0.0450
-1 14 24 -2.1538 -0.0907
-1 14 25 1.2998 -0.0453
-1 14 26 0.4661 0.0407
-1 15 1 0.8675 0.4336
-1 15 2 0.2011 -0.1382
-1 15 3 1.6334 -0.3180
-1 15 4 1.1390 0.1270
-1 15 5 -1.3395 0.2346
-1 15 6 0.9443 -0.0614
-1 15 7 2.2359 -0.1103
-1 15 8 -0.8268 0.0056
-1 15 9 -1.1159 0.0102
-1 15 10 0.9281 0.0455
-1 15 11 -0.4657 0.0745
-1 15 12 -0.6639 -0.0034
-1 15 13 0.6730 -0.0163
-1 15 14 -2.9308 0.0180
-1 15 15 -1.4532 0.0089
-1 15 16 3.3432 0.0225
-1 15 17 -1.5895 -0.0096
-1 15 18 -4.2217 -0.0442
-1 15 19 0.3935 0.0184
-1 15 20 2.2251 0.0303
-1 15 21 1.5070 -0.0168
-1 15 22 -0.8151 -0.0314
-1 15 23 -1.8064 -0.0340
-1 15 24 0.6566 -0.0055
-1 15 25 1.2361 0.0346
-1 16 1 0.3730 0.3485
-1 16 2 -2.3113 0.2531
-1 16 3 -0.2436 0.0139
-1 16 4 1.2240 -0.0323
-1 16 5 0.1050 0.0393
-1 16 6 0.7066 0.0836
-1 16 7 0.8010 0.0701
-1 16 8 0.1200 0.0156
-1 16 9 0.2805 -0.0048
-1 16 10 0.7323 0.0427
-1 16 11 0.8717 0.0621
-1 16 12 1.2083 0.0526
-1 16 13 -1.4468 0.0448
-1 16 14 -5.6591 -0.0143
-1 16 15 -1.5184 -0.0103
-1 16 16 3.0452 0.0699
-1 16 17 -0.8151 0.0420
-1 16 18 -1.1187 0.0140
-1 16 19 2.4619 0.0201
-1 16 20 0.3173 -0.0665
-1 16 21 -3.1646 -0.0394
-1 16 22 -1.1132 0.0945
-1 16 23 2.1778 0.0557
-1 16 24 0.2766 -0.0586
-1 17 1 -0.0924 -0.0671
-1 17 2 -2.3174 0.2502
-1 17 3 -0.3050 0.1359
-1 17 4 1.8539 -0.1797
-1 17 5 0.7457 -0.0985
-1 17 6 -0.4440 0.1509
-1 17 7 -0.9830 0.1117
-1 17 8 -0.3911 -0.0112
-1 17 9 1.3801 0.0059
-1 17 10 4.0410 0.0087
-1 17 11 4.3459 -0.0319
-1 17 12 -0.4915 0.0122
-1 17 13 -6.7159 0.0489
-1 17 14 -5.3104 -0.0132
-1 17 15 4.2432 -0.0177
-1 17 16 6.2838 0.0338
-1 17 17 -2.7136 0.0040
-1 17 18 -7.0124 -0.0212
-1 17 19 -1.7739 -0.0203
-1 17 20 3.0822 -0.0064
-1 17 21 1.9966 0.0565
-1 17 22 -0.2286 0.0135
-1 18 1 2.6852 -0.3791
-1 18 2 0.9829 -0.0112
-1 18 3 0.0541 0.1293
-1 18 4 -0.6910 -0.1272
-1 18 5 -0.7395 -0.1369
-1 18 6 -0.4075 0.0483
-1 18 7 -1.4091 0.0403
-1 18 8 0.1615 -0.0195
-1 18 9 3.1915 -0.0159
-1 18 10 3.4456 -0.0445
-1 18 11 2.3976 -0.0641
-1 18 12 0.9448 -0.0225
-1 18 13 -1.8022 0.0123
-1 18 14 -0.4141 -0.0053
-1 18 15 4.4119 -0.0476
-1 18 16 0.6833 -0.0889
-1 18 17 -7.7040 -0.0658
-1 18 18 -5.2743 0.0254
-1 18 19 3.4503 0.0239
-1 18 20 3.8542 -0.0437
-1 18 21 -1.3606 -0.0611
-1 19 1 1.6732 -0.2096
-1 19 2 0.0028 -0.1345
-1 19 3 -0.2814 0.0653
-1 19 4 -1.1533 0.0439
-1 19 5 0.2256 -0.0586
-1 19 6 2.6840 -0.1065
-1 19 7 -0.8244 -0.0397
-1 19 8 -3.7984 0.0202
-1 19 9 0.4019 -0.0415
-1 19 10 5.5145 -0.0461
-1 19 11 6.0735 0.0099
-1 19 12 2.9252 -0.0174
-1 19 13 -1.4249 -0.0416
-1 19 14 -2.0490 -0.0311
-1 19 15 1.3445 -0.0445
-1 19 16 1.8149 -0.0333
-1 19 17 -0.5127 0.0057
-1 19 18 -0.5001 -0.0295
-1 19 19 -0.7007 -0.1186
-1 20 1 -0.2460 0.1959
-1 20 2 0.0756 -0.1167
-1 20 3 1.8845 -0.0596
-1 20 4 -0.3330 0.1686
-1 20 5 0.1153 0.0840
-1 20 6 1.9036 -0.1383
-1 20 7 -2.8978 -0.0542
-1 20 8 -2.2680 0.0385
-1 20 9 6.3251 -0.0157
-1 20 10 6.0628 0.0359
-1 20 11 -1.2690 0.0255
-1 20 12 -1.3878 -0.0719
-1 20 13 1.4947 -0.0263
-1 20 14 1.3032 0.0426
-1 20 15 3.4402 0.0602
-1 20 16 4.0089 0.0515
-1 20 17 -1.0917 -0.0463
-1 21 1 -0.9785 0.2935
-1 21 2 -1.3941 -0.0107
-1 21 3 1.0844 -0.1315
-1 21 4 -1.9706 0.1310
-1 21 5 -1.3114 0.1493
-1 21 6 2.6855 -0.0538
-1 21 7 1.0968 -0.0174
-1 21 8 0.6153 0.0110
-1 21 9 3.1013 0.0085
-1 21 10 1.0761 0.0701
-1 21 11 -1.5884 -0.0343
-1 21 12 1.8693 -0.0917
-1 21 13 3.8967 0.0203
-1 21 14 0.5748 0.0521
-1 22 1 -1.1746 0.0593
-1 22 2 0.0138 0.1395
-1 22 3 -0.4587 -0.0492
-1 22 4 -4.1005 -0.0402
-1 22 5 0.0348 -0.0006
-1 22 6 3.4263 0.0502
-1 22 7 -0.6128 0.0907
-1 22 8 -1.0782 -0.0735
-1 22 9 3.4718 -0.0667
-1 22 10 3.4209 0.0699
-1 22 11 -0.4845 -0.0380
-1 23 1 -0.4202 -0.1816
-1 23 2 -0.3042 0.1301
-1 23 3 -1.1030 0.0082
-1 23 4 -1.0035 -0.0976
-1 23 5 0.9604 -0.0806
-1 23 6 -1.3199 0.0276
0 -23 1 1.0824 0.3118
0 -23 2 -3.3083 -0.0928
0 -23 3 0.3374 -0.1993
0 -23 4 1.3265 0.0059
0 -23 5 0.5302 0.1730
0 -23 6 1.6507 -0.0246
0 -23 7 -0.7752 -0.1211
0 -23 8 -2.0735 0.0587
0 -23 9 -1.6902 0.0799
0 -22 1 0.5795 0.1813
0 -22 2 -0.9892 0.0152
0 -22 3 1.9924 -0.0289
0 -22 4 -0.4884 0.0209
0 -22 5 -0.8444 0.0892
0 -22 6 2.1574 -0.0085
0 -22 7 0.4310 -0.0184
0 -22 8 -1.7111 0.0419
0 -22 9 -2.1952 0.0372
0 -22 10 -1.4553 -0.0069
0 -22 11 -1.7642 -0.0901
0 -22 12 -2.4582 0.0508
0 -22 13 1.6908 0.1126
0 -21 1 -0.5539 -0.1034
0 -21 2 -1.5123 0.1588
0 -21 3 0.2299 0.2118
0 -21 4 -1.8714 0.0285
0 -21 5 0.5352 -0.0608
0 -21 6 2.9274 -0.0016
0 -21 7 0.5078 0.1097
0 -21 8 0.5290 0.0083
0 -21 9 0.5155 -0.0485
0 -21 10 -3.4599 0.0397
0 -21 11 -6.7388 -0.0077
0 -21 12 -2.2326 -0.0080
0 -21 13 5.2242 0.0253
0 -21 14 1.9768 0.0253
0 -21 15 -5.2776 0.0357
0 -21 16 -1.3557 -0.0785
0 -20 1 -2.0525 -0.2691
0 -20 2 0.4964 0.0645
0 -20 3 1.1686 0.1607
0 -20 4 -1.8572 0.0240
0 -20 5 -0.0087 -0.0857
0 -20 6 2.0454 -0.0261
0 -20 7 0.7943 0.0904
0 -20 8 0.0644 -0.0216
0 -20 9 -0.7235 -0.0415
0 -20 10 -2.1776 0.0755
0 -20 11 -2.1163 0.0242
0 -20 12 1.2308 -0.0500
0 -20 13 3.0117 -0.0248
0 -20 14 -2.0677 0.0685
0 -20 15 -6.1560 0.0344
0 -20 16 -1.2122 -0.1035
0 -20 17 2.1353 0.0199
0 -20 18 -0.5631 0.0871
0 -20 19 0.0264 -0.1607
0 -19 1 -0.5257 -0.1272
0 -19 2 1.2122 -0.1018
0 -19 3 1.3091 -0.1424
0 -19 4 -1.3852 -0.0166
0 -19 5 -0.8781 0.0136
0 -19 6 -0.5736 -0.0578
0 -19 7 -1.8285 -0.0123
0 -19 8 0.0351 0.0104
0 -19 9 2.8758 0.0028
0 -19 10 1.0445 -0.0083
0 -19 11 -1.4011 0.0113
0 -19 12 0.6210 -0.0058
0 -19 13 2.3112 -0.0917
0 -19 14 -0.4200 0.0258
0 -19 15 -3.5006 0.1233
0 -19 16 -2.3343 -0.0421
0 -19 17 -1.9131 -0.0335
0 -19 18 -2.1704 0.0440
0 -19 19 2.2222 -0.1172
0 -19 20 3.1772 -0.0607
0 -19 21 -1.0678 0.1338
0 -18 1 0.4583 0.1475
0 -18 2 2.2819 -0.1698
0 -18 3 1.9153 -0.3038
0 -18 4 -1.2666 0.0330
0 -18 5 -3.0224 0.1609
0 -18 6 -1.1179 -0.0482
0 -18 7 2.1992 -0.1196
0 -18 8 1.7514 0.0250
0 -18 9 -2.5874 0.0514
0 -18 10 -2.9176 -0.1086
0 -18 11 3.1754 -0.0336
0 -18 12 4.6435 0.1078
0 -18 13 0.2920 -0.0510
0 -18 14 -1.1120 -0.0748
0 -18 15 -0.9909 0.0785
0 -18 16 -1.1592 0.0159
0 -18 17 -2.0629 -0.0241
0 -18 18 -1.8011 0.0061
0 -18 19 2.1270 -0.0598
0 -18 20 1.7361 0.0339
0 -18 21 -3.6851 0.0941
0 -18 22 -2.9803 -0.1048
0 -17 1 1.4311 0.2756
0 -17 2 0.6693 0.0656
0 -17 3 0.7567 -0.0987
0 -17 4 0.1334 0.0450
0 -17 5 0.1766 0.1440
0 -17 6 1.5701 0.0256
0 -17 7 0.5787 -0.1011
0 -17 8 -2.8960 0.0231
0 -17 9 -4.1191 0.1046
0 -17 10 -0.3463 -0.1006
0 -17 11 3.8551 -0.0683
0 -17 12 1.8985 0.1547
0 -17 13 0.1214 0.0202
0 -17 14 1.0647 -0.1243
0 -17 15 -0.4236 0.0048
0 -17 16 -0.2434 0.0468
0 -17 17 -0.5873 0.0038
0 -17 18 -3.1949 -0.0179
0 -17 19 -1.0474 -0.0220
0 -17 20 1.7448 0.0728
0 -17 21 -0.8896 0.0243
0 -17 22 -1.9656 -0.1300
0 -17 23 2.2591 0.0271
0 -17 24 2.1251 0.1588
0 -16 1 0.8507 0.1076
0 -16 2 1.2529 0.2935
0 -16 3 1.9235 0.1792
0 -16 4 1.0436 -0.0874
0 -16 5 -1.5347 -0.0643
0 -16 6 -2.1614 0.1570
0 -16 7 0.4052 0.0752
0 -16 8 1.4827 -0.0460
0 -16 9 -1.9216 0.0679
0 -16 10 -2.5557 0.0549
0 -16 11 0.9262 -0.0332
0 -16 12 0.9689 0.0372
0 -16 13 1.0848 0.0497
0 -16 14 0.9891 -0.0298
0 -16 15 -1.7975 -0.0458
0 -16 16 -1.1496 0.0047
0 -16 17 -0.2899 0.0686
0 -16 18 -1.5951 -0.0166
0 -16 19 -0.3760 -0.1067
0 -16 20 1.6246 0.0687
0 -16 21 -0.2184 0.1280
0 -16 22 -2.3733 -0.0741
0 -16 23 0.5836 -0.0163
0 -16 24 1.0714 0.1173
0 -16 25 -2.5163 -0.0974
0 -15 1 2.7974 -0.2781
0 -15 2 1.2913 0.0922
0 -15 3 -1.9539 0.2482
0 -15 4 -3.1142 -0.1571
0 -15 5 -0.4658 -0.2825
0 -15 6 2.2859 0.1649
0 -15 7 0.9455 0.2238
0 -15 8 -1.9403 -0.1314
0 -15 9 -1.7689 -0.0658
0 -15 10 1.6060 0.1772
0 -15 11 0.2958 0.0463
0 -15 12 -3.9602 -0.1137
0 -15 13 -0.2149 -0.0050
0 -15 14 2.6530 0.0983
0 -15 15 -1.4715 0.0016
0 -15 16 -2.5248 -0.0811
0 -15 17 0.6367 0.0197
0 -15 18 1.9476 0.0555
0 -15 19 -1.1579 -0.0383
0 -15 20 -2.7625 0.0058
0 -15 21 -1.0334 0.0578
0 -15 22 -0.3795 -0.0455
0 -15 23 1.1740 -0.0009
0 -15 24 1.5959 0.0930
0 -15 25 -0.4963 -0.0528
0 -15 26 -1.4637 -0.0659
0 -14 1 3.0679 -0.4390
0 -14 2 0.3423 -0.3499
0 -14 3 -2.8423 0.1327
0 -14 4 -0.1939 0.0710
0 -14 5 2.1532 -0.2574
0 -14 6 -1.4477 -0.1050
0 -14 7 -2.5786 0.1034
0 -14 8 1.6497 -0.0606
0 -14 9 1.8038 -0.1072
0 -14 10 -1.5164 0.0683
0 -14 11 -4.1211 0.0504
0 -14 12 -2.8964 -0.0927
0 -14 13 2.9280 -0.0647
0 -14 14 3.7103 0.0722
0 -14 15 -1.0513 0.0600
0 -14 16 -2.8889 -0.0653
0 -14 17 0.5761 -0.0303
0 -14 18 1.8685 0.0748
0 -14 19 -4.2752 -0.0063
0 -14 20 -4.9311 -0.0808
0 -14 21 1.9314 0.0124
0 -14 22 3.7118 0.0510
0 -14 23 1.6156 0.0249
0 -14 24 -0.1202 0.0108
0 -14 25 -1.5115 -0.0386
0 -14 26 -2.3194 -0.0175
0 -14 27 -0.5944 0.0287
0 -13 1 4.3874 0.0369
0 -13 2 2.9590 -0.3918
0 -13 3 -2.4561 -0.0871
0 -13 4 -1.6183 0.2901
0 -13 5 1.7770 0.0357
0 -13 6 0.6628 -0.3045
0 -13 7 -0.1516 -0.1305
0 -13 8 -0.3832 0.1017
0 -13 9 -2.8264 -0.0160
0 -13 10 -1.5443 -0.1309
0 -13 11 0.1922 -0.0084
0 -13 12 -0.1714 0.0473
0 -13 13 1.5465 -0.0661
0 -13 14 1.9103 -0.0479
0 -13 15 -0.7372 0.0738
0 -13 16 -2.3585 0.0134
0 -13 17 0.7208 -0.0911
0 -13 18 1.6847 -0.0024
0 -13 19 -3.0992 0.0659
0 -13 20 -2.1187 -0.0140
0 -13 21 2.2323 -0.0314
0 -13 22 0.8899 0.0298
0 -13 23 -1.6403 0.0299
0 -13 24 -0.1034 -0.0301
0 -13 25 2.3156 -0.0407
0 -13 26 -1.0893 0.0078
0 -13 27 -2.2863 0.0154
0 -13 28 4.0099 -0.0192
0 -12 1 4.1667 0.6088
0 -12 2 0.3282 0.0815
0 -12 3 -5.1954 -0.2751
0 -12 4 0.9401 0.1397
0 -12 5 5.9550 0.3612
0 -12 6 -1.1157 -0.0806
0 -12 7 -3.0021 -0.2047
0 -12 8 2.3238 0.1258
0 -12 9 0.5725 0.0992
0 -12 10 -3.2343 -0.1467
0 -12 11 -2.5246 -0.0487
0 -12 12 0.6896 0.1068
0 -12 13 2.4546 -0.0144
0 -12 14 0.3244 -0.1060
0 -12 15 -2.3704 0.0211
0 -12 16 -0.5370 0.0777
0 -12 17 4.7917 -0.0372
0 -12 18 2.7432 -0.0377
0 -12 19 -4.0096 0.0635
0 -12 20 -2.8952 0.0282
0 -12 21 0.7336 -0.0504
0 -12 22 0.2131 -0.0138
0 -12 23 -1.7737 0.0280
0 -12 24 -0.1668 -0.0097
0 -12 25 2.2187 -0.0253
0 -12 26 -1.7834 0.0023
0 -12 27 -0.9507 0.0294
0 -12 28 5.9019 -0.0058
0 -12 29 3.6371 -0.0983
0 -11 1 -0.2944 0.3629
0 -11 2 -1.7649 0.4691
0 -11 3 -3.6789 -0.1540
0 -11 4 1.8520 -0.1443
0 -11 5 3.9828 0.3101
0 -11 6 -1.7409 0.2309
0 -11 7 0.2370 -0.0285
0 -11 8 3.5610 0.0124
0 -11 9 -2.0417 0.0671
0 -11 10 -4.1062 0.0023
0 -11 11 -0.3873 -0.0145
0 -11 12 0.7453 0.0322
0 -11 13 -0.3086 0.0465
0 -11 14 -0.7167 -0.0202
0 -11 15 -0.6373 -0.0231
0 -11 16 2.0464 0.0669
0 -11 17 3.9128 0.0420
0 -11 18 -0.8130 -0.0374
0 -11 19 -2.5313 -0.0038
0 -11 20 -0.0535 0.0324
0 -11 21 -1.4385 -0.0092
0 -11 22 -1.3584 -0.0077
0 -11 23 -0.1183 0.0231
0 -11 24 0.9093 -0.0031
0 -11 25 1.6218 -0.0238
0 -11 26 -2.9521 0.0016
0 -11 27 -3.9744 0.0400
0 -11 28 1.9488 -0.0115
0 -11 29 5.5691 -0.0930
0 -11 30 4.4256 -0.0392
0 -10 1 1.9737 -0.4459
0 -10 2 -1.0352 0.3395
0 -10 3 -6.8422 0.1793
0 -10 4 -1.9285 -0.2383
0 -10 5 4.0814 -0.1107
0 -10 6 -0.2846 0.2207
0 -10 7 -1.1450 0.1446
0 -10 8 2.1367 -0.1095
0 -10 9 0.1846 -0.0403
0 -10 10 -1.6049 0.1173
0 -10 11 -0.6275 0.0211
0 -10 12 -0.9637 -0.0366
0 -10 13 -0.8880 0.0811
0 -10 14 -0.1653 0.0408
0 -10 15 -1.1623 -0.0654
0 -10 16 0.7458 0.0127
0 -10 17 2.2625 0.0758
0 -10 18 -1.1402 -0.0070
0 -10 19 -1.3653 -0.0419
0 -10 20 -0.9773 0.0275
0 -10 21 -0.8244 0.0390
0 -10 22 2.8232 -0.0054
0 -10 23 0.0988 -0.0116
0 -10 24 -3.8709 0.0136
0 -10 25 -1.5478 -0.0000
0 -10 26 -1.5487 -0.0363
0 -10 27 -1.6249 0.0141
0 -10 28 1.9705 0.0374
0 -10 29 4.2338 -0.0413
0 -10 30 2.0366 -0.0557
0 -10 31 -0.8614 0.0126
0 -9 1 0.6575 -0.6720
0 -9 2 -0.0010 -0.0896
0 -9 3 -3.4179 0.2608
0 -9 4 -3.1391 -0.1481
0 -9 5 -0.5966 -0.4093
0 -9 6 -1.5552 0.0008
0 -9 7 0.2010 0.1411
0 -9 8 2.6712 -0.1271
0 -9 9 0.5199 -0.0927
0 -9 10 -0.0927 0.0926
0 -9 11 1.2989 0.0141
0 -9 12 -1.0401 -0.0687
0 -9 13 -2.0973 0.0213
0 -9 14 -0.9369 0.0448
0 -9 15 -1.7267 -0.0352
0 -9 16 0.1649 -0.0516
0 -9 17 0.9452 0.0271
0 -9 18 -1.2943 0.0330
0 -9 19 0.1432 -0.0328
0 -9 20 -0.1970 -0.0045
0 -9 21 -0.8786 0.0443
0 -9 22 0.9060 0.0114
0 -9 23 -2.3105 -0.0312
0 -9 24 -3.1985 -0.0043
0 -9 25 1.3110 0.0161
0 -9 26 1.7062 -0.0243
0 -9 27 -1.0970 -0.0217
0 -9 28 -1.4977 0.0220
0 -9 29 1.2943 0.0260
0 -9 30 2.1580 -0.0129
0 -9 31 0.5901 -0.0112
0 -8 1 1.4248 -0.0506
0 -8 2 10.9703 -0.4313
0 -8 3 3.0246 -0.0078
0 -8 4 -9.6673 0.0337
0 -8 5 -4.8438 -0.2301
0 -8 6 4.0677 -0.1012
0 -8 7 1.4308 0.0135
0 -8 8 -3.6577 -0.0494
0 -8 9 -0.7936 -0.0511
0 -8 10 5.9966 -0.0094
0 -8 11 4.7536 -0.0042
0 -8 12 -3.6049 -0.0321
0 -8 13 -3.6952 -0.0518
0 -8 14 1.0457 0.0105
0 -8 15 -0.2534 0.0272
0 -8 16 -1.5934 -0.0753
0 -8 17 -0.6412 -0.0531
0 -8 18 0.5784 0.0393
0 -8 19 0.1938 0.0163
0 -8 20 -2.6095 -0.0237
0 -8 21 -0.0424 -0.0032
0 -8 22 1.9924 0.0153
0 -8 23 -3.5017 -0.0219
0 -8 24 -3.0375 -0.0205
0 -8 25 3.2787 0.0254
0 -8 26 3.2792 -0.0054
0 -8 27 -0.8691 -0.0498
0 -8 28 -1.4057 0.0146
0 -8 29 0.2638 0.0520
0 -8 30 -0.1082 -0.0507
0 -8 31 1.2414 -0.0323
0 -8 32 2.1383 0.0859
0 -7 1 2.0530 0.5804
0 -7 2 16.0176 -0.3901
0 -7 3 7.1786 -0.2048
0 -7 4 -9.8614 0.2085
0 -7 5 -3.6718 0.1418
0 -7 6 5.9929 -0.1057
0 -7 7 -1.8727 -0.0809
0 -7 8 -6.9881 0.1204
0 -7 9 2.4852 0.0419
0 -7 10 9.3827 -0.1017
0 -7 11 0.8230 -0.0030
0 -7 12 -6.6207 0.0517
0 -7 13 1.7446 -0.0586
0 -7 14 5.9950 -0.0180
0 -7 15 -2.9672 0.0633
0 -7 16 -6.2199 -0.0393
0 -7 17 0.1373 -0.0732
0 -7 18 3.9087 0.0195
0 -7 19 -0.0232 0.0461
0 -7 20 -2.9689 -0.0264
0 -7 21 0.5501 -0.0484
0 -7 22 0.1629 0.0188
0 -7 23 -2.7128 0.0117
0 -7 24 0.4717 -0.0351
0 -7 25 2.0554 0.0041
0 -7 26 0.1628 0.0373
0 -7 27 1.0142 -0.0351
0 -7 28 2.1490 -0.0608
0 -7 29 -0.8663 0.0122
0 -7 30 -1.8953 0.0263
0 -7 31 2.9582 0.0226
0 -7 32 2.3823 -0.0009
0 -6 1 -3.6556 0.6094
0 -6 2 16.3505 -0.0539
0 -6 3 8.2071 -0.1297
0 -6 4 -10.7824 0.2630
0 -6 5 -1.9514 0.2948
0 -6 6 12.5467 -0.1341
0 -6 7 2.0072 -0.1048
0 -6 8 -12.6856 0.2105
0 -6 9 -4.2994 0.0996
0 -6 10 10.5963 -0.1022
0 -6 11 3.8623 -0.0143
0 -6 12 -6.2112 0.1104
0 -6 13 1.0059 0.0312
0 -6 14 4.6018 -0.0405
0 -6 15 -2.7711 0.0153
0 -6 16 -4.4889 0.0483
0 -6 17 0.7819 -0.0136
0 -6 18 2.7819 -0.0494
0 -6 19 -0.8213 0.0328
0 -6 20 -1.5216 0.0397
0 -6 21 1.6417 -0.0359
0 -6 22 0.2449 -0.0163
0 -6 23 -1.9509 0.0273
0 -6 24 -0.5977 -0.0034
0 -6 25 0.7948 -0.0241
0 -6 26 2.2690 0.0074
0 -6 27 2.4522 -0.0117
0 -6 28 0.6002 -0.0240
0 -6 29 -1.4643 0.0059
0 -6 30 -0.4378 -0.0048
0 -6 31 2.0400 0.0123
0 -6 32 -0.3147 0.0081
0 -5 1 -8.0703 0.1178
0 -5 2 -0.0124 0.4069
0 -5 3 -1.4183 0.0750
0 -5 4 -3.4442 -0.0423
0 -5 5 6.9327 0.1030
0 -5 6 12.6953 0.0084
0 -5 7 -1.2163 -0.0295
0 -5 8 -15.0158 -0.0119
0 -5 9 -1.5243 0.0414
0 -5 10 14.7866 0.0817
0 -5 11 0.0232 -0.0113
0 -5 12 -12.2620 -0.0077
0 -5 13 0.9810 0.0514
0 -5 14 7.2853 -0.0081
0 -5 15 -1.5496 -0.0336
0 -5 16 -4.9849 0.0684
0 -5 17 -0.1419 0.0598
0 -5 18 2.4333 -0.0422
0 -5 19 -0.1188 -0.0107
0 -5 20 -0.9372 0.0400
0 -5 21 0.4736 0.0115
0 -5 22 -0.1731 -0.0135
0 -5 23 -0.1779 0.0145
0 -5 24 0.6712 0.0180
0 -5 25 1.4258 -0.0275
0 -5 26 2.1738 -0.0199
0 -5 27 0.7033 0.0156
0 -5 28 -0.7483 0.0090
0 -5 29 -1.7063 -0.0468
0 -5 30 -1.1632 -0.0143
0 -5 31 1.4114 0.1149
0 -5 32 1.7236 0.0356
0 -5 33 1.2628 -0.1545
0 -4 1 -13.9209 -0.4588
0 -4 2 -26.4448 0.4933
0 -4 3 -9.8312 0.0782
0 -4 4 8.6618 -0.3390
0 -4 5 2.8269 -0.0359
0 -4 6 -0.9269 0.2435
0 -4 7 7.4634 0.0708
0 -4 8 1.4549 -0.2614
0 -4 9 -3.2389 -0.0799
0 -4 10 3.5512 0.1566
0 -4 11 -1.9551 -0.0378
0 -4 12 -6.4952 -0.1374
0 -4 13 1.7652 0.0205
0 -4 14 3.8244 0.0623
0 -4 15 -1.1677 -0.0258
0 -4 16 -2.5608 0.0044
0 -4 17 -0.9666 0.0443
0 -4 18 0.4553 -0.0063
0 -4 19 0.4793 -0.0335
0 -4 20 -0.3226 0.0055
0 -4 21 -0.5531 0.0422
0 -4 22 0.3726 0.0044
0 -4 23 0.8594 -0.0047
0 -4 24 -0.0831 0.0201
0 -4 25 2.4379 -0.0101
0 -4 26 4.4633 -0.0376
0 -4 27 -1.2648 0.0079
0 -4 28 -5.8566 0.0503
0 -4 29 -3.0427 -0.0230
0 -4 30 2.5749 -0.0365
0 -4 31 3.9387 0.0710
0 -4 32 -0.5038 0.0388
0 -4 33 -3.2710 -0.0712
0 -3 1 -5.7555 -1.0531
0 -3 2 -57.3859 0.0317
0 -3 3 -27.5936 0.2608
0 -3 4 17.5823 0.0051
0 -3 5 2.2221 -0.1252
0 -3 6 -10.2188 0.0441
0 -3 7 12.2958 0.1009
0 -3 8 8.1852 -0.1482
0 -3 9 -7.9685 -0.1566
0 -3 10 0.1346 0.0042
0 -3 11 4.4273 0.0347
0 -3 12 -1.2610 -0.0392
0 -3 13 -0.9318 -0.0413
0 -3 14 0.4657 0.0206
0 -3 15 -0.3936 -0.0177
0 -3 16 -0.3756 -0.0608
0 -3 17 -0.4801 -0.0078
0 -3 18 -0.0200 0.0500
0 -3 19 0.4535 -0.0074
0 -3 20 -0.8495 -0.0514
0 -3 21 -0.7861 0.0108
0 -3 22 1.5557 0.0232
0 -3 23 0.9361 -0.0103
0 -3 24 -1.0270 0.0033
0 -3 25 2.6984 0.0244
0 -3 26 3.7348 -0.0149
0 -3 27 -2.4378 -0.0229
0 -3 28 -3.9890 0.0201
0 -3 29 -1.4460 -0.0051
0 -3 30 -0.7996 -0.0187
0 -3 31 -0.5789 0.0198
0 -3 32 -0.8086 0.0274
0 -3 33 -2.0092 0.0205
0 -2 1 3.2404 -0.4143
0 -2 2 -78.9981 0.0664
0 -2 3 -30.5631 0.0857
0 -2 4 37.2323 0.0403
0 -2 5 -3.5678 -0.1757
0 -2 6 -38.6721 -0.1901
0 -2 7 5.7350 0.0739
0 -2 8 23.1279 0.1856
0 -2 9 -2.5358 -0.0202
0 -2 10 -4.8319 -0.1484
0 -2 11 4.9202 0.0498
0 -2 12 1.4335 0.0709
0 -2 13 -1.8929 -0.0649
0 -2 14 0.0031 -0.0260
0 -2 15 1.2775 0.0238
0 -2 16 1.0781 -0.0413
0 -2 17 -0.6142 -0.0676
0 -2 18 -0.5233 0.0243
0 -2 19 0.6345 0.0477
0 -2 20 -0.1911 -0.0184
0 -2 21 0.3062 -0.0386
0 -2 22 1.6644 -0.0077
0 -2 23 -0.7437 0.0048
0 -2 24 -1.7711 -0.0064
0 -2 25 2.6427 0.0054
0 -2 26 2.7358 0.0063
0 -2 27 -0.3054 -0.0096
0 -2 28 -0.7909 -0.0208
0 -2 29 -4.6160 0.0103
0 -2 30 -5.4451 0.0300
0 -2 31 1.3418 -0.0413
0 -2 32 1.8840 -0.0388
0 -2 33 -5.4633 0.0533
0 -1 2 -71.8649 -0.1977
0 -1 3 -20.1855 -0.6697
0 -1 4 39.8752 0.0437
0 -1 5 -21.8215 0.2745
0 -1 6 -52.1013 -0.1242
0 -1 7 12.2823 -0.1651
0 -1 8 27.7740 0.2065
0 -1 9 -10.0525 0.1550
0 -1 10 -8.4989 -0.0977
0 -1 11 8.3743 -0.0088
0 -1 12 1.7068 0.0629
0 -1 13 -2.5614 0.0235
0 -1 14 1.5270 0.0069
0 -1 15 1.5091 0.0070
0 -1 16 0.2740 -0.0097
0 -1 17 -0.7118 -0.0311
0 -1 18 -0.2638 0.0069
0 -1 19 1.0103 0.0387
0 -1 20 0.9334 0.0082
0 -1 21 1.2978 -0.0322
0 -1 22 0.4873 -0.0167
0 -1 23 -2.5984 -0.0082
0 -1 24 -0.7787 -0.0258
0 -1 25 3.6329 0.0050
0 -1 26 0.6343 0.0478
0 -1 27 -1.3411 0.0070
0 -1 28 0.5617 -0.0560
0 -1 29 -1.8734 0.0217
0 -1 30 -1.7335 0.0494
0 -1 31 0.7122 -0.0724
0 -1 32 -3.9246 -0.0696
0 -1 33 -8.0106 0.0249
0 0 3 -6.1631 -0.2471
0 0 4 45.9876 0.0288
0 0 5 -23.2199 0.1587
0 0 6 -54.2557 -0.0033
0 0 7 8.3799 -0.1563
0 0 8 22.7530 0.0082
0 0 9 -12.7053 0.1176
0 0 10 -8.5634 0.0616
0 0 11 8.5511 -0.0004
0 0 12 1.7810 0.0065
0 0 13 -2.0137 0.0629
0 0 14 1.0095 0.0121
0 0 15 -0.2605 -0.0003
0 0 16 -1.6950 0.0566
0 0 17 -0.2610 0.0223
0 0 18 2.8410 -0.0438
0 0 19 1.7415 -0.0115
0 0 20 -1.6618 0.0476
0 0 21 -0.1029 0.0103
0 0 22 1.7357 -0.0287
0 0 23 -0.4488 -0.0028
0 0 24 0.0779 0.0125
0 0 25 0.1350 -0.0066
0 0 26 -3.2991 0.0227
0 0 27 1.0690 0.0277
0 0 28 5.5299 -0.0246
0 0 29 0.5369 0.0016
0 0 30 -2.1775 -0.0035
0 0 31 -1.7317 -0.0268
0 0 32 -3.5991 0.0164
0 0 33 -3.2226 0.0079
0 1 0 107.2419 -0.3721
0 1 2 -35.6081 0.4506
0 1 3 18.4695 0.2778
0 1 4 50.6698 -0.2671
0 1 5 -23.0568 -0.2431
0 1 6 -45.6230 0.2208
0 1 7 9.2687 0.1472
0 1 8 13.7756 -0.1386
0 1 9 -15.3844 -0.0696
0 1 10 -2.3863 0.1180
0 1 11 12.0422 0.0393
0 1 12 -1.8381 -0.0248
0 1 13 -7.2778 0.0217
0 1 14 0.2009 -0.0082
0 1 15 3.0847 0.0012
0 1 16 0.7816 0.0451
0 1 17 -0.5596 0.0381
0 1 18 -0.3505 -0.0195
0 1 19 -0.7170 -0.0357
0 1 20 1.1221 0.0176
0 1 21 3.3768 0.0333
0 1 22 0.9076 0.0044
0 1 23 -2.5127 0.0115
0 1 24 -1.2421 0.0151
0 1 25 -0.4275 -0.0293
0 1 26 0.0982 -0.0033
0 1 27 3.3636 0.0307
0 1 28 0.5402 0.0181
0 1 29 -1.8389 0.0027
0 1 30 3.6749 -0.0302
0 1 31 3.8941 0.0305
0 1 32 -1.8662 0.0623
0 1 33 -3.2798 -0.0185
0 2 0 80.3456 0.5592
0 2 1 36.2789 -0.4032
0 2 2 -12.6607 -0.4421
0 2 3 26.7151 0.3004
0 2 4 43.1657 0.0647
0 2 5 -9.7672 -0.1829
0 2 6 -26.8680 0.1391
0 2 7 5.0257 0.1663
0 2 8 9.4060 -0.1045
0 2 9 -5.4524 -0.0839
0 2 10 -0.6522 0.0483
0 2 11 2.3038 -0.0119
0 2 12 -4.0626 -0.0184
0 2 13 -1.3953 -0.0140
0 2 14 4.2788 -0.0345
0 2 15 2.4192 -0.0121
0 2 16 -2.5586 -0.0046
0 2 17 -2.3057 0.0312
0 2 18 0.9915 0.0223
0 2 19 2.6640 -0.0346
0 2 20 2.3749 -0.0180
0 2 21 0.2024 0.0211
0 2 22 -0.3836 -0.0103
0 2 23 1.1127 -0.0138
0 2 24 0.6205 0.0148
0 2 25 -2.4330 0.0025
0 2 26 -1.6602 0.0073
0 2 27 1.7324 -0.0037
0 2 28 1.7733 -0.0017
0 2 29 3.2081 -0.0023
0 2 30 3.3907 0.0053
0 2 31 0.1190 0.0589
0 2 32 0.7432 -0.0065
0 2 33 1.6052 -0.0405
0 3 0 42.5196 0.9733
0 3 1 18.7404 -0.6413
0 3 2 -1.4253 -0.8256
0 3 3 26.5487 0.1925
0 3 4 32.0392 0.3325
0 3 5 -0.1345 -0.0513
0 3 6 -8.6734 -0.1193
0 3 7 8.6184 0.0007
0 3 8 6.4032 0.0281
0 3 9 -6.8405 0.0182
0 3 10 -2.8293 -0.0510
0 3 11 4.3685 -0.0698
0 3 12 2.0552 -0.0038
0 3 13 -1.6905 -0.0370
0 3 14 -1.6341 -0.0143
0 3 15 -0.3125 0.0087
0 3 16 1.3091 -0.0527
0 3 17 2.4104 -0.0195
0 3 18 -0.6665 0.0302
0 3 19 -1.0437 -0.0139
0 3 20 2.7491 -0.0422
0 3 21 2.5585 -0.0129
0 3 22 0.7178 -0.0127
0 3 23 0.4823 -0.0046
0 3 24 -0.3958 0.0074
0 3 25 -1.5398 0.0052
0 3 26 -0.4403 -0.0132
0 3 27 0.6747 -0.0425
0 3 28 1.7307 0.0092
0 3 29 2.8529 0.0117
0 3 30 0.0294 -0.0126
0 3 31 0.8628 0.0041
0 3 32 5.5267 -0.0235
0 3 33 2.4606 0.0232
0 4 0 4.3607 1.0930
0 4 1 6.1572 0.2428
0 4 2 7.5516 -0.4127
0 4 3 13.7637 -0.2027
0 4 4 14.1842 0.1578
0 4 5 9.1492 0.1061
0 4 6 3.5365 -0.1165
0 4 7 0.9177 -0.0902
0 4 8 0.6195 0.0227
0 4 9 2.4018 0.0261
0 4 10 2.6551 -0.0381
0 4 11 -0.3699 0.0074
0 4 12 -2.0312 0.0126
0 4 13 -2.3942 -0.0621
0 4 14 -1.0815 0.0049
0 4 15 1.0916 0.0258
0 4 16 2.2450 -0.0508
0 4 17 0.1415 -0.0466
0 4 18 -3.4894 0.0145
0 4 19 -0.1571 0.0176
0 4 20 3.6961 -0.0191
0 4 21 1.1947 -0.0160
0 4 22 0.1437 0.0039
0 4 23 1.4803 0.0000
0 4 24 0.9606 -0.0323
0 4 25 -1.0324 -0.0048
0 4 26 -3.3287 0.0025
0 4 27 -2.5119 -0.0361
0 4 28 4.4487 -0.0147
0 4 29 5.9841 -0.0225
0 4 30 -2.2095 0.0191
0 4 31 -2.4305 0.0478
0 4 32 3.8321 -0.0277
0 5 0 -10.3943 0.4219
0 5 1 -1.8839 0.6203
0 5 2 3.3481 0.2601
0 5 3 2.4738 -0.1826
0 5 4 6.1797 -0.0496
0 5 5 6.5031 0.1136
0 5 6 -1.1418 0.0015
0 5 7 -1.6326 -0.0453
0 5 8 5.4871 0.0120
0 5 9 5.4784 0.0283
0 5 10 -3.1454 0.0116
0 5 11 -4.0098 0.0523
0 5 12 2.1130 0.0184
0 5 13 1.2343 -0.0219
0 5 14 -2.3984 0.0109
0 5 15 -2.7917 0.0183
0 5 16 -0.5111 0.0165
0 5 17 0.4226 -0.0122
0 5 18 -1.2454 -0.0042
0 5 19 -0.1196 0.0363
0 5 20 1.1048 0.0217
0 5 21 0.2509 -0.0064
0 5 22 0.1442 0.0119
0 5 23 0.0879 0.0075
0 5 24 0.1018 -0.0337
0 5 25 -0.5910 0.0041
0 5 26 -3.0819 0.0007
0 5 27 -1.5996 -0.0248
0 5 28 4.4510 0.0173
0 5 29 2.5719 0.0213
0 5 30 -3.4040 0.0135
0 5 31 -0.3671 -0.0367
0 5 32 2.7137 -0.0309
0 6 0 -11.3189 -0.6751
0 6 1 3.4663 0.3058
0 6 2 3.4018 0.6102
0 6 3 -10.0232 0.0215
0 6 4 -5.2685 -0.1319
0 6 5 7.0350 0.0530
0 6 6 3.5167 0.0764
0 6 7 -6.5331 0.0068
0 6 8 -3.5218 0.0059
0 6 9 4.2279 0.0280
0 6 10 1.1511 0.0275
0 6 11 -0.5918 0.0260
0 6 12 1.8588 0.0266
0 6 13 -0.8939 0.0586
0 6 14 -3.1558 0.0053
0 6 15 -1.6289 -0.0128
0 6 16 1.0495 0.0659
0 6 17 0.8475 0.0369
0 6 18 -1.6710 -0.0041
0 6 19 -0.8039 0.0240
0 6 20 0.9234 0.0258
0 6 21 -0.0433 -0.0060
0 6 22 -1.3026 0.0141
0 6 23 -0.5715 0.0276
0 6 24 0.6994 -0.0007
0 6 25 -0.9181 0.0125
0 6 26 -4.0093 0.0066
0 6 27 -1.4720 0.0158
0 6 28 4.0180 0.0170
0 6 29 1.9815 -0.0068
0 6 30 -1.8439 -0.0062
0 6 31 -0.6761 -0.0319
0 6 32 -0.4383 0.0256
0 7 0 -1.4887 -1.1849
0 7 1 6.9071 -0.2299
0 7 2 -1.3789 0.4686
0 7 3 -10.5796 0.1062
0 7 4 -0.5832 -0.2304
0 7 5 6.6703 -0.0954
0 7 6 -3.3113 0.0848
0 7 7 -11.8137 0.0184
0 7 8 -1.6117 -0.0494
0 7 9 7.2525 0.0027
0 7 10 -0.2441 0.0364
0 7 11 -3.8029 -0.0229
0 7 12 0.0295 -0.0148
0 7 13 1.6622 0.0641
0 7 14 2.1418 0.0006
0 7 15 0.1857 -0.0239
0 7 16 -1.3513 0.0424
0 7 17 -0.0286 0.0336
0 7 18 0.7688 -0.0101
0 7 19 0.8358 -0.0192
0 7 20 0.8332 0.0128
0 7 21 0.0324 0.0137
0 7 22 -0.6930 0.0129
0 7 23 -0.2709 0.0138
0 7 24 -0.2971 -0.0062
0 7 25 -2.4238 -0.0015
0 7 26 -3.5922 0.0296
0 7 27 0.7742 0.0422
0 7 28 4.0811 -0.0259
0 7 29 -0.3935 -0.0213
0 7 30 -2.9809 0.0103
0 7 31 0.1672 -0.0344
0 8 0 0.3271 -0.5823
0 8 1 9.4534 -0.4290
0 8 2 5.0710 -0.0284
0 8 3 -5.0438 0.0155
0 8 4 -5.0053 -0.1835
0 8 5 1.2142 -0.1838
0 8 6 1.2959 -0.0062
0 8 7 -4.5799 0.0351
0 8 8 -2.8219 -0.0351
0 8 9 0.0877 -0.0728
0 8 10 -2.4396 -0.0266
0 8 11 -0.6147 -0.0217
0 8 12 1.9447 -0.0409
0 8 13 1.8945 -0.0217
0 8 14 1.5292 -0.0131
0 8 15 -0.9398 -0.0145
0 8 16 -0.4364 -0.0322
0 8 17 3.0226 0.0033
0 8 18 1.8622 0.0037
0 8 19 -0.6206 -0.0426
0 8 20 1.1086 -0.0056
0 8 21 2.4929 0.0021
0 8 22 0.4000 -0.0251
0 8 23 -1.2974 -0.0137
0 8 24 -0.6268 -0.0040
0 8 25 -0.9082 -0.0087
0 8 26 -2.0190 0.0149
0 8 27 -0.0698 0.0042
0 8 28 0.6770 -0.0289
0 8 29 -1.4093 0.0541
0 8 30 -0.0736 0.0145
0 8 31 1.9106 -0.1099
0 9 0 4.2803 0.5390
0 9 1 7.2903 -0.2379
0 9 2 2.4020 -0.4823
0 9 3 -2.5049 -0.0139
0 9 4 -1.9353 0.1670
0 9 5 2.6164 -0.0377
0 9 6 1.9333 -0.1352
0 9 7 -3.8474 -0.0117
0 9 8 -2.5369 0.0554
0 9 9 0.4783 -0.0466
0 9 10 0.0564 -0.0640
0 9 11 0.1351 -0.0096
0 9 12 -1.5057 -0.0374
0 9 13 -0.7495 -0.0709
0 9 14 2.6615 -0.0019
0 9 15 0.9823 0.0049
0 9 16 -0.7377 -0.0658
0 9 17 1.8441 -0.0113
0 9 18 2.3506 0.0082
0 9 19 0.8010 -0.0246
0 9 20 0.7318 -0.0054
0 9 21 0.6671 -0.0414
0 9 22 0.0544 -0.0484
0 9 23 0.7729 0.0137
0 9 24 1.8008 0.0087
0 9 25 -0.8992 -0.0329
0 9 26 -3.4278 -0.0021
0 9 27 -0.9578 -0.0092
0 9 28 -0.0566 -0.0030
0 9 29 -0.8937 0.0921
0 9 30 0.9367 -0.0223
0 10 0 -0.7318 0.9280
0 10 1 -1.1528 0.1541
0 10 2 3.0664 -0.4007
0 10 3 3.2381 0.0395
0 10 4 -2.0962 0.4139
0 10 5 -0.7297 0.1752
0 10 6 2.6024 -0.1478
0 10 7 0.2265 -0.0507
0 10 8 -1.1113 0.1286
0 10 9 -0.6767 0.0574
0 10 10 0.2347 -0.0114
0 10 11 0.4410 0.0162
0 10 12 -1.7495 -0.0111
0 10 13 -0.2785 -0.0359
0 10 14 2.4158 0.0383
0 10 15 -0.6474 0.0197
0 10 16 -1.5523 -0.0438
0 10 17 2.6390 0.0088
0 10 18 3.4197 0.0184
0 10 19 0.3290 -0.0017
0 10 20 -1.6139 -0.0073
0 10 21 -0.5742 -0.0210
0 10 22 0.9188 0.0156
0 10 23 1.7332 0.0228
0 10 24 1.9779 -0.0282
0 10 25 -1.3826 0.0008
0 10 26 -2.9667 0.0629
0 10 27 0.0650 -0.0456
0 10 28 -0.7901 -0.0806
0 10 29 -2.1932 0.1013
0 11 0 -3.7434 0.3308
0 11 1 -2.7157 0.4077
0 11 2 4.6679 0.0673
0 11 3 3.0887 -0.0354
0 11 4 -4.6371 0.1226
0 11 5 -1.4159 0.2020
0 11 6 4.1658 0.0822
0 11 7 0.9908 -0.0052
0 11 8 -2.7405 0.0171
0 11 9 -1.2427 0.0738
0 11 10 2.2455 0.0751
0 11 11 1.5004 0.0402
0 11 12 -2.5527 0.0349
0 11 13 -1.3751 0.0192
0 11 14 1.7996 0.0035
0 11 15 0.6006 0.0151
0 11 16 -0.3967 0.0479
0 11 17 0.1529 0.0245
0 11 18 1.4449 -0.0119
0 11 19 1.8131 0.0388
0 11 20 -0.5102 0.0416
0 11 21 -0.1759 -0.0040
0 11 22 0.7990 0.0063
0 11 23 -0.1302 0.0287
0 11 24 0.9912 0.0297
0 11 25 0.1686 0.0363
0 11 26 -1.5526 0.0195
0 11 27 -0.9802 -0.0813
0 11 28 -2.0127 -0.0415
0 12 0 -2.3511 -0.4259
0 12 1 -4.4228 0.1729
0 12 2 2.4704 0.3183
0 12 3 1.7899 -0.1082
0 12 4 -4.1030 -0.3226
0 12 5 -1.3317 -0.0255
0 12 6 3.3498 0.2326
0 12 7 1.0767 0.0750
0 12 8 -2.1247 -0.1250
0 12 9 -0.6892 -0.0357
0 12 10 1.1457 0.0478
0 12 11 -1.4591 0.0263
0 12 12 -2.7022 0.0368
0 12 13 1.4860 0.0041
0 12 14 1.7938 -0.0313
0 12 15 -1.5736 0.0216
0 12 16 -1.8679 0.0522
0 12 17 -0.9106 0.0050
0 12 18 2.7621 0.0060
0 12 19 3.1230 0.0209
0 12 20 -1.3797 -0.0095
0 12 21 1.0338 0.0198
0 12 22 1.9187 0.0513
0 12 23 -2.4108 0.0258
0 12 24 0.1758 -0.0229
0 12 25 1.9502 -0.0332
0 12 26 -1.8360 0.0544
0 12 27 -2.5531 0.0629
0 12 28 -0.4919 -0.0154
0 13 0 -1.9340 -0.5097
0 13 1 -3.4894 -0.2638
0 13 2 1.3630 0.1309
0 13 3 0.6264 -0.0182
0 13 4 -3.2436 -0.3142
0 13 5 -0.4683 -0.1900
0 13 6 4.0128 0.0710
0 13 7 1.1270 0.0059
0 13 8 -3.2928 -0.1044
0 13 9 -1.2872 -0.0554
0 13 10 0.5777 -0.0847
0 13 11 -2.6616 -0.0758
0 13 12 -1.6833 0.0373
0 13 13 2.0917 0.0253
0 13 14 -1.5562 -0.0506
0 13 15 -2.4750 -0.0417
0 13 16 0.6966 -0.0136
0 13 17 -1.0294 -0.0018
0 13 18 0.6441 0.0086
0 13 19 0.7358 -0.0161
0 13 20 -2.3392 -0.0145
0 13 21 3.2427 -0.0020
0 13 22 3.7442 -0.0348
0 13 23 -2.8928 0.0112
0 13 24 -1.0342 0.0379
0 13 25 1.1360 -0.0285
0 13 26 -1.1653 0.0026
0 13 27 -0.8748 0.0161
0 14 0 0.5952 -0.0615
0 14 1 -1.5707 -0.2971
0 14 2 -0.7279 -0.0429
0 14 3 0.3948 0.1421
0 14 4 0.2917 0.0173
0 14 5 0.6813 -0.1318
0 14 6 0.8016 -0.1548
0 14 7 -1.7745 -0.0869
0 14 8 -1.9816 0.0322
0 14 9 1.8309 0.0087
0 14 10 0.4885 -0.0968
0 14 11 -5.1136 -0.0603
0 14 12 -1.4210 -0.0202
0 14 13 3.6149 -0.0246
0 14 14 -2.0607 0.0138
0 14 15 -2.7405 -0.0192
0 14 16 0.7293 -0.0662
0 14 17 -1.7843 0.0004
0 14 18 -1.0358 0.0089
0 14 19 -1.3673 -0.0687
0 14 20 -1.3943 -0.0327
0 14 21 4.9180 0.0139
0 14 22 2.1529 -0.0218
0 14 23 -4.2606 0.0036
0 14 24 -0.6907 -0.0112
0 14 25 1.6228 -0.0649
0 14 26 -0.6158 0.0124
0 15 0 0.8897 0.2776
0 15 1 -1.6955 0.0628
0 15 2 -0.5792 -0.0114
0 15 3 1.6809 0.1055
0 15 4 -0.5835 0.1978
0 15 5 -1.8737 0.0685
0 15 6 0.4844 -0.1258
0 15 7 0.3677 -0.0512
0 15 8 -0.7142 0.1098
0 15 9 0.3263 0.0474
0 15 10 -0.8822 -0.0001
0 15 11 -3.0329 0.0278
0 15 12 1.7229 -0.0384
0 15 13 2.7707 -0.0209
0 15 14 -4.9508 0.0609
0 15 15 -3.0058 0.0206
0 15 16 2.3453 -0.0018
0 15 17 -0.5052 0.0042
0 15 18 -1.2185 -0.0506
0 15 19 -0.1503 -0.0142
0 15 20 0.6774 0.0515
0 15 21 0.7371 -0.0497
0 15 22 -2.5893 -0.0923
0 15 23 -1.2397 0.0470
0 15 24 2.0653 0.0561
0 16 0 0.1041 0.1731
0 16 1 -1.5543 0.1945
0 16 2 -1.0883 -0.0224
0 16 3 0.4453 -0.0430
0 16 4 0.1374 0.1561
0 16 5 0.2768 0.1603
0 16 6 -0.5092 0.0198
0 16 7 -1.4790 0.0510
0 16 8 -0.0930 0.0635
0 16 9 0.8910 -0.0023
0 16 10 0.3111 0.0825
0 16 11 -0.6881 0.1002
0 16 12 -0.3448 -0.0276
0 16 13 -1.7134 -0.0081
0 16 14 -2.8356 0.0660
0 16 15 1.3469 0.0442
0 16 16 2.0035 0.0311
0 16 17 -0.7596 0.0137
0 16 18 -0.2990 -0.0026
0 16 19 -0.4968 0.0069
0 16 20 -0.2644 -0.0311
0 16 21 0.3538 -0.0447
0 16 22 -0.0423 0.0381
0 16 23 0.5047 0.0494
0 17 0 1.3873 -0.1329
0 17 1 -1.3120 0.0017
0 17 2 -1.5536 -0.0866
0 17 3 0.6105 -0.0978
0 17 4 1.1811 0.0064
0 17 5 -0.3418 0.0481
0 17 6 -3.0463 0.0632
0 17 7 -0.7864 0.0642
0 17 8 2.9047 -0.0108
0 17 9 0.6239 -0.0195
0 17 10 -1.0800 0.0296
0 17 11 0.2245 0.0076
0 17 12 -0.3577 0.0362
0 17 13 -1.9193 0.0584
0 17 14 0.4634 -0.0455
0 17 15 2.7695 -0.0366
0 17 16 -1.3506 0.0685
0 17 17 -4.3852 0.0164
0 17 18 -2.0755 -0.0485
0 17 19 2.0856 0.0116
0 17 20 4.8053 0.0409
0 17 21 1.2618 -0.0434
0 17 22 -2.3172 -0.0996
0 18 0 0.2923 -0.1635
0 18 1 1.2202 -0.1062
0 18 2 0.9996 -0.0596
0 18 3 -1.2598 -0.0565
0 18 4 -1.2962 -0.1296
0 18 5 -0.3914 -0.0639
0 18 6 -2.4447 0.0556
0 18 7 0.2457 -0.0251
0 18 8 3.2450 -0.1030
0 18 9 -1.0428 -0.0117
0 18 10 -0.3387 0.0068
0 18 11 5.4577 -0.0291
0 18 12 1.6103 0.0169
0 18 13 -4.7437 -0.0191
0 18 14 0.5318 -0.0751
0 18 15 3.5494 -0.0185
0 18 16 -4.6918 -0.0233
0 18 17 -6.0734 -0.0337
0 18 18 1.6598 0.0370
0 18 19 4.6479 -0.0134
0 18 20 1.2910 -0.1111
0 19 0 1.3214 0.1090
0 19 1 1.6112 -0.0278
0 19 2 -0.8253 0.0393
0 19 3 -1.8195 0.0446
0 19 4 0.6381 -0.1103
0 19 5 1.2585 -0.0740
0 19 6 -3.0562 -0.0103
0 19 7 -2.5519 -0.0913
0 19 8 2.1600 -0.0434
0 19 9 2.5070 0.0726
0 19 10 2.7185 -0.0094
0 19 11 4.3115 -0.0954
0 19 12 0.6838 -0.0412
0 19 13 -2.7558 -0.0004
0 19 14 1.3852 0.0118
0 19 15 2.4750 -0.0116
0 19 16 -2.0519 -0.0491
0 19 17 -1.2117 -0.0047
0 19 18 0.3199 -0.0558
0 20 0 -0.8049 0.2315
0 20 1 -0.0049 0.0300
0 20 2 1.6117 0.1122
0 20 3 2.5176 0.0960
0 20 4 0.5235 -0.0283
0 20 5 -2.1303 -0.0259
0 20 6 -4.5248 0.0013
0 20 7 -1.1107 0.0414
0 20 8 5.5520 0.0619
0 20 9 3.2746 -0.0364
0 20 10 -2.7431 -0.0991
0 20 11 0.9947 -0.0056
0 20 12 5.5992 0.0453
0 20 13 1.6906 0.0092
0 20 14 0.8589 0.0359
0 20 15 3.2186 0.0281
0 20 16 -0.2827 -0.0356
0 21 0 2.5587 0.0911
0 21 1 -0.6841 0.0102
0 21 2 -0.8613 -0.0121
0 21 3 1.4027 -0.0076
0 21 4 0.1113 0.1571
0 21 5 0.2034 0.1449
0 21 6 0.0861 -0.0337
0 21 7 -1.4102 -0.0191
0 21 8 0.2325 0.0338
0 21 9 1.4225 0.0023
0 21 10 -0.4674 -0.0048
0 21 11 1.8852 -0.0284
0 21 12 5.3607 -0.0616
0 21 13 2.2326 0.0090
0 21 14 -0.0245 0.1031
0 22 0 1.6796 -0.2785
0 22 1 -2.9754 -0.0484
0 22 2 -1.0367 0.0326
0 22 3 2.3800 -0.0013
0 22 4 1.5515 0.0983
0 22 5 1.4021 0.0008
0 22 6 -1.1528 -0.0801
0 22 7 -3.3654 0.0511
0 22 8 1.8052 0.0922
0 22 9 4.7052 0.0075
0 22 10 -1.2849 -0.1143
0 23 0 2.8854 -0.3421
0 23 1 -1.7836 0.0780
0 23 2 -0.9697 0.0640
0 23 3 1.5089 -0.1662
0 23 4 1.0097 -0.1244
0 23 5 -0.0225 0.0039
0 23 6 -0.3333 0.1158
1 -23 0 1.7351 0.4451
1 -23 1 0.4267 0.0794
1 -23 2 -0.1221 -0.1694
1 -23 3 1.9341 -0.0375
1 -23 4 0.8694 0.0891
1 -23 5 0.8736 0.0787
1 -23 6 -0.6952 -0.0304
1 -23 7 -2.3840 -0.0411
1 -23 8 -0.3921 0.0005
1 -23 9 -1.0976 0.0747
1 -22 0 0.4207 0.2695
1 -22 1 -0.4631 0.2859
1 -22 2 1.4659 0.0050
1 -22 3 1.7722 -0.1519
1 -22 4 -0.8646 0.0734
1 -22 5 2.1760 0.2006
1 -22 6 1.8223 -0.0114
1 -22 7 -2.0866 -0.1083
1 -22 8 -2.5193 0.0082
1 -22 9 -1.4263 0.1099
1 -22 10 0.6843 -0.0310
1 -22 11 -2.3818 -0.0705
1 -22 12 -3.7551 0.1735
1 -22 13 4.3593 0.0305
1 -21 0 0.9706 -0.2105
1 -21 1 -1.7519 0.1835
1 -21 2 -1.1876 0.2625
1 -21 3 -0.6468 -0.0118
1 -21 4 1.4143 -0.0676
1 -21 5 5.3924 0.0403
1 -21 6 0.5630 0.0634
1 -21 7 -2.9587 -0.0265
1 -21 8 -0.1478 -0.0691
1 -21 9 0.5704 0.0826
1 -21 10 -1.4532 0.0544
1 -21 11 -6.1610 -0.0483
1 -21 12 -2.5013 0.0503
1 -21 13 7.7293 0.0147
1 -21 14 2.2583 -0.0392
1 -21 15 -6.7758 0.0001
1 -21 16 -0.9224 -0.0737
1 -20 0 -1.7996 -0.3922
1 -20 1 -3.1321 -0.0801
1 -20 2 1.3435 0.2041
1 -20 3 1.3297 0.0653
1 -20 4 0.0196 -0.1492
1 -20 5 1.5265 -0.1274
1 -20 6 -0.5738 0.0890
1 -20 7 -0.5832 0.0757
1 -20 8 1.2502 -0.0876
1 -20 9 1.0368 -0.0082
1 -20 10 -1.2235 0.0364
1 -20 11 -4.0649 -0.0162
1 -20 12 2.1511 0.0133
1 -20 13 6.7430 0.0353
1 -20 14 -4.8440 0.0339
1 -20 15 -9.1516 -0.0528
1 -20 16 2.5070 -0.0693
1 -20 17 4.3212 0.0998
1 -20 18 -2.4584 0.0306
1 -20 19 -2.9179 -0.1650
1 -19 0 0.5563 -0.1054
1 -19 1 0.1638 -0.3153
1 -19 2 1.5442 -0.1222
1 -19 3 -2.4422 0.1012
1 -19 4 -2.2997 -0.0175
1 -19 5 1.7181 -0.1611
1 -19 6 -0.4050 0.0152
1 -19 7 -1.2867 0.0648
1 -19 8 2.5119 -0.0968
1 -19 9 3.7602 -0.0670
1 -19 10 -1.1839 0.0598
1 -19 11 -3.3777 0.0366
1 -19 12 3.6371 -0.0967
1 -19 13 4.6683 -0.0268
1 -19 14 -4.0471 0.1668
1 -19 15 -4.9619 0.0271
1 -19 16 -0.0781 -0.1216
1 -19 17 -0.2920 0.0400
1 -19 18 -0.3291 0.0182
1 -19 19 -0.2622 -0.0972
1 -19 20 -1.9688 0.0588
1 -18 0 0.1641 0.2356
1 -18 1 -1.7003 -0.1854
1 -18 2 0.8947 -0.2038
1 -18 3 0.7541 0.0857
1 -18 4 -0.7199 0.1320
1 -18 5 -1.0577 -0.0358
1 -18 6 -0.5182 -0.0986
1 -18 7 0.7990 -0.0531
1 -18 8 0.9539 0.0226
1 -18 9 0.0373 -0.0041
1 -18 10 -1.4383 -0.0528
1 -18 11 0.9089 0.0146
1 -18 12 5.5678 0.0019
1 -18 13 2.8937 -0.0033
1 -18 14 -3.0981 0.0760
1 -18 15 -3.0878 -0.0279
1 -18 16 -0.3933 -0.0840
1 -18 17 0.5870 0.0791
1 -18 18 -0.5292 0.0672
1 -18 19 -3.6265 -0.0423
1 -18 20 -2.9729 -0.0135
1 -18 21 0.9996 -0.0198
1 -18 22 1.0388 -0.0263
1 -17 0 0.1148 0.3102
1 -17 1 0.5790 0.1995
1 -17 2 3.2033 -0.0092
1 -17 3 0.7974 -0.0202
1 -17 4 -3.0745 0.1181
1 -17 5 -1.1656 0.1197
1 -17 6 2.1968 -0.0850
1 -17 7 -0.0666 -0.0896
1 -17 8 -2.8629 0.1285
1 -17 9 -1.7202 0.0351
1 -17 10 0.1837 -0.1224
1 -17 11 4.0844 0.0564
1 -17 12 5.1590 0.0935
1 -17 13 -0.5531 -0.0773
1 -17 14 -2.7765 -0.0376
1 -17 15 0.7854 0.0508
1 -17 16 1.1336 0.0129
1 -17 17 -1.6629 -0.0135
1 -17 18 -2.7436 -0.0060
1 -17 19 -1.7722 0.0222
1 -17 20 0.4772 0.0106
1 -17 21 -0.1793 -0.0256
1 -17 22 -2.4094 0.0176
1 -17 23 0.1560 0.0176
1 -17 24 1.1202 -0.0642
1 -16 0 1.6196 0.0004
1 -16 1 0.4416 0.3205
1 -16 2 0.7043 0.1125
1 -16 3 -0.0421 -0.1712
1 -16 4 -2.6413 0.0103
1 -16 5 -1.9097 0.2311
1 -16 6 1.6245 0.0222
1 -16 7 0.6956 -0.1038
1 -16 8 -1.6127 0.1086
1 -16 9 -1.0992 0.0968
1 -16 10 -0.0446 -0.0814
1 -16 11 1.5156 0.0035
1 -16 12 1.6593 0.0893
1 -16 13 0.1879 -0.0196
1 -16 14 -0.4934 -0.0567
1 -16 15 -0.4465 0.0163
1 -16 16 0.8299 0.0275
1 -16 17 1.8895 -0.0350
1 -16 18 -0.7365 -0.0348
1 -16 19 -2.6187 0.0511
1 -16 20 0.3462 0.0514
1 -16 21 -0.3730 -0.0244
1 -16 22 -3.1745 -0.0303
1 -16 23 -0.0081 -0.0018
1 -16 24 -0.2582 -0.0271
1 -16 25 -3.2488 -0.0607
1 -15 0 -0.0291 -0.3840
1 -15 1 -0.5914 0.0259
1 -15 2 0.6248 0.0589
1 -15 3 -1.4163 -0.1363
1 -15 4 -4.1946 -0.1213
1 -15 5 0.3600 0.0791
1 -15 6 4.4137 0.1315
1 -15 7 -0.9077 -0.0150
1 -15 8 -3.3581 -0.0637
1 -15 9 0.6444 0.0428
1 -15 10 0.2811 0.0593
1 -15 11 -2.7556 -0.0235
1 -15 12 -0.7667 -0.0206
1 -15 13 2.8231 0.0237
1 -15 14 1.2983 -0.0024
1 -15 15 -0.8439 -0.0222
1 -15 16 1.3172 0.0113
1 -15 17 2.4170 0.0125
1 -15 18 -1.3137 -0.0208
1 -15 19 -2.5026 -0.0254
1 -15 20 1.5234 0.0074
1 -15 21 0.0327 0.0283
1 -15 22 -2.6522 -0.0049
1 -15 23 2.0440 -0.0134
1 -15 24 1.9188 0.0039
1 -15 25 -2.9738 -0.0283
1 -15 26 -2.5182 -0.0514
1 -14 0 0.1538 -0.2587
1 -14 1 0.5148 -0.3010
1 -14 2 0.8607 -0.0714
1 -14 3 -1.1818 0.0961
1 -14 4 -2.1472 -0.1507
1 -14 5 0.7525 -0.2182
1 -14 6 0.8104 0.1163
1 -14 7 -2.5957 0.1024
1 -14 8 -0.4124 -0.1802
1 -14 9 3.0156 -0.0620
1 -14 10 -1.4983 0.1275
1 -14 11 -7.0665 -0.0144
1 -14 12 -1.4748 -0.0976
1 -14 13 7.8985 0.0267
1 -14 14 5.0228 0.0583
1 -14 15 -3.9933 -0.0305
1 -14 16 -3.7688 -0.0451
1 -14 17 2.7968 0.0182
1 -14 18 1.8706 0.0081
1 -14 19 -2.7791 -0.0589
1 -14 20 0.0489 -0.0035
1 -14 21 2.7417 0.0760
1 -14 22 2.5174 0.0060
1 -14 23 2.6099 -0.0446
1 -14 24 -2.2922 0.0037
1 -14 25 -4.8130 0.0098
1 -14 26 0.6415 -0.0452
1 -14 27 3.5345 -0.0368
1 -13 0 -1.4417 0.3995
1 -13 1 2.6499 -0.2778
1 -13 2 3.3720 -0.1998
1 -13 3 -2.5239 0.2640
1 -13 4 -4.4412 0.0226
1 -13 5 1.8746 -0.3075
1 -13 6 3.7567 -0.0367
1 -13 7 -1.5754 0.1384
1 -13 8 -2.8842 -0.0615
1 -13 9 0.2938 -0.1021
1 -13 10 -0.6458 0.0235
1 -13 11 -3.6765 0.0315
1 -13 12 0.5510 -0.0312
1 -13 13 5.0153 -0.0333
1 -13 14 0.5407 0.0099
1 -13 15 -3.4688 -0.0045
1 -13 16 -0.1078 -0.0484
1 -13 17 3.6299 -0.0000
1 -13 18 0.2259 0.0466
1 -13 19 -2.7860 -0.0098
1 -13 20 1.3954 -0.0258
1 -13 21 2.2671 0.0127
1 -13 22 -1.1366 0.0046
1 -13 23 -0.4673 -0.0134
1 -13 24 2.7271 0.0061
1 -13 25 2.7955 0.0170
1 -13 26 -1.3950 -0.0511
1 -13 27 -1.2391 -0.0396
1 -13 28 3.5147 0.0814
1 -12 0 -2.4414 0.7264
1 -12 1 3.7715 0.0821
1 -12 2 1.8094 -0.1753
1 -12 3 -4.3842 0.0890
1 -12 4 -0.9685 0.2310
1 -12 5 5.2769 0.0372
1 -12 6 1.7167 -0.1504
1 -12 7 -2.9440 -0.0298
1 -12 8 -1.1357 0.1406
1 -12 9 0.8912 0.0176
1 -12 10 -1.5242 -0.1110
1 -12 11 -4.1699 0.0060
1 -12 12 -0.8343 0.0428
1 -12 13 3.0163 -0.0492
1 -12 14 1.7232 -0.0057
1 -12 15 -0.5728 0.0541
1 -12 16 0.4231 -0.0165
1 -12 17 2.9242 -0.0455
1 -12 18 -0.1213 0.0106
1 -12 19 -4.2466 0.0282
1 -12 20 -1.7554 -0.0071
1 -12 21 0.6612 -0.0346
1 -12 22 0.3043 0.0014
1 -12 23 2.0694 0.0228
1 -12 24 3.8518 -0.0005
1 -12 25 -1.5643 -0.0120
1 -12 26 -5.4553 -0.0509
1 -12 27 4.3790 -0.0072
1 -12 28 8.7109 0.0890
1 -12 29 -0.5088 -0.0049
1 -11 0 -4.9056 0.0117
1 -11 1 1.9803 0.2939
1 -11 2 2.2830 0.1350
1 -11 3 -2.5868 -0.1150
1 -11 4 -0.5754 0.2098
1 -11 5 2.8260 0.3222
1 -11 6 0.9120 -0.1321
1 -11 7 0.6304 -0.1810
1 -11 8 0.7592 0.1689
1 -11 9 -2.3461 0.1087
1 -11 10 -4.5402 -0.1007
1 -11 11 -2.1002 -0.0200
1 -11 12 2.6582 0.0579
1 -11 13 2.2965 0.0220
1 -11 14 -1.4985 0.0176
1 -11 15 -1.2262 0.0116
1 -11 16 2.2589 -0.0154
1 -11 17 2.3399 -0.0177
1 -11 18 -2.4982 -0.0054
1 -11 19 -3.8031 0.0156
1 -11 20 -0.2428 0.0040
1 -11 21 0.8363 -0.0201
1 -11 22 -1.0514 0.0175
1 -11 23 -0.4642 0.0054
1 -11 24 3.2355 -0.0292
1 -11 25 -0.5322 0.0073
1 -11 26 -5.9618 -0.0193
1 -11 27 1.1684 -0.0514
1 -11 28 5.9383 0.0299
1 -11 29 2.6041 0.0594
1 -11 30 2.2529 -0.0711
1 -10 0 0.5838 -0.9503
1 -10 1 3.6124 0.1958
1 -10 2 -1.4026 0.4685
1 -10 3 -6.8510 -0.1204
1 -10 4 -1.1377 -0.1150
1 -10 5 4.0350 0.1411
1 -10 6 1.7627 0.0049
1 -10 7 1.2887 -0.0821
1 -10 8 0.4420 0.0305
1 -10 9 -3.0215 0.0428
1 -10 10 -2.3511 0.0196
1 -10 11 1.3210 0.0240
1 -10 12 0.9341 0.0034
1 -10 13 -2.3303 0.0011
1 -10 14 -1.8869 0.0020
1 -10 15 1.0679 0.0073
1 -10 16 2.1277 0.0346
1 -10 17 0.2639 0.0193
1 -10 18 -2.2388 -0.0302
1 -10 19 -1.7967 -0.0113
1 -10 20 -0.2213 0.0172
1 -10 21 0.6338 0.0058
1 -10 22 -0.6255 0.0200
1 -10 23 -1.5748 0.0056
1 -10 24 1.0004 -0.0229
1 -10 25 -2.1465 -0.0209
1 -10 26 -4.7532 -0.0315
1 -10 27 3.1917 -0.0234
1 -10 28 5.3258 0.0480
1 -10 29 0.7557 0.0870
1 -10 30 0.5232 -0.0582
1 -9 0 5.2511 -0.7650
1 -9 1 -1.1616 -0.0958
1 -9 2 -3.9016 0.1922
1 -9 3 -2.1932 -0.0611
1 -9 4 0.9994 -0.2896
1 -9 5 -0.5407 -0.1533
1 -9 6 -1.8525 0.1430
1 -9 7 2.8494 0.1076
1 -9 8 3.8728 -0.1231
1 -9 9 -0.7143 -0.0774
1 -9 10 -1.3029 0.0947
1 -9 11 0.3405 0.0319
1 -9 12 -1.5500 -0.0667
1 -9 13 -2.4962 -0.0205
1 -9 14 0.0444 0.0213
1 -9 15 1.6665 0.0141
1 -9 16 0.5221 0.0167
1 -9 17 -2.2127 0.0145
1 -9 18 -1.4751 -0.0123
1 -9 19 2.0939 -0.0001
1 -9 20 0.7460 0.0180
1 -9 21 -1.6226 0.0084
1 -9 22 -2.1516 0.0179
1 -9 23 -1.9515 0.0055
1 -9 24 1.5739 -0.0355
1 -9 25 2.0117 -0.0294
1 -9 26 -0.1701 0.0317
1 -9 27 -0.7451 0.0143
1 -9 28 -1.9544 -0.0215
1 -9 29 1.2329 0.0659
1 -9 30 4.6412 0.0311
1 -9 31 1.0202 -0.1327
1 -8 0 7.1713 0.3787
1 -8 1 1.1860 -0.3288
1 -8 2 3.1625 -0.4647
1 -8 3 1.0464 -0.0191
1 -8 4 -5.6535 -0.0653
1 -8 5 -5.4173 -0.1394
1 -8 6 1.5383 0.1097
1 -8 7 5.5068 0.0702
1 -8 8 1.6102 -0.1181
1 -8 9 -1.6990 -0.0318
1 -8 10 2.3100 0.0408
1 -8 11 3.1956 -0.0461
1 -8 12 -3.0145 -0.0276
1 -8 13 -3.9086 0.0279
1 -8 14 1.0620 -0.0049
1 -8 15 1.5616 -0.0449
1 -8 16 -1.9637 -0.0189
1 -8 17 -2.5288 0.0379
1 -8 18 1.9289 0.0257
1 -8 19 2.8184 -0.0069
1 -8 20 -2.2353 -0.0060
1 -8 21 -1.7440 0.0004
1 -8 22 0.3452 -0.0021
1 -8 23 -0.9483 0.0050
1 -8 24 2.0140 0.0083
1 -8 25 3.6606 -0.0128
1 -8 26 -0.0547 0.0064
1 -8 27 -2.8720 0.0041
1 -8 28 -1.8618 -0.0209
1 -8 29 2.0555 0.0416
1 -8 30 4.1782 0.0570
1 -8 31 2.5111 -0.0577
1 -7 0 8.2518 1.0646
1 -7 1 -1.9927 -0.2403
1 -7 2 6.1632 -0.5683
1 -7 3 5.6719 0.0781
1 -7 4 -6.6319 0.1509
1 -7 5 -7.1205 -0.0321
1 -7 6 0.7843 -0.0134
1 -7 7 3.1478 0.0087
1 -7 8 1.1016 0.0112
1 -7 9 1.7255 0.0075
1 -7 10 3.9385 -0.0481
1 -7 11 0.4540 -0.0297
1 -7 12 -3.5029 0.0462
1 -7 13 -0.2301 0.0138
1 -7 14 1.6753 -0.0332
1 -7 15 -2.1440 -0.0429
1 -7 16 -3.1112 -0.0183
1 -7 17 0.1889 0.0293
1 -7 18 2.5962 0.0100
1 -7 19 0.3354 -0.0240
1 -7 20 -2.5890 -0.0125
1 -7 21 0.2569 0.0032
1 -7 22 1.5627 -0.0121
1 -7 23 -0.3463 -0.0003
1 -7 24 0.9341 0.0173
1 -7 25 1.7536 -0.0146
1 -7 26 1.1935 -0.0066
1 -7 27 0.7941 -0.0022
1 -7 28 -0.9377 -0.0371
1 -7 29 -1.3128 0.0111
1 -7 30 2.9142 0.0912
1 -7 31 4.6635 -0.0078
1 -7 32 -0.5900 -0.1798
1 -6 0 -0.8350 0.6855
1 -6 1 -4.7553 0.1690
1 -6 2 10.0337 0.0379
1 -6 3 5.6699 0.1446
1 -6 4 -9.5105 0.0802
1 -6 5 -3.3366 -0.0225
1 -6 6 7.0396 -0.0748
1 -6 7 0.4132 0.0361
1 -6 8 -7.4046 0.0950
1 -6 9 0.1075 -0.0049
1 -6 10 8.4415 -0.0472
1 -6 11 2.1155 0.0373
1 -6 12 -4.7920 0.0404
1 -6 13 -0.8078 -0.0328
1 -6 14 2.3462 0.0068
1 -6 15 -1.2206 0.0270
1 -6 16 -3.3761 -0.0279
1 -6 17 -1.1681 -0.0405
1 -6 18 1.7347 0.0029
1 -6 19 0.8972 0.0206
1 -6 20 -1.0261 -0.0150
1 -6 21 0.5320 -0.0139
1 -6 22 -0.0573 -0.0024
1 -6 23 -1.9480 -0.0072
1 -6 24 0.7829 -0.0069
1 -6 25 4.0923 -0.0156
1 -6 26 3.1863 -0.0170
1 -6 27 -0.2769 -0.0030
1 -6 28 -2.6306 0.0069
1 -6 29 -2.1006 -0.0080
1 -6 30 2.9054 0.0227
1 -6 31 4.4725 0.0185
1 -6 32 -1.1605 -0.1173
1 -5 0 -5.9206 -0.0628
1 -5 1 -12.2579 0.3890
1 -5 2 1.2935 0.4006
1 -5 3 3.7508 0.0056
1 -5 4 -1.3323 0.0351
1 -5 5 3.9104 0.0875
1 -5 6 4.4235 -0.0626
1 -5 7 -6.8535 -0.0016
1 -5 8 -7.6952 0.0724
1 -5 9 6.9957 0.0293
1 -5 10 8.3429 -0.0093
1 -5 11 -5.6556 0.0109
1 -5 12 -5.7863 0.0081
1 -5 13 4.9960 -0.0085
1 -5 14 3.6505 0.0261
1 -5 15 -4.7372 0.0328
1 -5 16 -4.0209 0.0066
1 -5 17 2.0261 -0.0164
1 -5 18 3.1980 0.0030
1 -5 19 -0.9869 0.0108
1 -5 20 -3.0249 -0.0144
1 -5 21 -0.6625 0.0025
1 -5 22 0.5406 0.0060
1 -5 23 1.2079 -0.0118
1 -5 24 2.2038 -0.0081
1 -5 25 1.0295 -0.0046
1 -5 26 -1.0347 -0.0186
1 -5 27 -0.3279 0.0025
1 -5 28 0.7370 0.0229
1 -5 29 -1.4430 -0.0231
1 -5 30 0.5809 0.0352
1 -5 31 3.7583 0.0850
1 -5 32 0.0564 -0.1090
1 -4 0 -9.5016 -0.8944
1 -4 1 -16.1788 0.0612
1 -4 2 -7.7828 0.3371
1 -4 3 -1.2481 -0.0353
1 -4 4 -1.9002 0.0927
1 -4 5 1.7180 0.1443
1 -4 6 9.0269 -0.0103
1 -4 7 3.1307 -0.0635
1 -4 8 -6.9478 -0.0444
1 -4 9 -1.0479 0.0439
1 -4 10 3.8235 0.0232
1 -4 11 -1.3214 -0.0372
1 -4 12 -0.9660 -0.0168
1 -4 13 2.2691 0.0197
1 -4 14 0.0871 0.0251
1 -4 15 -1.6954 0.0411
1 -4 16 -0.4814 0.0499
1 -4 17 0.1930 -0.0138
1 -4 18 0.4231 -0.0333
1 -4 19 -0.4407 0.0004
1 -4 20 -0.9140 0.0214
1 -4 21 0.4428 0.0304
1 -4 22 1.0185 0.0150
1 -4 23 0.1242 -0.0031
1 -4 24 -0.5169 -0.0080
1 -4 25 0.9673 -0.0060
1 -4 26 0.3577 -0.0236
1 -4 27 -2.0757 0.0187
1 -4 28 -1.4189 0.0712
1 -4 29 0.0254 -0.0044
1 -4 30 2.0629 -0.0158
1 -4 31 1.8219 0.0644
1 -4 32 -2.1218 0.0098
1 -3 0 15.9615 -1.1046
1 -3 1 -24.8901 -0.2336
1 -3 2 -41.6302 0.1779
1 -3 3 -10.9699 -0.0278
1 -3 4 14.0586 -0.0611
1 -3 5 8.2515 0.0049
1 -3 6 2.0850 0.1029
1 -3 7 -2.3619 -0.0694
1 -3 8 -6.3002 -0.1923
1 -3 9 2.5310 0.0087
1 -3 10 6.6839 0.0811
1 -3 11 0.2416 -0.0092
1 -3 12 -1.2310 -0.0355
1 -3 13 0.5352 0.0076
1 -3 14 -0.3053 -0.0007
1 -3 15 -0.6266 -0.0148
1 -3 16 -0.7645 0.0156
1 -3 17 -0.3356 0.0178
1 -3 18 1.5062 -0.0024
1 -3 19 0.4258 -0.0149
1 -3 20 -0.9888 0.0208
1 -3 21 0.0835 0.0368
1 -3 22 0.7262 0.0011
1 -3 23 -0.0094 -0.0132
1 -3 24 0.4351 0.0049
1 -3 25 2.0927 0.0120
1 -3 26 -1.8946 -0.0147
1 -3 27 -5.1495 0.0124
1 -3 28 -0.3895 0.0373
1 -3 29 1.4981 -0.0104
1 -3 30 -1.0519 0.0052
1 -3 31 -0.7168 0.0769
1 -3 32 -0.0523 0.0677
1 -2 0 31.3246 -0.3598
1 -2 1 -35.0293 -0.2038
1 -2 2 -53.7999 -0.1352
1 -2 3 4.6438 -0.0907
1 -2 4 24.9833 -0.1584
1 -2 5 -17.7162 -0.1796
1 -2 6 -23.0335 0.0245
1 -2 7 8.8069 0.0117
1 -2 8 14.2458 -0.0404
1 -2 9 0.0184 -0.0215
1 -2 10 -5.0485 -0.0208
1 -2 11 0.7655 0.0073
1 -2 12 4.4627 -0.0109
1 -2 13 0.3037 -0.0316
1 -2 14 -2.1872 -0.0429
1 -2 15 1.2168 -0.0325
1 -2 16 0.8521 0.0013
1 -2 17 -1.9536 0.0215
1 -2 18 -0.6050 0.0101
1 -2 19 0.5155 -0.0086
1 -2 20 0.2464 0.0015
1 -2 21 -0.0206 -0.0147
1 -2 22 0.3593 -0.0183
1 -2 23 0.4132 0.0050
1 -2 24 0.3603 0.0051
1 -2 25 1.0468 -0.0039
1 -2 26 -1.8042 -0.0094
1 -2 27 -3.2341 -0.0131
1 -2 28 -0.9304 -0.0016
1 -2 29 -1.6526 0.0489
1 -2 30 -1.6681 0.0140
1 -2 31 0.6786 -0.0652
1 -2 32 -2.3460 0.0208
1 -2 33 -6.6832 0.1273
1 -1 0 73.2875 0.5128
1 -1 1 -11.5888 -0.0382
1 -1 2 -59.2909 -0.4071
1 -1 3 -2.7012 -0.0069
1 -1 4 18.7885 0.0916
1 -1 5 -26.2201 -0.1701
1 -1 6 -21.8743 -0.1711
1 -1 7 15.4580 0.0595
1 -1 8 9.4343 0.1841
1 -1 9 -10.7549 -0.0433
1 -1 10 -5.1241 -0.1344
1 -1 11 6.5469 0.0072
1 -1 12 5.3041 0.0304
1 -1 13 -1.4859 -0.0004
1 -1 14 -2.4787 -0.0186
1 -1 15 2.0316 -0.0269
1 -1 16 1.2729 -0.0172
1 -1 17 -1.9451 0.0053
1 -1 18 -0.8672 0.0020
1 -1 19 0.3171 -0.0067
1 -1 20 0.1387 -0.0058
1 -1 21 -0.7275 -0.0271
1 -1 22 -0.9586 -0.0189
1 -1 23 -0.5053 0.0031
1 -1 24 1.2777 -0.0038
1 -1 25 2.0285 -0.0185
1 -1 26 -1.3443 -0.0027
1 -1 27 -1.8368 -0.0079
1 -1 28 -0.6221 -0.0166
1 -1 29 -2.3595 0.0255
1 -1 30 -1.8208 -0.0337
1 -1 31 -0.5194 -0.0894
1 -1 32 -4.5316 0.0166
1 -1 33 -6.6731 0.0968
1 0 0 96.0614 0.6098
1 0 1 -12.2701 0.4219
1 0 2 -60.1134 -0.0744
1 0 3 17.0504 0.0144
1 0 4 35.4692 0.1128
1 0 5 -32.4813 0.0305
1 0 6 -36.1690 -0.0996
1 0 7 11.3197 0.0055
1 0 8 12.6472 0.1497
1 0 9 -8.5113 0.0185
1 0 10 -5.5167 -0.0160
1 0 11 3.3574 0.0153
1 0 12 2.7134 0.0060
1 0 13 -1.3148 0.0490
1 0 14 -1.7869 0.0442
1 0 15 2.1207 -0.0107
1 0 16 1.9074 -0.0365
1 0 17 -0.0177 -0.0151
1 0 18 0.1550 0.0090
1 0 19 -0.5957 0.0247
1 0 20 -1.1851 0.0066
1 0 21 -1.4303 -0.0139
1 0 22 -1.0570 0.0020
1 0 23 0.7576 0.0036
1 0 24 2.3783 -0.0179
1 0 25 -0.5628 -0.0175
1 0 26 -2.2723 0.0295
1 0 27 2.4190 -0.0015
1 0 28 1.2958 -0.0606
1 0 29 -3.4844 -0.0212
1 0 30 -0.6350 0.0198
1 0 31 1.3268 0.0228
1 0 32 -4.5453 -0.0476
1 1 0 90.2361 0.2644
1 1 1 2.5650 0.4637
1 1 2 -27.1890 0.1491
1 1 3 35.4927 -0.1062
1 1 4 24.7626 -0.0893
1 1 5 -39.6872 0.1742
1 1 6 -23.7701 0.1558
1 1 7 20.2015 0.0122
1 1 8 6.8877 -0.0297
1 1 9 -12.3315 0.0417
1 1 10 -1.7489 0.1355
1 1 11 3.3547 0.0257
1 1 12 -1.5662 -0.0372
1 1 13 -2.2717 0.0333
1 1 14 0.9055 0.0512
1 1 15 3.0191 0.0205
1 1 16 0.5969 -0.0000
1 1 17 -0.2839 0.0023
1 1 18 0.8169 0.0123
1 1 19 0.8187 0.0129
1 1 20 0.6778 0.0003
1 1 21 -0.5374 0.0264
1 1 22 -1.6975 0.0280
1 1 23 -0.2342 -0.0048
1 1 24 1.4801 -0.0041
1 1 25 -0.7148 -0.0019
1 1 26 0.1528 -0.0041
1 1 27 3.1375 -0.0038
1 1 28 -0.4189 0.0174
1 1 29 -0.3703 -0.0055
1 1 30 4.5294 0.0035
1 1 31 1.3764 0.0523
1 1 32 -5.4568 -0.0705
1 2 0 84.5087 -0.1914
1 2 1 7.6717 -0.3591
1 2 2 -16.3919 0.0078
1 2 3 32.9293 0.0549
1 2 4 24.0815 -0.1584
1 2 5 -20.0551 0.0431
1 2 6 -9.9503 0.2113
1 2 7 12.4777 0.0446
1 2 8 1.0128 -0.1477
1 2 9 -5.4802 -0.0404
1 2 10 1.7269 0.0753
1 2 11 -0.3307 0.0183
1 2 12 -1.9959 0.0094
1 2 13 1.2781 -0.0077
1 2 14 1.9488 -0.0118
1 2 15 -0.6933 0.0322
1 2 16 -2.0101 0.0282
1 2 17 1.3645 -0.0069
1 2 18 3.1071 0.0009
1 2 19 1.9037 0.0035
1 2 20 0.5581 -0.0150
1 2 21 -0.6044 0.0169
1 2 22 -0.4613 0.0190
1 2 23 0.9889 -0.0047
1 2 24 0.4337 -0.0006
1 2 25 -2.4588 0.0098
1 2 26 0.3488 0.0100
1 2 27 4.4151 0.0159
1 2 28 2.3372 0.0074
1 2 29 1.1170 -0.0593
1 2 30 1.6941 0.0279
1 2 31 1.2007 0.0976
1 2 32 0.4627 -0.0852
1 3 0 40.5535 -0.1778
1 3 1 -1.0921 -0.6963
1 3 2 3.3668 -0.0616
1 3 3 32.6792 0.2264
1 3 4 14.3406 -0.0669
1 3 5 -9.4813 -0.1280
1 3 6 2.7134 -0.0341
1 3 7 8.1584 -0.0613
1 3 8 -5.5155 -0.0762
1 3 9 -2.2007 -0.0234
1 3 10 7.1453 -0.0830
1 3 11 1.0307 -0.0352
1 3 12 -4.1163 0.0609
1 3 13 -0.5652 -0.0366
1 3 14 2.3153 -0.0780
1 3 15 -0.0851 -0.0027
1 3 16 -0.9644 0.0221
1 3 17 0.6361 -0.0140
1 3 18 0.1710 -0.0236
1 3 19 1.6025 -0.0198
1 3 20 2.5722 -0.0121
1 3 21 0.4043 0.0034
1 3 22 -0.6671 -0.0146
1 3 23 0.2951 -0.0166
1 3 24 0.0774 0.0077
1 3 25 -1.2505 0.0236
1 3 26 0.3541 -0.0290
1 3 27 2.1120 -0.0410
1 3 28 2.1794 0.0122
1 3 29 1.5988 0.0005
1 3 30 1.3950 0.0474
1 3 31 3.8269 -0.0033
1 3 32 3.1703 -0.1249
1 4 0 8.4133 0.4798
1 4 1 9.0650 -0.1516
1 4 2 15.3133 -0.0908
1 4 3 8.7095 0.0844
1 4 4 -2.3407 0.0854
1 4 5 6.1784 -0.0206
1 4 6 12.9286 -0.1517
1 4 7 -2.0658 -0.1393
1 4 8 -9.2828 0.0427
1 4 9 5.2757 0.0591
1 4 10 7.6636 -0.1047
1 4 11 -4.5942 -0.0560
1 4 12 -5.0458 0.0018
1 4 13 3.0086 -0.0440
1 4 14 2.7069 -0.0276
1 4 15 -2.8684 -0.0229
1 4 16 -0.6510 -0.0244
1 4 17 1.5613 -0.0098
1 4 18 -1.3702 -0.0061
1 4 19 -0.0985 -0.0068
1 4 20 1.7565 0.0019
1 4 21 0.9657 -0.0198
1 4 22 0.7466 -0.0307
1 4 23 0.6637 -0.0141
1 4 24 -0.6699 -0.0136
1 4 25 -3.2520 0.0006
1 4 26 -3.5996 -0.0353
1 4 27 2.2359 -0.0264
1 4 28 7.9924 0.0084
1 4 29 2.0549 -0.0035
1 4 30 -4.4548 0.0482
1 4 31 1.5312 -0.0273
1 4 32 5.5420 -0.1197
1 5 0 -13.3249 0.4880
1 5 1 4.7779 0.3386
1 5 2 15.2783 0.0495
1 5 3 -2.8597 -0.0467
1 5 4 -9.2634 0.1493
1 5 5 8.7049 0.1540
1 5 6 12.6976 -0.0149
1 5 7 -5.2576 -0.0220
1 5 8 -8.5589 0.0882
1 5 9 5.3577 0.0470
1 5 10 5.2731 -0.0010
1 5 11 -3.9157 0.0157
1 5 12 -3.3008 -0.0562
1 5 13 2.4633 -0.0040
1 5 14 0.4118 0.0633
1 5 15 -4.1263 -0.0140
1 5 16 0.3100 -0.0208
1 5 17 2.1094 0.0277
1 5 18 -1.4026 0.0142
1 5 19 0.0086 -0.0027
1 5 20 1.7718 0.0026
1 5 21 0.7427 -0.0109
1 5 22 -0.7738 0.0142
1 5 23 -1.6176 -0.0017
1 5 24 -0.8981 -0.0389
1 5 25 -1.2426 -0.0008
1 5 26 -2.2223 -0.0110
1 5 27 1.7484 0.0036
1 5 28 4.2771 0.0173
1 5 29 -1.9355 -0.0028
1 5 30 -2.3686 -0.0009
1 5 31 4.8366 -0.0639
1 6 0 -19.2405 -0.0731
1 6 1 10.3036 0.3007
1 6 2 13.4613 0.0474
1 6 3 -13.5571 -0.0676
1 6 4 -12.0904 0.1311
1 6 5 12.5225 0.0903
1 6 6 9.5979 0.0452
1 6 7 -12.4554 0.1378
1 6 8 -7.9486 0.0665
1 6 9 9.3343 -0.0483
1 6 10 5.4500 0.0863
1 6 11 -5.0743 0.1085
1 6 12 -2.8842 -0.0252
1 6 13 3.7515 0.0379
1 6 14 -0.7318 0.0666
1 6 15 -6.2361 0.0063
1 6 16 0.8909 0.0215
1 6 17 4.7274 0.0318
1 6 18 0.5392 0.0151
1 6 19 -0.7397 0.0165
1 6 20 -0.2951 0.0017
1 6 21 -0.3139 0.0006
1 6 22 -0.2654 0.0491
1 6 23 -0.1314 0.0058
1 6 24 0.2869 -0.0171
1 6 25 -1.5952 0.0307
1 6 26 -3.8668 0.0082
1 6 27 -0.0417 0.0065
1 6 28 3.1575 -0.0134
1 6 29 -0.1542 -0.0209
1 6 30 -0.3976 -0.0013
1 6 31 1.4657 -0.0094
1 7 0 -11.7233 -0.3819
1 7 1 8.2808 0.0610
1 7 2 7.2313 -0.1106
1 7 3 -9.8532 -0.1605
1 7 4 -5.9212 -0.0524
1 7 5 7.1990 -0.0920
1 7 6 -0.3563 -0.0067
1 7 7 -11.4153 0.0966
1 7 8 -0.7783 -0.0177
1 7 9 7.9178 -0.0558
1 7 10 0.7659 0.0708
1 7 11 -4.2703 0.0408
1 7 12 -0.6614 0.0177
1 7 13 4.1485 0.0482
1 7 14 0.3812 -0.0201
1 7 15 -3.9502 0.0118
1 7 16 0.1561 0.0530
1 7 17 1.9946 -0.0081
1 7 18 0.4883 -0.0105
1 7 19 0.9286 0.0317
1 7 20 0.7743 0.0020
1 7 21 0.5976 -0.0095
1 7 22 0.6776 0.0311
1 7 23 -0.8399 0.0068
1 7 24 -2.1657 0.0110
1 7 25 -2.3375 0.0151
1 7 26 -0.6267 -0.0016
1 7 27 2.4106 0.0165
1 7 28 -0.1370 -0.0134
1 7 29 -4.2143 0.0083
1 7 30 -0.1014 0.0067
1 8 0 -3.5740 -0.1678
1 8 1 12.0524 -0.0566
1 8 2 5.3579 -0.1466
1 8 3 -10.7094 -0.1674
1 8 4 -6.1491 -0.2057
1 8 5 7.2948 -0.1464
1 8 6 2.1218 -0.0093
1 8 7 -8.0454 -0.0520
1 8 8 -3.3552 -0.1137
1 8 9 1.2447 -0.0134
1 8 10 0.1957 -0.0102
1 8 11 -0.2054 -0.0870
1 8 12 1.3224 0.0074
1 8 13 3.9772 0.0012
1 8 14 0.3396 -0.0661
1 8 15 -4.2017 0.0198
1 8 16 -1.2036 0.0134
1 8 17 1.9758 -0.0459
1 8 18 1.7944 -0.0121
1 8 19 1.2857 0.0045
1 8 20 1.0418 -0.0270
1 8 21 0.5060 -0.0117
1 8 22 -0.9979 0.0016
1 8 23 -1.2300 -0.0188
1 8 24 0.5998 -0.0058
1 8 25 -0.2412 -0.0200
1 8 26 -2.3207 0.0220
1 8 27 -1.8661 0.0569
1 8 28 -1.8966 -0.0154
1 8 29 -0.3741 -0.0176
1 8 30 2.7497 -0.0279
1 9 0 2.5793 0.0926
1 9 1 4.3814 -0.0493
1 9 2 -0.4280 0.1402
1 9 3 -3.2042 0.0892
1 9 4 1.4710 -0.1633
1 9 5 5.1466 -0.0398
1 9 6 -1.5866 0.0562
1 9 7 -5.9850 -0.1027
1 9 8 -2.1936 -0.0736
1 9 9 -0.4132 0.0346
1 9 10 1.4595 -0.0923
1 9 11 2.2001 -0.1177
1 9 12 -0.3657 0.0266
1 9 13 -0.5735 -0.0161
1 9 14 -0.1040 -0.0519
1 9 15 -0.0335 -0.0049
1 9 16 1.3334 -0.0271
1 9 17 1.6698 -0.0175
1 9 18 0.0354 -0.0154
1 9 19 -1.4878 -0.0395
1 9 20 -0.7489 -0.0145
1 9 21 1.0812 -0.0013
1 9 22 1.6667 -0.0454
1 9 23 2.0750 -0.0236
1 9 24 0.2264 0.0191
1 9 25 -4.8811 -0.0171
1 9 26 -4.2739 0.0161
1 9 27 0.9731 0.0091
1 9 28 0.7646 -0.0495
1 9 29 -1.3380 0.0139
1 10 0 0.0022 0.1045
1 10 1 0.8234 -0.0717
1 10 2 3.1390 0.3347
1 10 3 1.9817 0.3487
1 10 4 -1.0868 0.0555
1 10 5 -0.2164 0.0430
1 10 6 0.1431 0.0472
1 10 7 0.0937 0.0313
1 10 8 -0.7354 0.0829
1 10 9 -2.0014 0.0180
1 10 10 0.6200 -0.0563
1 10 11 0.9296 0.0208
1 10 12 -1.7755 0.0150
1 10 13 0.3790 -0.0425
1 10 14 3.1211 0.0290
1 10 15 1.0508 0.0111
1 10 16 -0.3751 -0.0319
1 10 17 0.5182 0.0223
1 10 18 -0.7182 -0.0006
1 10 19 -1.7636 -0.0412
1 10 20 0.9579 -0.0027
1 10 21 1.9737 0.0212
1 10 22 -0.0701 0.0004
1 10 23 1.4640 0.0161
1 10 24 1.5168 -0.0036
1 10 25 -3.2864 -0.0507
1 10 26 -2.4497 -0.0121
1 10 27 -0.0551 -0.0079
1 10 28 -2.7650 0.0257
1 10 29 -1.7289 0.0969
1 11 0 1.9679 0.0042
1 11 1 -1.8981 -0.0800
1 11 2 1.2276 0.0672
1 11 3 0.9272 0.1416
1 11 4 -2.3742 0.2108
1 11 5 0.6169 0.1395
1 11 6 3.5970 -0.0274
1 11 7 1.2386 0.0563
1 11 8 -3.7332 0.1380
1 11 9 -4.3500 0.0427
1 11 10 0.9034 0.0335
1 11 11 2.6050 0.0483
1 11 12 -0.1459 -0.0261
1 11 13 0.4324 0.0297
1 11 14 1.4045 0.0931
1 11 15 -0.7163 -0.0074
1 11 16 -0.6823 -0.0210
1 11 17 1.3589 0.0293
1 11 18 1.4928 0.0231
1 11 19 0.5111 0.0350
1 11 20 -0.2501 0.0368
1 11 21 -1.7688 0.0049
1 11 22 -0.5188 -0.0154
1 11 23 5.5067 0.0041
1 11 24 3.8427 0.0074
1 11 25 -4.8693 0.0133
1 11 26 -3.9371 0.0241
1 11 27 0.5584 -0.0245
1 11 28 -0.0956 0.0102
1 12 0 -2.4230 -0.0763
1 12 1 -5.4294 -0.0582
1 12 2 1.4955 -0.2927
1 12 3 2.0334 -0.1995
1 12 4 -1.1057 0.1317
1 12 5 1.2386 0.0655
1 12 6 2.5105 -0.0629
1 12 7 -1.1840 0.0361
1 12 8 -4.4316 -0.0077
1 12 9 -2.0972 -0.0577
1 12 10 1.7790 0.0688
1 12 11 -0.2905 0.0639
1 12 12 -2.9221 -0.0289
1 12 13 0.2213 0.0084
1 12 14 1.4699 0.0125
1 12 15 -0.5593 -0.0024
1 12 16 -0.4180 0.0420
1 12 17 0.4939 0.0243
1 12 18 0.7927 0.0219
1 12 19 0.1272 0.0301
1 12 20 0.1134 -0.0129
1 12 21 0.0815 -0.0045
1 12 22 -0.3673 0.0298
1 12 23 2.8915 0.0217
1 12 24 2.3196 -0.0102
1 12 25 -3.0354 0.0042
1 12 26 -0.9984 0.0274
1 12 27 2.1588 -0.0105
1 13 0 -2.5793 0.0057
1 13 1 -4.1105 0.0483
1 13 2 1.6594 -0.2661
1 13 3 1.1981 -0.2578
1 13 4 -1.6400 -0.0735
1 13 5 0.4371 -0.0571
1 13 6 2.4707 -0.0238
1 13 7 0.2127 -0.0510
1 13 8 -2.6025 -0.1425
1 13 9 -1.9006 -0.0582
1 13 10 -1.3259 0.0261
1 13 11 -3.8112 -0.0275
1 13 12 -1.8186 -0.0220
1 13 13 2.7944 -0.0162
1 13 14 0.5916 -0.0576
1 13 15 -2.0467 0.0197
1 13 16 -2.3913 0.0455
1 13 17 -2.3263 -0.0421
1 13 18 0.6958 -0.0145
1 13 19 1.0829 0.0246
1 13 20 0.2120 -0.0069
1 13 21 0.1876 -0.0083
1 13 22 -1.7834 0.0059
1 13 23 0.3834 0.0154
1 13 24 2.3488 -0.0107
1 13 25 -0.3568 -0.0267
1 13 26 -0.0513 0.0084
1 14 0 -3.0110 0.2063
1 14 1 -3.0211 0.1494
1 14 2 0.9396 0.0326
1 14 3 0.3318 -0.0372
1 14 4 -1.0624 -0.1434
1 14 5 0.3128 -0.0912
1 14 6 1.3110 0.0107
1 14 7 -0.1418 -0.0424
1 14 8 -1.6923 -0.0445
1 14 9 -0.6010 -0.0097
1 14 10 -0.5607 -0.0794
1 14 11 -2.9676 -0.0675
1 14 12 0.1750 0.0300
1 14 13 2.3383 -0.0014
1 14 14 -2.5300 -0.0528
1 14 15 -2.6117 -0.0137
1 14 16 -1.2092 -0.0073
1 14 17 -1.7881 -0.0035
1 14 18 -0.0532 0.0041
1 14 19 -0.9683 -0.0374
1 14 20 -0.3289 -0.0222
1 14 21 0.5414 0.0057
1 14 22 -2.8330 -0.0016
1 14 23 -0.5879 0.0281
1 14 24 2.2281 -0.0004
1 14 25 -0.9472 -0.0505
1 15 0 -0.6240 0.1627
1 15 1 -0.7571 0.1229
1 15 2 -0.0322 0.2575
1 15 3 -1.4281 0.1025
1 15 4 -1.6906 -0.0836
1 15 5 0.0736 0.0519
1 15 6 0.5531 0.0634
1 15 7 -0.3712 -0.0211
1 15 8 -1.0575 0.0658
1 15 9 0.2284 0.0507
1 15 10 0.1042 -0.0543
1 15 11 -1.9685 -0.0171
1 15 12 1.4934 0.0284
1 15 13 1.9528 0.0122
1 15 14 -2.8495 0.0191
1 15 15 -0.7795 0.0045
1 15 16 0.7029 -0.0136
1 15 17 -0.5498 -0.0033
1 15 18 0.1558 -0.0185
1 15 19 -1.5120 0.0029
1 15 20 -1.4858 0.0201
1 15 21 -1.0218 -0.0649
1 15 22 -1.6887 -0.0325
1 15 23 0.8813 0.1116
1 15 24 0.0725 0.0500
1 16 0 -1.8015 -0.1832
1 16 1 -1.1023 -0.0800
1 16 2 0.8800 0.2114
1 16 3 -0.3362 0.1064
1 16 4 -0.7741 0.0245
1 16 5 -0.6887 0.0986
1 16 6 -1.3216 0.0268
1 16 7 0.0143 0.0385
1 16 8 -0.8288 0.0828
1 16 9 -2.1477 0.0003
1 16 10 -1.1921 0.0332
1 16 11 -0.5896 0.0728
1 16 12 2.4453 -0.0123
1 16 13 2.2223 0.0272
1 16 14 -1.3439 0.0784
1 16 15 -0.0675 -0.0292
1 16 16 1.3535 -0.0317
1 16 17 0.9439 0.0607
1 16 18 -1.0313 0.0300
1 16 19 -1.8760 -0.0183
1 16 20 2.2606 -0.0324
1 16 21 1.6762 -0.0581
1 16 22 -2.7844 0.0118
1 17 0 -0.2149 -0.3860
1 17 1 0.5227 -0.2144
1 17 2 0.8071 0.0396
1 17 3 -1.6900 0.0655
1 17 4 -0.8584 0.0411
1 17 5 -0.4225 -0.0336
1 17 6 -1.1778 -0.0456
1 17 7 1.3461 0.0660
1 17 8 -1.1214 0.0124
1 17 9 -4.6342 -0.0445
1 17 10 -1.7500 0.0762
1 17 11 0.7545 0.0690
1 17 12 1.9646 -0.0302
1 17 13 1.8015 -0.0074
1 17 14 -0.2676 0.0012
1 17 15 -2.4350 0.0086
1 17 16 -2.6145 0.0689
1 17 17 1.1260 0.0087
1 17 18 3.0438 -0.0545
1 17 19 2.7188 0.0275
1 17 20 1.8992 0.0007
1 17 21 -1.9603 -0.1312
1 18 0 -1.2497 -0.0416
1 18 1 -0.0776 -0.1236
1 18 2 -0.2982 -0.1615
1 18 3 -2.1304 0.0091
1 18 4 0.2489 0.0423
1 18 5 -1.3858 -0.1445
1 18 6 -2.4775 -0.1092
1 18 7 3.4194 0.0545
1 18 8 0.7786 0.0202
1 18 9 -4.4855 -0.0251
1 18 10 0.4936 -0.0140
1 18 11 2.7331 -0.0351
1 18 12 -2.0298 -0.0131
1 18 13 -2.1394 0.0180
1 18 14 1.2899 0.0086
1 18 15 -1.9080 0.0017
1 18 16 -3.7279 -0.0262
1 18 17 2.3139 -0.0249
1 18 18 2.8941 0.0292
1 18 19 -0.8804 -0.0028
1 19 0 -0.2075 0.4146
1 19 1 1.1990 0.0905
1 19 2 -0.5916 -0.2074
1 19 3 -1.3079 -0.1172
1 19 4 0.2199 -0.0087
1 19 5 -4.0450 0.0226
1 19 6 -3.8630 0.0425
1 19 7 4.4220 -0.0586
1 19 8 2.9330 -0.0823
1 19 9 -2.2031 0.0299
1 19 10 1.1061 -0.0016
1 19 11 2.2642 -0.0450
1 19 12 -1.9121 0.0100
1 19 13 -0.5759 -0.0152
1 19 14 3.2339 -0.0307
1 19 15 -1.1250 0.0261
1 19 16 -4.0776 0.0231
1 19 17 -0.1489 -0.0232
1 20 0 1.7200 0.3287
1 20 1 1.8393 0.0760
1 20 2 0.5510 -0.0801
1 20 3 1.2685 -0.0623
1 20 4 -0.3833 0.0697
1 20 5 -6.8688 0.1641
1 20 6 -4.4412 0.0283
1 20 7 4.8698 -0.1309
1 20 8 2.8096 -0.0106
1 20 9 -3.4839 0.0777
1 20 10 0.4970 -0.0425
1 20 11 6.2227 -0.0423
1 20 12 2.5707 0.0075
1 20 13 -1.0791 -0.0053
1 20 14 1.5000 0.0666
1 20 15 0.0245 0.0468
1 21 0 3.4664 -0.2238
1 21 1 -1.8266 0.0160
1 21 2 -1.0459 0.2380
1 21 3 5.1938 0.0638
1 21 4 3.0795 -0.0401
1 21 5 -4.5207 0.0362
1 21 6 -4.4348 0.0736
1 21 7 -0.3892 0.0495
1 21 8 0.1666 -0.0059
1 21 9 0.4988 -0.1019
1 21 10 2.3496 -0.0677
1 21 11 3.7111 0.0799
1 21 12 1.7537 0.0619
1 22 0 1.3465 -0.4098
1 22 1 -3.1792 0.1007
1 22 2 1.6927 0.1995
1 22 3 7.6359 -0.0780
1 22 4 2.8566 -0.0450
1 22 5 -3.8315 0.0634
1 22 6 -3.3906 0.0418
1 22 7 -0.0806 0.0118
1 22 8 2.3264 -0.0249
1 22 9 1.0288 -0.0676
1 23 0 2.8212 -0.3000
1 23 1 -4.0208 -0.0044
1 23 2 -1.0669 -0.0251
1 23 3 4.2952 -0.0508
1 23 4 2.5635 0.0593
2 -23 0 3.5656 0.2832
2 -23 1 2.1608 -0.2728
2 -23 2 0.4995 -0.0905
2 -23 3 1.6826 0.1801
2 -23 4 0.3760 0.0398
2 -23 5 -0.8931 -0.0302
2 -23 6 -1.3391 0.0476
2 -23 7 0.5237 0.0132
2 -23 8 0.3519 -0.0759
2 -23 9 -2.4343 0.0534
2 -22 0 0.6669 0.2544
2 -22 1 -0.5843 -0.0011
2 -22 2 2.2450 -0.0272
2 -22 3 2.7165 0.0448
2 -22 4 0.4833 0.0662
2 -22 5 0.8647 0.0051
2 -22 6 -0.2277 -0.0418
2 -22 7 -0.5126 -0.0178
2 -22 8 -1.5834 0.0356
2 -22 9 -1.8028 0.0750
2 -22 10 0.6983 -0.0259
2 -22 11 -2.1608 -0.0165
2 -22 12 -1.5125 0.0899
2 -22 13 4.7641 -0.0645
2 -21 0 0.9744 0.0483
2 -21 1 -1.0426 0.2345
2 -21 2 0.3682 0.0692
2 -21 3 1.5916 -0.1347
2 -21 4 3.3204 -0.0260
2 -21 5 2.1563 0.0753
2 -21 6 -1.8405 0.0191
2 -21 7 -0.4915 -0.0644
2 -21 8 -1.1278 -0.0083
2 -21 9 -1.0809 0.0745
2 -21 10 0.9933 -0.0330
2 -21 11 -4.5371 -0.0075
2 -21 12 -2.3914 0.0820
2 -21 13 7.7617 -0.0834
2 -21 14 3.3664 -0.0992
2 -21 15 -5.6172 0.0745
2 -21 16 -3.7922 0.0371
2 -20 0 -0.2506 -0.2410
2 -20 1 -3.0652 0.1849
2 -20 2 0.4493 0.0694
2 -20 3 1.2629 -0.1431
2 -20 4 1.9124 -0.0355
2 -20 5 0.7854 0.0561
2 -20 6 -0.9984 0.0298
2 -20 7 0.7749 -0.0518
2 -20 8 -0.8364 -0.0434
2 -20 9 -0.3968 0.0203
2 -20 10 1.0160 -0.0132
2 -20 11 -2.3687 0.0176
2 -20 12 0.6768 0.0305
2 -20 13 3.0477 -0.0556
2 -20 14 -3.6131 0.0061
2 -20 15 -3.6201 0.0584
2 -20 16 1.7993 -0.0470
2 -20 17 0.8472 -0.0265
2 -20 18 -1.4984 0.0510
2 -19 0 -0.8302 -0.1935
2 -19 1 -0.7205 -0.0840
2 -19 2 -1.1792 -0.0299
2 -19 3 -2.6345 0.0452
2 -19 4 2.1161 -0.0243
2 -19 5 1.7071 -0.1050
2 -19 6 -2.0413 0.0320
2 -19 7 1.0162 0.0463
2 -19 8 2.3609 -0.0698
2 -19 9 0.6255 -0.0364
2 -19 10 -1.4099 0.0429
2 -19 11 -2.0055 0.0235
2 -19 12 1.1314 -0.0377
2 -19 13 2.1136 0.0045
2 -19 14 0.1456 0.0770
2 -19 15 -2.8183 -0.0124
2 -19 16 -5.0995 -0.0729
2 -19 17 -0.4277 0.0390
2 -19 18 3.5193 0.0497
2 -19 19 -1.2291 -0.0285
2 -19 20 -2.9464 0.0184
2 -18 0 -0.3419 0.1063
2 -18 1 -0.7874 -0.1793
2 -18 2 -0.8287 -0.0857
2 -18 3 -0.8385 0.1178
2 -18 4 1.2237 -0.0224
2 -18 5 -0.3187 -0.1292
2 -18 6 -1.5315 0.0146
2 -18 7 0.5657 0.0445
2 -18 8 1.4952 -0.0387
2 -18 9 0.4280 -0.0272
2 -18 10 -1.8919 0.0337
2 -18 11 0.5298 0.0295
2 -18 12 4.6184 -0.0115
2 -18 13 1.9879 0.0137
2 -18 14 -2.4118 0.0271
2 -18 15 -4.4078 -0.0340
2 -18 16 -1.8691 -0.0086
2 -18 17 2.7678 0.0655
2 -18 18 -1.5725 0.0087
2 -18 19 -6.7414 -0.0550
2 -18 20 -0.3967 -0.0041
2 -18 21 3.8636 0.0575
2 -18 22 0.0870 0.0347
2 -17 0 -0.5588 0.2614
2 -17 1 0.4275 -0.0544
2 -17 2 0.6176 0.0166
2 -17 3 -1.8187 0.0792
2 -17 4 -1.2118 -0.0424
2 -17 5 0.1172 -0.0550
2 -17 6 -0.6023 -0.0184
2 -17 7 -1.4584 -0.0037
2 -17 8 0.5097 0.0343
2 -17 9 1.1142 0.0144
2 -17 10 0.4753 -0.0140
2 -17 11 3.4278 -0.0002
2 -17 12 1.0285 0.0070
2 -17 13 -3.0367 0.0239
2 -17 14 1.3704 0.0118
2 -17 15 1.9070 -0.0336
2 -17 16 -1.9379 -0.0101
2 -17 17 -0.8170 0.0353
2 -17 18 -1.7312 0.0113
2 -17 19 -2.5577 -0.0361
2 -17 20 0.7470 -0.0273
2 -17 21 -1.4398 0.0316
2 -17 22 -4.1958 0.0057
2 -17 23 -0.2094 -0.0472
2 -16 0 -0.5305 -0.0113
2 -16 1 -0.5273 0.0859
2 -16 2 0.0931 0.1610
2 -16 3 -0.8578 -0.0069
2 -16 4 -2.3655 -0.0117
2 -16 5 -0.5917 0.0609
2 -16 6 1.2281 -0.0591
2 -16 7 -0.6811 -0.0312
2 -16 8 0.4621 0.1026
2 -16 9 1.8678 0.0054
2 -16 10 -0.0712 -0.0905
2 -16 11 -0.7927 -0.0014
2 -16 12 -1.6714 0.0601
2 -16 13 0.6625 0.0062
2 -16 14 3.6071 -0.0394
2 -16 15 0.3640 -0.0073
2 -16 16 1.4036 0.0087
2 -16 17 3.9136 -0.0131
2 -16 18 -3.2751 0.0180
2 -16 19 -4.8101 0.0045
2 -16 20 1.6758 -0.0538
2 -16 21 -1.0857 -0.0139
2 -16 22 -3.6345 -0.0029
2 -16 23 0.7405 -0.0340
2 -16 24 -1.4737 -0.0125
2 -15 0 -2.1516 -0.3060
2 -15 1 -1.6684 0.1203
2 -15 2 1.2514 0.1022
2 -15 3 -0.7538 -0.0827
2 -15 4 -3.0405 0.0781
2 -15 5 1.5249 0.1264
2 -15 6 2.4951 -0.0608
2 -15 7 -1.9567 -0.0342
2 -15 8 0.0520 0.0646
2 -15 9 1.0649 -0.0061
2 -15 10 -2.0966 -0.0595
2 -15 11 -1.0589 -0.0030
2 -15 12 0.7618 0.0475
2 -15 13 1.7844 0.0026
2 -15 14 1.5989 -0.0406
2 -15 15 0.4926 0.0138
2 -15 16 3.4680 0.0123
2 -15 17 2.1874 -0.0395
2 -15 18 -4.8185 0.0052
2 -15 19 -0.2573 0.0067
2 -15 20 6.4216 -0.0295
2 -15 21 -1.8322 0.0071
2 -15 22 -4.8187 -0.0199
2 -15 23 2.4431 -0.0363
2 -15 24 -0.1588 0.0226
2 -15 25 -3.8935 -0.0353
2 -15 26 -0.4052 -0.0952
2 -14 0 -3.0522 -0.1835
2 -14 1 -0.0810 0.0553
2 -14 2 3.5129 -0.1200
2 -14 3 -0.4417 -0.1433
2 -14 4 -4.6297 0.0614
2 -14 5 -0.0397 0.0999
2 -14 6 2.0282 0.0452
2 -14 7 -1.1897 -0.0165
2 -14 8 0.9318 -0.0732
2 -14 9 2.3366 0.0083
2 -14 10 -1.8134 0.0686
2 -14 11 -4.3011 0.0019
2 -14 12 0.1700 -0.0152
2 -14 13 6.5876 -0.0160
2 -14 14 2.3465 -0.0307
2 -14 15 -5.2112 0.0252
2 -14 16 0.0086 0.0236
2 -14 17 4.9489 -0.0322
2 -14 18 -0.6868 -0.0102
2 -14 19 0.1449 0.0055
2 -14 20 4.2547 0.0097
2 -14 21 -0.8662 0.0154
2 -14 22 -0.0954 -0.0336
2 -14 23 3.6037 -0.0167
2 -14 24 -3.3252 0.0504
2 -14 25 -3.7632 -0.0243
2 -14 26 3.5703 -0.1031
2 -13 0 -2.3565 0.2464
2 -13 1 0.7012 -0.1411
2 -13 2 2.9791 -0.3131
2 -13 3 -2.6508 -0.0767
2 -13 4 -4.2797 -0.0002
2 -13 5 3.6519 0.0054
2 -13 6 3.4279 0.1261
2 -13 7 -3.5134 0.0100
2 -13 8 -1.1637 -0.1367
2 -13 9 2.7795 0.0189
2 -13 10 -1.0883 0.1003
2 -13 11 -4.2695 -0.0130
2 -13 12 0.5507 -0.0385
2 -13 13 4.9745 -0.0137
2 -13 14 0.7884 -0.0162
2 -13 15 -2.8246 0.0072
2 -13 16 1.2633 0.0124
2 -13 17 2.6327 0.0058
2 -13 18 -1.7852 0.0031
2 -13 19 0.1424 -0.0173
2 -13 20 3.2169 -0.0071
2 -13 21 -1.3007 0.0134
2 -13 22 -1.0826 -0.0053
2 -13 23 3.1539 -0.0169
2 -13 24 2.3967 0.0188
2 -13 25 1.2348 0.0079
2 -13 26 -0.1199 -0.0454
2 -13 27 -0.9705 0.0239
2 -12 0 -3.5352 0.3739
2 -12 1 2.3220 -0.2398
2 -12 2 4.3734 -0.1532
2 -12 3 -1.4206 0.1397
2 -12 4 -2.7096 -0.0072
2 -12 5 3.0471 -0.1115
2 -12 6 2.3863 0.0177
2 -12 7 -2.4860 0.0250
2 -12 8 -1.5522 -0.0228
2 -12 9 0.7181 -0.0179
2 -12 10 -1.5241 -0.0254
2 -12 11 -3.5691 0.0095
2 -12 12 -0.0650 0.0368
2 -12 13 4.1103 -0.0098
2 -12 14 3.0543 -0.0373
2 -12 15 -1.0892 -0.0193
2 -12 16 -1.7856 0.0048
2 -12 17 0.7243 0.0083
2 -12 18 -0.2339 -0.0200
2 -12 19 -1.6916 -0.0117
2 -12 20 -1.0601 0.0030
2 -12 21 -0.6990 -0.0186
2 -12 22 2.2378 -0.0067
2 -12 23 4.5019 0.0047
2 -12 24 1.2838 0.0149
2 -12 25 -3.3345 0.0018
2 -12 26 -1.3000 -0.0651
2 -12 27 5.0909 -0.0082
2 -12 28 2.9962 0.1015
2 -11 0 -0.7734 0.0652
2 -11 1 4.0818 0.1113
2 -11 2 2.2301 0.2961
2 -11 3 -4.0156 0.1584
2 -11 4 -2.1579 -0.0629
2 -11 5 5.1890 -0.1034
2 -11 6 3.6617 -0.1091
2 -11 7 -3.0327 -0.0180
2 -11 8 -3.1747 0.1164
2 -11 9 -0.0879 0.0190
2 -11 10 -0.7179 -0.0971
2 -11 11 -0.7940 -0.0106
2 -11 12 0.8802 0.0581
2 -11 13 -0.1485 0.0202
2 -11 14 0.0240 -0.0343
2 -11 15 1.1164 -0.0518
2 -11 16 0.1503 0.0037
2 -11 17 -0.1678 0.0146
2 -11 18 -1.7705 -0.0444
2 -11 19 -2.7811 -0.0100
2 -11 20 0.4095 0.0187
2 -11 21 2.2244 -0.0150
2 -11 22 -0.4764 0.0022
2 -11 23 -0.7417 -0.0092
2 -11 24 2.0367 -0.0206
2 -11 25 -1.3909 -0.0080
2 -11 26 -2.4682 -0.0608
2 -11 27 4.1936 -0.0150
2 -11 28 3.4387 0.1297
2 -11 29 -0.1019 0.0132
2 -10 0 0.1688 -0.3021
2 -10 1 -0.0936 0.4558
2 -10 2 -2.2197 0.4559
2 -10 3 -2.7459 -0.0760
2 -10 4 1.1537 -0.1231
2 -10 5 3.3968 0.0275
2 -10 6 1.1224 -0.0561
2 -10 7 -0.1494 -0.0101
2 -10 8 0.2742 0.1186
2 -10 9 -1.1706 0.0354
2 -10 10 -2.3909 -0.0412
2 -10 11 0.2051 -0.0259
2 -10 12 0.6685 -0.0197
2 -10 13 -1.9527 0.0302
2 -10 14 0.3782 0.0484
2 -10 15 1.7084 -0.0164
2 -10 16 -1.0385 -0.0178
2 -10 17 -0.4869 0.0011
2 -10 18 -0.0588 -0.0253
2 -10 19 -0.9671 0.0072
2 -10 20 0.8795 0.0220
2 -10 21 0.6417 -0.0044
2 -10 22 -3.2233 -0.0055
2 -10 23 -0.4821 -0.0294
2 -10 24 3.8512 -0.0083
2 -10 25 -1.8465 0.0343
2 -10 26 -1.5144 -0.0407
2 -10 27 5.0963 -0.0588
2 -10 28 0.3080 0.1159
2 -10 29 -2.0395 0.0728
2 -10 30 2.9777 -0.2229
2 -9 0 2.6132 -0.4285
2 -9 1 -1.9629 0.1053
2 -9 2 -2.8234 0.0838
2 -9 3 0.1870 -0.1271
2 -9 4 0.5760 -0.0417
2 -9 5 -1.5530 0.0781
2 -9 6 0.3059 0.0764
2 -9 7 3.6282 0.0351
2 -9 8 1.7035 -0.0419
2 -9 9 -2.0958 -0.0161
2 -9 10 -1.8535 0.0841
2 -9 11 0.9664 0.0122
2 -9 12 -0.3183 -0.0825
2 -9 13 -2.8311 0.0094
2 -9 14 0.2032 0.0947
2 -9 15 1.5229 0.0263
2 -9 16 -0.7996 -0.0286
2 -9 17 -0.0722 -0.0016
2 -9 18 1.3519 0.0256
2 -9 19 0.1008 0.0226
2 -9 20 -1.1783 -0.0176
2 -9 21 -0.9124 -0.0061
2 -9 22 -0.7780 0.0372
2 -9 23 2.4396 -0.0013
2 -9 24 4.2249 -0.0284
2 -9 25 -1.3542 0.0299
2 -9 26 -1.9176 0.0200
2 -9 27 0.4522 -0.0469
2 -9 28 -1.0874 0.0729
2 -9 29 3.2694 0.1090
2 -9 30 5.5250 -0.1751
2 -8 0 9.3764 -0.1562
2 -8 1 -2.3189 -0.5245
2 -8 2 -3.8289 -0.4020
2 -8 3 0.4128 0.0626
2 -8 4 -1.8946 0.1431
2 -8 5 -5.1706 -0.0154
2 -8 6 0.7040 -0.0059
2 -8 7 6.7775 0.0186
2 -8 8 2.5090 -0.0517
2 -8 9 -2.8016 -0.0255
2 -8 10 -0.8578 0.0388
2 -8 11 1.1560 0.0237
2 -8 12 -2.5339 -0.0174
2 -8 13 -3.3359 -0.0379
2 -8 14 1.6712 0.0136
2 -8 15 1.6529 0.0564
2 -8 16 -2.1181 0.0172
2 -8 17 -1.3760 -0.0184
2 -8 18 1.6423 0.0095
2 -8 19 1.0478 0.0252
2 -8 20 -0.6164 -0.0082
2 -8 21 0.9136 -0.0039
2 -8 22 0.9459 0.0228
2 -8 23 1.1173 0.0090
2 -8 24 1.6952 -0.0252
2 -8 25 -0.5468 0.0177
2 -8 26 0.8981 0.0713
2 -8 27 1.0571 -0.0231
2 -8 28 -2.1804 -0.0386
2 -8 29 1.8943 0.0796
2 -8 30 6.1289 0.0012
2 -8 31 1.8330 -0.1676
2 -7 0 7.3017 0.3736
2 -7 1 -8.6432 -0.4509
2 -7 2 -1.6662 -0.4283
2 -7 3 6.1611 0.0757
2 -7 4 -2.8305 0.1231
2 -7 5 -10.1791 -0.0378
2 -7 6 -0.0744 -0.0643
2 -7 7 9.5475 -0.0354
2 -7 8 2.5200 -0.0094
2 -7 9 -4.7655 -0.0151
2 -7 10 -0.2730 -0.0637
2 -7 11 2.8740 0.0044
2 -7 12 -2.0939 0.0605
2 -7 13 -3.4221 -0.0472
2 -7 14 0.1579 -0.0752
2 -7 15 -0.3324 0.0183
2 -7 16 -2.2477 0.0419
2 -7 17 -0.9291 -0.0217
2 -7 18 2.4230 -0.0313
2 -7 19 1.7984 0.0192
2 -7 20 -1.5170 0.0144
2 -7 21 -0.3726 -0.0442
2 -7 22 0.8845 -0.0322
2 -7 23 1.1976 0.0589
2 -7 24 1.9968 0.0184
2 -7 25 1.6370 -0.0499
2 -7 26 1.6831 0.0271
2 -7 27 -1.2754 -0.0005
2 -7 28 -3.7399 -0.0725
2 -7 29 1.9555 0.0698
2 -7 30 7.3925 0.1065
2 -7 31 3.1710 -0.1796
2 -6 0 -1.8513 0.5362
2 -6 1 -8.2128 0.2320
2 -6 2 6.3041 0.0691
2 -6 3 7.5975 -0.0930
2 -6 4 -6.4474 -0.0772
2 -6 5 -10.0072 0.0793
2 -6 6 1.4782 0.0332
2 -6 7 7.0137 -0.0699
2 -6 8 -0.8266 0.0011
2 -6 9 -3.5847 0.0425
2 -6 10 3.6849 -0.0541
2 -6 11 3.9368 -0.0323
2 -6 12 -4.5025 0.0280
2 -6 13 -4.5464 -0.0142
2 -6 14 1.6013 -0.0478
2 -6 15 1.3833 -0.0304
2 -6 16 -2.2928 0.0138
2 -6 17 -2.5616 0.0116
2 -6 18 1.4266 -0.0311
2 -6 19 1.4713 -0.0377
2 -6 20 -1.5832 0.0032
2 -6 21 -0.0423 -0.0034
2 -6 22 0.7234 -0.0303
2 -6 23 0.3756 0.0242
2 -6 24 1.8032 -0.0023
2 -6 25 1.7123 -0.0719
2 -6 26 0.3568 0.0126
2 -6 27 -0.6803 0.0604
2 -6 28 -1.4519 -0.0428
2 -6 29 -0.1408 -0.0387
2 -6 30 3.8635 0.0466
2 -6 31 3.1707 -0.0878
2 -5 0 -5.6717 0.1184
2 -5 1 -7.2606 0.5731
2 -5 2 4.2145 0.4137
2 -5 3 3.1540 -0.1214
2 -5 4 -3.4795 -0.0930
2 -5 5 -3.7615 0.1318
2 -5 6 0.7414 0.1209
2 -5 7 2.9804 0.0433
2 -5 8 0.2423 0.0222
2 -5 9 -1.6227 0.0055
2 -5 10 0.9050 -0.0084
2 -5 11 1.6792 0.0050
2 -5 12 -1.1205 -0.0100
2 -5 13 -0.0137 0.0312
2 -5 14 0.9121 0.0400
2 -5 15 -1.7337 -0.0399
2 -5 16 -2.1580 -0.0198
2 -5 17 0.0659 0.0442
2 -5 18 2.4606 0.0013
2 -5 19 0.2305 -0.0569
2 -5 20 -2.4422 0.0048
2 -5 21 -0.1841 0.0336
2 -5 22 0.9127 -0.0312
2 -5 23 0.2242 -0.0172
2 -5 24 0.2354 0.0183
2 -5 25 0.0376 -0.0071
2 -5 26 0.4954 -0.0038
2 -5 27 2.0931 0.0304
2 -5 28 -0.4324 -0.0166
2 -5 29 -4.0384 -0.0380
2 -5 30 1.2369 0.0536
2 -5 31 5.0927 -0.0120
2 -4 0 -14.6063 -0.4601
2 -4 1 -8.3994 0.1303
2 -4 2 -1.1985 0.2149
2 -4 3 -3.6636 0.1175
2 -4 4 0.4420 0.1251
2 -4 5 7.0401 -0.0205
2 -4 6 3.5344 0.0093
2 -4 7 -4.1139 0.1088
2 -4 8 -3.8737 0.0238
2 -4 9 0.9331 -0.0489
2 -4 10 4.0091 0.0424
2 -4 11 3.1703 0.0827
2 -4 12 -1.0265 -0.0082
2 -4 13 -1.7907 0.0247
2 -4 14 -0.5842 0.0738
2 -4 15 -0.1639 0.0080
2 -4 16 0.2653 -0.0270
2 -4 17 0.6909 0.0137
2 -4 18 1.5323 0.0302
2 -4 19 -0.2188 -0.0120
2 -4 20 -1.3083 0.0074
2 -4 21 0.5037 0.0506
2 -4 22 0.6806 0.0115
2 -4 23 -0.8148 -0.0376
2 -4 24 -0.7675 0.0080
2 -4 25 0.2201 0.0454
2 -4 26 -0.4648 -0.0188
2 -4 27 0.4809 0.0047
2 -4 28 0.5554 0.0707
2 -4 29 -1.5361 0.0136
2 -4 30 0.9785 -0.0176
2 -4 31 1.8469 0.0126
2 -4 32 -2.0044 -0.0214
2 -3 0 -14.7247 -0.5160
2 -3 1 -11.5068 -0.3086
2 -3 2 -11.9902 -0.1851
2 -3 3 -7.6964 0.1434
2 -3 4 7.0641 0.1221
2 -3 5 10.2886 -0.1704
2 -3 6 -4.0515 -0.1276
2 -3 7 -9.9600 -0.0318
2 -3 8 2.7423 -0.0067
2 -3 9 8.1604 0.0282
2 -3 10 1.7837 0.0605
2 -3 11 -0.7283 0.0344
2 -3 12 0.0907 -0.0250
2 -3 13 0.4360 -0.0130
2 -3 14 -0.6948 0.0166
2 -3 15 -1.5685 0.0328
2 -3 16 -0.7359 0.0040
2 -3 17 1.2717 -0.0134
2 -3 18 1.6172 0.0253
2 -3 19 -0.5716 0.0290
2 -3 20 -0.4195 0.0076
2 -3 21 0.9258 0.0156
2 -3 22 0.9317 0.0174
2 -3 23 -0.5584 -0.0271
2 -3 24 -1.5655 0.0019
2 -3 25 -1.4774 0.0518
2 -3 26 -2.2036 -0.0121
2 -3 27 0.9209 -0.0099
2 -3 28 3.0435 0.0652
2 -3 29 -1.4435 0.0341
2 -3 30 -3.2157 -0.0155
2 -3 31 0.0097 0.0495
2 -3 32 1.2566 0.0862
2 -2 0 -5.6275 0.0055
2 -2 1 -10.9096 -0.2885
2 -2 2 -17.3947 -0.3254
2 -2 3 -9.8479 -0.0430
2 -2 4 1.9219 -0.1468
2 -2 5 0.7029 -0.1635
2 -2 6 -7.0104 -0.0387
2 -2 7 -2.8705 -0.1121
2 -2 8 7.5908 -0.0457
2 -2 9 2.6296 0.0372
2 -2 10 -3.5744 -0.0343
2 -2 11 2.6908 -0.0696
2 -2 12 5.2236 -0.0214
2 -2 13 -0.0697 -0.0353
2 -2 14 -2.6612 -0.0442
2 -2 15 -1.2407 0.0507
2 -2 16 -0.8638 0.0345
2 -2 17 -0.2582 -0.0524
2 -2 18 0.2291 -0.0230
2 -2 19 0.1582 0.0309
2 -2 20 0.0049 -0.0070
2 -2 21 -0.8738 -0.0262
2 -2 22 0.8091 0.0196
2 -2 23 0.4480 -0.0122
2 -2 24 -1.9529 -0.0342
2 -2 25 -1.1402 0.0203
2 -2 26 -0.8784 0.0173
2 -2 27 -0.7568 -0.0227
2 -2 28 -0.4225 0.0144
2 -2 29 -1.2437 0.0379
2 -2 30 -1.6397 -0.0430
2 -2 31 -1.0249 0.0003
2 -2 32 -0.8889 0.1411
2 -1 0 25.2818 0.3424
2 -1 1 -9.5707 -0.1261
2 -1 2 -32.8448 -0.0017
2 -1 3 -12.5490 0.0482
2 -1 4 8.2972 -0.2391
2 -1 5 1.0876 -0.0315
2 -1 6 -12.5578 0.0989
2 -1 7 -6.9164 -0.0851
2 -1 8 5.2519 -0.0569
2 -1 9 0.8250 -0.0156
2 -1 10 -2.9100 -0.0789
2 -1 11 4.4688 -0.0579
2 -1 12 5.1236 0.0268
2 -1 13 -1.8060 -0.0180
2 -1 14 -1.7889 -0.0597
2 -1 15 2.0056 0.0191
2 -1 16 0.5323 0.0174
2 -1 17 -1.5953 -0.0491
2 -1 18 -2.2224 -0.0390
2 -1 19 -0.9921 0.0186
2 -1 20 -0.3541 -0.0038
2 -1 21 -1.2027 -0.0448
2 -1 22 0.8489 -0.0071
2 -1 23 0.5471 0.0153
2 -1 24 -0.7804 -0.0185
2 -1 25 0.4619 -0.0321
2 -1 26 -0.8537 -0.0042
2 -1 27 -2.9467 -0.0204
2 -1 28 -2.0447 -0.0119
2 -1 29 -0.1893 0.0155
2 -1 30 -1.1009 -0.0476
2 -1 31 -1.9348 -0.0327
2 -1 32 -1.3546 0.0580
2 0 0 40.4206 0.3309
2 0 1 -10.8274 0.1712
2 0 2 -25.4386 0.3029
2 0 3 7.3500 0.1098
2 0 4 13.1363 -0.0639
2 0 5 -12.9710 0.1237
2 0 6 -20.6731 0.0614
2 0 7 0.1235 0.0128
2 0 8 11.2149 0.0831
2 0 9 -2.7422 0.0203
2 0 10 -9.5404 -0.0306
2 0 11 1.7042 -0.0166
2 0 12 6.5642 0.0390
2 0 13 -0.6771 0.0460
2 0 14 -1.0466 -0.0090
2 0 15 3.8321 -0.0482
2 0 16 2.0419 -0.0154
2 0 17 -2.0782 0.0312
2 0 18 -3.2670 0.0072
2 0 19 -0.3207 -0.0105
2 0 20 -0.0020 -0.0019
2 0 21 -2.1223 -0.0007
2 0 22 0.6278 0.0012
2 0 23 2.2306 0.0136
2 0 24 -0.0294 -0.0265
2 0 25 -1.5361 -0.0617
2 0 26 -0.4142 0.0084
2 0 27 -0.2105 0.0303
2 0 28 -1.8769 -0.0176
2 0 29 -0.5120 -0.0441
2 0 30 0.8735 -0.0136
2 0 31 -0.9181 0.0119
2 0 32 -3.5891 -0.0683
2 1 0 55.9111 0.0636
2 1 1 4.5099 0.1135
2 1 2 -11.9194 0.0479
2 1 3 10.2915 -0.0440
2 1 4 7.4911 0.1975
2 1 5 -9.5053 0.2038
2 1 6 -7.7297 -0.0343
2 1 7 3.9797 0.1024
2 1 8 3.3559 0.1234
2 1 9 -5.8473 0.0045
2 1 10 -5.8792 0.0516
2 1 11 2.5673 0.0316
2 1 12 3.5446 0.0032
2 1 13 -2.7836 0.0672
2 1 14 -0.4514 0.0449
2 1 15 4.1793 -0.0521
2 1 16 1.8327 -0.0040
2 1 17 -1.1152 0.0757
2 1 18 -1.3823 0.0218
2 1 19 0.5470 -0.0292
2 1 20 -0.0682 0.0248
2 1 21 -1.1430 0.0541
2 1 22 0.5001 -0.0240
2 1 23 0.4762 -0.0229
2 1 24 -0.8068 0.0246
2 1 25 -0.1212 -0.0064
2 1 26 2.5362 -0.0103
2 1 27 1.2460 0.0304
2 1 28 -1.6721 0.0005
2 1 29 0.0153 -0.0533
2 1 30 0.7858 0.0570
2 1 31 -0.7704 0.0344
2 1 32 -1.2310 -0.2112
2 2 0 50.0889 -0.3548
2 2 1 -2.3934 -0.0845
2 2 2 -5.4170 -0.1785
2 2 3 19.6588 -0.1613
2 2 4 13.2926 0.1812
2 2 5 -4.4697 0.0476
2 2 6 -5.8301 -0.0905
2 2 7 1.5858 0.0824
2 2 8 3.9344 -0.0557
2 2 9 -0.0758 -0.0911
2 2 10 -4.2299 0.1185
2 2 11 -0.9194 0.0794
2 2 12 2.7036 -0.0532
2 2 13 -0.2575 -0.0009
2 2 14 -1.3368 0.0500
2 2 15 -0.3561 -0.0040
2 2 16 1.1334 -0.0147
2 2 17 1.7196 0.0206
2 2 18 0.0651 0.0365
2 2 19 -0.0341 -0.0081
2 2 20 -0.2810 -0.0089
2 2 21 -0.4207 0.0351
2 2 22 -0.0435 -0.0077
2 2 23 -0.1547 -0.0070
2 2 24 -0.1712 0.0448
2 2 25 0.6790 0.0079
2 2 26 2.7933 -0.0343
2 2 27 1.6747 0.0323
2 2 28 -0.6538 0.0118
2 2 29 -0.4198 -0.0613
2 2 30 0.7018 0.0664
2 2 31 2.2067 0.0092
2 2 32 1.4301 -0.1901
2 3 0 23.2473 -0.1700
2 3 1 2.5645 0.0631
2 3 2 11.2855 -0.0904
2 3 3 15.7233 -0.1543
2 3 4 3.5728 -0.0608
2 3 5 0.3332 -0.1971
2 3 6 2.6027 -0.1104
2 3 7 -0.9099 0.0200
2 3 8 -1.4156 -0.1114
2 3 9 3.0593 -0.0907
2 3 10 1.6980 0.0198
2 3 11 -1.2926 0.0141
2 3 12 -1.3222 -0.0378
2 3 13 0.1755 -0.0605
2 3 14 1.2572 -0.0245
2 3 15 -0.5005 0.0362
2 3 16 -0.4928 -0.0089
2 3 17 -0.3051 -0.0692
2 3 18 -0.2495 0.0131
2 3 19 1.0772 0.0259
2 3 20 0.0785 -0.0268
2 3 21 -0.0244 -0.0038
2 3 22 0.3792 0.0086
2 3 23 -1.0672 -0.0052
2 3 24 -1.4637 0.0024
2 3 25 0.5475 -0.0031
2 3 26 1.9118 -0.0226
2 3 27 1.1890 0.0222
2 3 28 1.8344 -0.0132
2 3 29 1.5057 -0.0256
2 3 30 0.1742 0.0743
2 3 31 0.8220 -0.0789
2 4 0 13.8641 0.3580
2 4 1 10.2433 0.2315
2 4 2 7.7882 0.0514
2 4 3 -2.0311 -0.0577
2 4 4 0.6561 -0.1145
2 4 5 12.2775 -0.0991
2 4 6 5.7081 -0.0184
2 4 7 -9.1558 -0.0528
2 4 8 -4.0569 -0.0035
2 4 9 7.7718 0.0079
2 4 10 2.0853 -0.1322
2 4 11 -6.1178 -0.0749
2 4 12 -1.3498 0.0433
2 4 13 5.9510 -0.0285
2 4 14 1.6302 -0.0746
2 4 15 -4.5860 0.0223
2 4 16 -0.7136 0.0027
2 4 17 1.2913 -0.0715
2 4 18 0.2413 0.0027
2 4 19 0.9928 0.0385
2 4 20 0.2212 -0.0205
2 4 21 0.5500 -0.0455
2 4 22 0.4256 -0.0086
2 4 23 -2.0981 -0.0028
2 4 24 -2.7577 -0.0132
2 4 25 -0.7185 -0.0012
2 4 26 1.4219 -0.0044
2 4 27 4.0337 0.0013
2 4 28 3.9863 -0.0354
2 4 29 -1.6249 0.0294
2 4 30 -2.5169 0.0499
2 4 31 2.3690 -0.1798
2 5 0 -6.6481 0.1887
2 5 1 9.3117 0.1824
2 5 2 10.2971 0.2692
2 5 3 -8.4340 0.0753
2 5 4 -4.0550 -0.0303
2 5 5 14.5745 0.1841
2 5 6 7.7782 0.1244
2 5 7 -11.7143 -0.1058
2 5 8 -6.9223 0.0570
2 5 9 7.8228 0.1088
2 5 10 4.8257 -0.0882
2 5 11 -4.8585 -0.0689
2 5 12 -3.3158 0.0640
2 5 13 3.3180 0.0508
2 5 14 -0.3623 -0.0326
2 5 15 -2.9602 -0.0079
2 5 16 2.8563 0.0341
2 5 17 2.1150 0.0022
2 5 18 -0.3130 -0.0306
2 5 19 0.9963 0.0032
2 5 20 0.2635 0.0187
2 5 21 0.2125 -0.0281
2 5 22 0.4321 -0.0030
2 5 23 -1.2404 0.0125
2 5 24 -1.5675 -0.0165
2 5 25 -0.2748 -0.0164
2 5 26 0.6606 0.0152
2 5 27 1.9311 0.0208
2 5 28 1.1192 -0.0423
2 5 29 -0.4668 0.0146
2 5 30 2.1599 0.0018
2 5 31 2.8575 -0.1444
2 6 0 -10.3094 -0.4047
2 6 1 14.8297 -0.1368
2 6 2 9.4281 0.2550
2 6 3 -14.0597 0.1660
2 6 4 -6.8784 0.0221
2 6 5 13.3199 0.1444
2 6 6 4.8093 0.1083
2 6 7 -11.9191 -0.0036
2 6 8 -2.2560 0.0379
2 6 9 10.5583 0.0497
2 6 10 2.8207 0.0721
2 6 11 -8.5775 0.0452
2 6 12 -3.4964 0.0065
2 6 13 5.9106 0.0580
2 6 14 -0.4309 0.0327
2 6 15 -4.2073 -0.0262
2 6 16 2.7487 0.0305
2 6 17 2.3462 0.0653
2 6 18 -0.1910 -0.0220
2 6 19 1.3027 -0.0173
2 6 20 0.8775 0.0357
2 6 21 0.1986 0.0062
2 6 22 0.5675 0.0041
2 6 23 0.1877 0.0102
2 6 24 -0.4810 0.0143
2 6 25 -1.0753 -0.0066
2 6 26 -0.7510 -0.0148
2 6 27 0.6230 -0.0025
2 6 28 0.5372 -0.0063
2 6 29 1.0660 0.0481
2 6 30 2.2750 -0.0148
2 7 0 -9.1490 -0.4675
2 7 1 9.5243 -0.3838
2 7 2 7.2459 -0.1228
2 7 3 -10.5883 0.1087
2 7 4 -7.9740 0.0263
2 7 5 6.5953 -0.1549
2 7 6 2.8591 -0.0418
2 7 7 -5.6070 0.1491
2 7 8 -0.5858 -0.0033
2 7 9 3.2435 -0.0854
2 7 10 0.1017 0.1187
2 7 11 -2.7423 0.0797
2 7 12 1.7033 -0.0600
2 7 13 4.6995 0.0061
2 7 14 -3.7827 0.0450
2 7 15 -5.6610 -0.0158
2 7 16 1.3003 0.0046
2 7 17 2.4428 0.0505
2 7 18 2.0439 0.0050
2 7 19 1.4634 -0.0009
2 7 20 -1.2556 0.0095
2 7 21 -0.4876 0.0004
2 7 22 1.8512 0.0060
2 7 23 0.3336 0.0069
2 7 24 -1.9330 0.0140
2 7 25 -0.8076 -0.0206
2 7 26 1.1935 -0.0052
2 7 27 -0.7575 0.0300
2 7 28 -3.4440 0.0212
2 7 29 0.1058 0.0185
2 7 30 3.6962 -0.0505
2 8 0 -4.3572 0.2345
2 8 1 6.4841 -0.2382
2 8 2 2.1537 -0.5145
2 8 3 -7.6361 -0.0404
2 8 4 -1.6150 0.1032
2 8 5 6.4825 -0.2167
2 8 6 -2.2328 -0.1422
2 8 7 -8.3685 0.1000
2 8 8 -2.1636 -0.0348
2 8 9 3.5653 -0.1043
2 8 10 4.0115 0.0186
2 8 11 -0.6047 0.0079
2 8 12 -0.7562 -0.0473
2 8 13 1.4492 -0.0422
2 8 14 -2.2519 0.0132
2 8 15 -2.0069 0.0151
2 8 16 0.7909 -0.0357
2 8 17 -0.4027 -0.0163
2 8 18 0.0170 0.0263
2 8 19 1.0656 0.0036
2 8 20 0.2554 -0.0408
2 8 21 0.1853 -0.0091
2 8 22 0.0217 0.0045
2 8 23 -1.1552 -0.0004
2 8 24 -1.5954 0.0203
2 8 25 -0.5586 -0.0061
2 8 26 -0.0069 -0.0074
2 8 27 -2.2307 -0.0160
2 8 28 -2.7097 0.0075
2 8 29 0.9192 0.0587
2 9 0 -1.1413 0.7405
2 9 1 1.9406 0.2303
2 9 2 2.9345 -0.3363
2 9 3 0.6399 -0.1632
2 9 4 -0.2215 0.0979
2 9 5 -1.8313 0.0682
2 9 6 -4.5698 -0.0575
2 9 7 -0.5991 -0.1146
2 9 8 1.6844 -0.0293
2 9 9 -0.4269 0.0383
2 9 10 -0.1756 -0.0714
2 9 11 -0.3455 -0.0619
2 9 12 0.6668 0.0210
2 9 13 1.4532 -0.0388
2 9 14 0.3535 -0.0110
2 9 15 0.5430 0.0303
2 9 16 -1.2007 -0.0500
2 9 17 -2.5276 -0.0688
2 9 18 -0.1287 -0.0103
2 9 19 0.8216 0.0012
2 9 20 0.3434 0.0047
2 9 21 0.9884 0.0173
2 9 22 0.7754 -0.0272
2 9 23 -1.0887 -0.0176
2 9 24 -3.0224 -0.0042
2 9 25 -1.9541 -0.0243
2 9 26 0.4499 0.0210
2 9 27 -1.1426 -0.0042
2 9 28 -2.5792 -0.0188
2 10 0 2.2328 0.2974
2 10 1 0.5275 0.4075
2 10 2 0.5319 0.2850
2 10 3 -0.2321 -0.0845
2 10 4 -0.3665 -0.0831
2 10 5 0.0719 0.2244
2 10 6 0.7595 0.1088
2 10 7 1.2144 -0.1339
2 10 8 -3.0816 0.0182
2 10 9 -3.9527 0.0931
2 10 10 1.6459 -0.0756
2 10 11 3.6855 -0.0127
2 10 12 1.0423 0.0771
2 10 13 -1.1375 -0.0127
2 10 14 0.5280 -0.0217
2 10 15 2.3903 -0.0051
2 10 16 0.0497 -0.0325
2 10 17 -2.4850 -0.0165
2 10 18 -2.2219 0.0025
2 10 19 0.5637 -0.0026
2 10 20 3.3964 0.0259
2 10 21 1.6613 0.0078
2 10 22 -0.6095 -0.0494
2 10 23 0.4666 -0.0062
2 10 24 -0.7795 -0.0039
2 10 25 -2.2923 -0.0189
2 10 26 -1.1675 0.0295
2 10 27 -1.9931 -0.0127
2 10 28 -1.1893 -0.0165
2 11 0 1.3255 -0.5630
2 11 1 -4.7380 0.1151
2 11 2 -0.6914 0.5892
2 11 3 3.7146 0.0464
2 11 4 2.2026 -0.1796
2 11 5 -1.1805 0.1229
2 11 6 -1.1255 0.1126
2 11 7 -0.2451 -0.0162
2 11 8 -2.6337 0.0529
2 11 9 -2.2870 0.0436
2 11 10 1.5807 -0.0153
2 11 11 2.5083 0.0347
2 11 12 -0.1373 0.0472
2 11 13 -0.9297 0.0138
2 11 14 1.1443 -0.0157
2 11 15 1.0391 -0.0215
2 11 16 -0.4418 0.0361
2 11 17 -0.2756 0.0533
2 11 18 -0.3198 -0.0098
2 11 19 0.0072 -0.0263
2 11 20 0.9865 0.0307
2 11 21 0.6573 -0.0010
2 11 22 2.7018 -0.0434
2 11 23 3.7563 0.0221
2 11 24 -2.4325 0.0018
2 11 25 -3.8349 -0.0228
2 11 26 1.7576 0.0419
2 11 27 1.1437 0.0211
2 12 0 -1.3547 -0.7339
2 12 1 -3.7044 -0.2306
2 12 2 1.6603 0.2428
2 12 3 3.5100 0.1145
2 12 4 0.3381 -0.0557
2 12 5 -1.8080 -0.1243
2 12 6 -0.1644 -0.0234
2 12 7 0.5439 0.1142
2 12 8 -2.4104 0.0098
2 12 9 -3.6703 -0.0509
2 12 10 -0.7592 0.0495
2 12 11 0.9696 0.0084
2 12 12 -0.7193 -0.0384
2 12 13 -0.8319 0.0379
2 12 14 0.5879 0.0291
2 12 15 0.4075 0.0021
2 12 16 -0.3616 0.0284
2 12 17 -1.3710 0.0213
2 12 18 -2.1964 -0.0011
2 12 19 0.3179 -0.0001
2 12 20 2.9710 0.0242
2 12 21 -0.1805 -0.0028
2 12 22 -0.8358 -0.0244
2 12 23 3.1831 0.0132
2 12 24 1.2690 -0.0026
2 12 25 -0.4752 0.0027
2 12 26 1.6775 0.0434
2 13 0 -0.2015 -0.0732
2 13 1 -2.2891 -0.2585
2 13 2 -0.6309 -0.2815
2 13 3 0.8328 0.0658
2 13 4 1.3000 0.1033
2 13 5 0.9954 -0.1989
2 13 6 0.9578 -0.0758
2 13 7 -0.0135 0.0986
2 13 8 -2.5014 -0.0767
2 13 9 -2.9863 -0.0601
2 13 10 -1.0886 0.0585
2 13 11 -1.4578 -0.0411
2 13 12 -1.2601 -0.0442
2 13 13 2.0611 0.0243
2 13 14 1.4379 0.0083
2 13 15 -3.9574 0.0222
2 13 16 -6.0087 -0.0037
2 13 17 -0.9703 -0.0171
2 13 18 2.7108 0.0355
2 13 19 0.4549 0.0200
2 13 20 -1.8974 -0.0074
2 13 21 -3.4056 -0.0105
2 13 22 -0.0932 -0.0008
2 13 23 5.4651 0.0358
2 13 24 1.4778 0.0025
2 13 25 -2.8021 -0.0486
2 14 0 -2.1553 0.6542
2 14 1 -1.9037 -0.0656
2 14 2 -0.3707 -0.4954
2 14 3 0.7609 -0.0073
2 14 4 0.9107 0.1803
2 14 5 -0.0687 -0.0644
2 14 6 0.4599 -0.0404
2 14 7 1.2939 -0.0045
2 14 8 -0.7341 -0.0776
2 14 9 -1.3123 0.0110
2 14 10 0.7386 0.0189
2 14 11 0.2928 -0.0554
2 14 12 -0.0430 -0.0091
2 14 13 -0.0243 -0.0163
2 14 14 -1.3998 -0.0097
2 14 15 -2.2356 0.0461
2 14 16 -2.3603 -0.0138
2 14 17 -0.3535 -0.0286
2 14 18 -1.3188 0.0080
2 14 19 -3.4790 -0.0155
2 14 20 0.0751 0.0270
2 14 21 -0.2541 0.0542
2 14 22 -2.2158 -0.0070
2 14 23 1.2340 -0.0190
2 14 24 0.4504 -0.0164
2 15 0 1.5690 0.5646
2 15 1 1.1985 0.0629
2 15 2 -2.2633 -0.1919
2 15 3 -2.7853 -0.0108
2 15 4 0.2067 0.0995
2 15 5 1.0681 0.0884
2 15 6 0.4889 -0.0113
2 15 7 -0.2863 -0.0884
2 15 8 -2.0745 0.0206
2 15 9 0.6830 0.0711
2 15 10 3.5568 -0.0508
2 15 11 0.1396 -0.0180
2 15 12 -0.6589 0.0594
2 15 13 2.3948 -0.0226
2 15 14 3.9085 -0.0193
2 15 15 -0.2869 0.0134
2 15 16 -5.9658 -0.0435
2 15 17 -1.5994 -0.0087
2 15 18 2.3307 0.0454
2 15 19 -1.0117 0.0197
2 15 20 -2.0524 -0.0035
2 15 21 -2.9381 -0.0491
2 15 22 -1.3043 -0.0260
2 15 23 2.7141 0.1046
2 16 0 0.5725 -0.1071
2 16 1 -0.4426 0.1898
2 16 2 -0.8020 0.2740
2 16 3 -0.1101 -0.0692
2 16 4 0.4586 -0.0862
2 16 5 -1.2805 0.1259
2 16 6 -0.6964 0.0126
2 16 7 -0.4145 -0.0700
2 16 8 -4.9310 0.0608
2 16 9 -3.3882 0.0525
2 16 10 2.2154 -0.0175
2 16 11 4.0510 0.0325
2 16 12 4.8038 0.0253
2 16 13 1.5789 -0.0097
2 16 14 -1.3813 0.0000
2 16 15 -0.6393 -0.0359
2 16 16 0.7440 0.0095
2 16 17 2.5205 0.0934
2 16 18 -0.7071 -0.0030
2 16 19 -2.7793 -0.0971
2 16 20 0.9560 -0.0257
2 16 21 0.2932 0.0319
2 17 0 -0.7697 -0.5480
2 17 1 0.6390 0.2033
2 17 2 0.3062 0.4226
2 17 3 -1.2417 -0.1283
2 17 4 0.0521 -0.2171
2 17 5 0.1061 0.0403
2 17 6 0.8042 0.0782
2 17 7 -1.4931 0.0486
2 17 8 -7.7843 -0.0014
2 17 9 -4.0605 -0.0515
2 17 10 2.6694 0.0253
2 17 11 2.2250 0.0683
2 17 12 0.6747 -0.0036
2 17 13 -0.5229 -0.0056
2 17 14 0.5117 0.0233
2 17 15 0.8824 0.0236
2 17 16 -0.3956 0.0435
2 17 17 1.3836 -0.0045
2 17 18 2.0232 -0.0496
2 17 19 1.1226 0.0234
2 17 20 -0.2093 0.0316
2 18 0 -2.5790 -0.3187
2 18 1 -0.4483 -0.0153
2 18 2 -0.2203 0.0750
2 18 3 -0.7071 -0.0423
2 18 4 -0.1193 -0.0516
2 18 5 -1.9378 -0.0643
2 18 6 1.4396 0.0268
2 18 7 2.8952 0.0917
2 18 8 -3.8293 -0.0342
2 18 9 -4.6203 -0.0551
2 18 10 -2.6309 0.0402
2 18 11 -2.2729 -0.0007
2 18 12 1.2967 -0.0351
2 18 13 2.4327 0.0606
2 18 14 -1.1427 0.0690
2 18 15 -3.6799 -0.0171
2 18 16 0.4697 -0.0277
2 18 17 4.3560 0.0326
2 18 18 0.0003 0.0633
2 19 0 -0.5293 0.1674
2 19 1 1.1870 -0.2590
2 19 2 -1.3953 -0.2887
2 19 3 -3.1632 0.1218
2 19 4 -2.4066 0.1507
2 19 5 -1.9157 -0.1068
2 19 6 3.5125 -0.0358
2 19 7 3.2744 0.0482
2 19 8 -4.0821 -0.0072
2 19 9 -3.1928 -0.0002
2 19 10 0.1623 -0.0375
2 19 11 -0.2645 -0.0486
2 19 12 -0.3102 0.0470
2 19 13 0.0620 0.0347
2 19 14 -0.5841 -0.0358
2 19 15 -2.1350 0.0146
2 19 16 -0.6642 0.0476
2 20 0 1.6598 0.3540
2 20 1 1.6082 -0.1684
2 20 2 -0.8375 -0.2799
2 20 3 -0.7815 0.1311
2 20 4 -2.4937 0.1711
2 20 5 -4.8023 -0.0043
2 20 6 0.1911 -0.0222
2 20 7 1.7654 -0.1035
2 20 8 -1.0239 -0.0548
2 20 9 1.1854 0.0897
2 20 10 2.2136 0.0357
2 20 11 -0.4614 -0.0229
2 20 12 -1.9984 -0.0328
2 20 13 0.0929 -0.0630
2 20 14 1.6611 0.0313
2 21 0 3.4638 0.1449
2 21 1 0.2119 0.0718
2 21 2 0.8786 0.0216
2 21 3 3.8583 0.0484
2 21 4 -1.0785 -0.0276
2 21 5 -5.3891 0.0352
2 21 6 -1.3355 0.0624
2 21 7 0.4663 -0.1283
2 21 8 0.5074 -0.0657
2 21 9 1.6300 0.1133
2 21 10 0.5659 0.0535
2 21 11 0.2381 -0.0115
2 22 0 2.4704 -0.1818
2 22 1 -1.7170 0.2130
2 22 2 2.6661 0.2053
2 22 3 6.4539 -0.0589
2 22 4 0.0669 -0.1576
2 22 5 -3.7247 0.0587
2 22 6 -0.9648 0.1393
2 22 7 -0.0462 -0.0652
2 23 0 0.5218 -0.2406
3 -23 0 3.5493 0.0285
3 -23 1 0.4940 -0.1910
3 -23 2 2.2356 0.0353
3 -23 3 0.8602 0.1167
3 -23 4 -2.7623 -0.0103
3 -23 5 0.7162 -0.0719
3 -23 6 3.6795 0.0091
3 -23 7 1.1308 0.0729
3 -23 8 -3.3892 -0.0030
3 -23 9 -3.1793 0.0141
3 -22 0 0.1678 0.0543
3 -22 1 -0.6024 -0.1446
3 -22 2 4.2557 0.0434
3 -22 3 1.6869 0.0483
3 -22 4 -0.9887 -0.0805
3 -22 5 2.0831 -0.0477
3 -22 6 1.6253 0.0716
3 -22 7 -1.0255 0.0247
3 -22 8 -2.7450 -0.0562
3 -22 9 -0.9335 0.0187
3 -22 10 1.1853 0.0163
3 -22 11 -0.2552 -0.0218
3 -22 12 1.1453 0.0175
3 -21 0 0.6639 -0.0303
3 -21 1 -0.1476 0.0426
3 -21 2 3.0127 0.1216
3 -21 3 1.4615 -0.0083
3 -21 4 0.5444 -0.0646
3 -21 5 0.9103 0.0033
3 -21 6 0.5658 0.0127
3 -21 7 -0.5331 -0.0560
3 -21 8 -3.3169 0.0049
3 -21 9 0.1538 0.0575
3 -21 10 1.5768 -0.0746
3 -21 11 -3.8796 -0.0587
3 -21 12 0.6600 0.0441
3 -21 13 7.5074 -0.0314
3 -21 14 1.4400 -0.0056
3 -21 15 -5.5760 0.0898
3 -20 0 -2.1548 -0.1072
3 -20 1 -1.7394 0.1773
3 -20 2 2.4680 0.0875
3 -20 3 0.0167 -0.0509
3 -20 4 0.3978 0.0036
3 -20 5 2.3311 0.0404
3 -20 6 1.4970 0.0197
3 -20 7 -2.4350 -0.0206
3 -20 8 -4.9289 -0.0072
3 -20 9 1.3736 -0.0114
3 -20 10 2.8515 -0.0572
3 -20 11 -2.5462 0.0163
3 -20 12 -0.7659 0.0345
3 -20 13 0.9450 -0.0504
3 -20 14 -1.4226 0.0173
3 -20 15 -0.8703 0.0269
3 -20 16 0.9229 -0.0643
3 -20 17 2.4305 0.0549
3 -20 18 2.4778 0.0994
3 -19 0 -0.5868 -0.0641
3 -19 1 -1.0766 0.0107
3 -19 2 -2.9570 -0.1296
3 -19 3 -1.6119 0.0155
3 -19 4 4.2975 0.1175
3 -19 5 2.2739 -0.0010
3 -19 6 -1.1499 -0.0008
3 -19 7 -1.8842 0.0153
3 -19 8 -2.4416 -0.0205
3 -19 9 1.5648 0.0074
3 -19 10 1.5903 0.0443
3 -19 11 -3.6690 0.0376
3 -19 12 -3.2767 -0.0579
3 -19 13 1.9697 -0.0800
3 -19 14 3.0890 0.0819
3 -19 15 -3.6133 0.0594
3 -19 16 -5.7088 -0.0835
3 -19 17 2.6297 0.0148
3 -19 18 5.3456 0.0548
3 -19 19 -0.4026 -0.0103
3 -19 20 -2.3340 0.1084
3 -18 0 -1.5089 0.1581
3 -18 1 -2.4651 -0.2116
3 -18 2 -1.6480 -0.3293
3 -18 3 0.5875 0.0668
3 -18 4 1.8884 0.1148
3 -18 5 -1.2207 -0.1071
3 -18 6 -1.7368 -0.0298
3 -18 7 -0.4419 0.0637
3 -18 8 0.8478 0.0103
3 -18 9 1.3197 0.0005
3 -18 10 -1.7602 0.0246
3 -18 11 -1.2299 0.0335
3 -18 12 1.8653 -0.0339
3 -18 13 0.7476 -0.0554
3 -18 14 -2.8263 0.0777
3 -18 15 -4.9632 0.0473
3 -18 16 -1.0581 -0.0889
3 -18 17 3.2226 -0.0106
3 -18 18 0.9285 0.0317
3 -18 19 -1.3316 -0.0209
3 -18 20 -1.6266 0.0637
3 -18 21 -1.3409 0.0829
3 -17 0 -0.8321 0.2600
3 -17 1 0.5993 -0.1154
3 -17 2 -2.0690 -0.1838
3 -17 3 -3.0111 -0.0259
3 -17 4 0.3448 -0.0582
3 -17 5 0.2655 -0.0634
3 -17 6 -1.5554 0.0121
3 -17 7 -0.5024 -0.0232
3 -17 8 2.3958 -0.0051
3 -17 9 1.2648 0.0345
3 -17 10 -0.4187 -0.0390
3 -17 11 0.4634 -0.0157
3 -17 12 -2.4867 0.0433
3 -17 13 -2.1888 -0.0154
3 -17 14 2.2742 -0.0179
3 -17 15 0.6623 0.0131
3 -17 16 -0.8229 0.0004
3 -17 17 0.4792 -0.0016
3 -17 18 -0.3266 -0.0532
3 -17 19 -1.4054 -0.0522
3 -17 20 -2.9132 0.0647
3 -17 21 -2.1780 0.0311
3 -17 22 1.0089 -0.0694
3 -17 23 -0.2959 0.0336
3 -16 0 -2.3037 0.0239
3 -16 1 -1.8207 0.2411
3 -16 2 0.0188 0.2780
3 -16 3 0.3268 -0.0990
3 -16 4 -0.7698 -0.2344
3 -16 5 -0.8418 0.0267
3 -16 6 -0.8551 0.0784
3 -16 7 0.0464 -0.0692
3 -16 8 3.6103 -0.0155
3 -16 9 2.1513 0.0341
3 -16 10 -2.1804 -0.0740
3 -16 11 -3.6286 -0.0358
3 -16 12 -2.7798 0.0648
3 -16 13 2.9199 -0.0032
3 -16 14 4.9581 -0.0451
3 -16 15 0.9035 0.0082
3 -16 16 0.6620 0.0180
3 -16 17 -0.6935 -0.0063
3 -16 18 -2.9322 -0.0460
3 -16 19 0.3954 -0.0462
3 -16 20 0.7318 0.0274
3 -16 21 -2.3374 -0.0139
3 -16 22 -1.5038 -0.0894
3 -16 23 -0.9558 0.0328
3 -16 24 -1.4610 0.0543
3 -15 0 -3.2398 -0.2716
3 -15 1 0.2359 0.3588
3 -15 2 2.3730 0.4583
3 -15 3 -1.3226 -0.0651
3 -15 4 -2.1348 -0.1777
3 -15 5 1.1251 0.0837
3 -15 6 0.4400 0.1118
3 -15 7 0.4816 -0.0138
3 -15 8 2.4631 -0.0187
3 -15 9 -1.0159 0.0093
3 -15 10 -1.2234 -0.0315
3 -15 11 1.3324 -0.0207
3 -15 12 -0.7666 0.0388
3 -15 13 -0.2428 0.0300
3 -15 14 1.0402 -0.0002
3 -15 15 1.3406 -0.0206
3 -15 16 3.2295 -0.0376
3 -15 17 -0.0829 0.0151
3 -15 18 -2.5691 0.0336
3 -15 19 2.4351 -0.0393
3 -15 20 2.1882 -0.0284
3 -15 21 -3.1876 -0.0066
3 -15 22 -1.3179 -0.0350
3 -15 23 1.5529 0.0417
3 -15 24 -1.2390 0.0316
3 -15 25 -2.3053 -0.1330
3 -14 0 -3.9133 -0.2982
3 -14 1 0.3953 -0.0389
3 -14 2 3.6955 0.0284
3 -14 3 -0.8482 0.0732
3 -14 4 -4.0002 0.1511
3 -14 5 -0.3134 0.0464
3 -14 6 2.0562 -0.0042
3 -14 7 2.3788 0.0428
3 -14 8 1.4383 0.0090
3 -14 9 -0.6380 0.0051
3 -14 10 0.8467 0.0424
3 -14 11 -0.1915 0.0217
3 -14 12 -1.8631 -0.0069
3 -14 13 1.3410 -0.0007
3 -14 14 0.0813 0.0293
3 -14 15 -0.4573 0.0157
3 -14 16 4.3388 -0.0362
3 -14 17 0.8158 0.0144
3 -14 18 -4.1348 0.0571
3 -14 19 1.9271 -0.0348
3 -14 20 4.2040 -0.0397
3 -14 21 -1.6506 0.0307
3 -14 22 -1.4740 -0.0062
3 -14 23 0.4210 0.0009
3 -14 24 -0.8860 0.0480
3 -14 25 1.2565 -0.0515
3 -14 26 2.0367 -0.0718
3 -13 0 -3.3048 -0.0578
3 -13 1 2.3143 -0.4370
3 -13 2 3.2731 -0.4362
3 -13 3 -3.3643 0.1478
3 -13 4 -2.2178 0.3022
3 -13 5 4.5299 -0.0557
3 -13 6 1.8528 -0.1030
3 -13 7 -2.6173 0.0254
3 -13 8 -0.9103 -0.0080
3 -13 9 1.7792 0.0113
3 -13 10 1.6334 0.0669
3 -13 11 -2.0787 0.0149
3 -13 12 -0.8654 -0.0468
3 -13 13 3.5575 -0.0285
3 -13 14 0.2182 0.0472
3 -13 15 -1.7542 0.0533
3 -13 16 2.3827 -0.0320
3 -13 17 0.6162 -0.0179
3 -13 18 -2.6883 0.0484
3 -13 19 1.2343 -0.0163
3 -13 20 1.1137 -0.0576
3 -13 21 -3.5751 0.0198
3 -13 22 0.0977 0.0265
3 -13 23 5.2827 0.0068
3 -13 24 3.2726 0.0492
3 -13 25 -1.1521 -0.0241
3 -13 26 -3.0952 -0.0765
3 -13 27 -0.6648 0.0578
3 -12 0 -2.3398 0.2880
3 -12 1 1.8922 -0.2734
3 -12 2 3.9160 -0.3717
3 -12 3 -0.1639 0.0530
3 -12 4 -1.1149 0.0823
3 -12 5 1.5959 -0.1141
3 -12 6 0.1713 -0.0663
3 -12 7 -1.7164 -0.0234
3 -12 8 -0.3367 -0.0529
3 -12 9 1.7824 -0.0120
3 -12 10 -0.0252 0.0217
3 -12 11 -3.8698 0.0094
3 -12 12 0.1900 -0.0200
3 -12 13 5.3928 -0.0488
3 -12 14 1.0762 -0.0210
3 -12 15 -2.7967 0.0229
3 -12 16 0.1445 -0.0005
3 -12 17 0.6577 -0.0249
3 -12 18 -2.1900 0.0029
3 -12 19 -1.0803 -0.0122
3 -12 20 0.4922 -0.0448
3 -12 21 0.9666 0.0219
3 -12 22 2.8566 0.0356
3 -12 23 1.1668 -0.0438
3 -12 24 -2.0422 -0.0060
3 -12 25 -1.1239 0.0353
3 -12 26 2.1827 -0.0217
3 -12 27 2.6738 -0.0132
3 -12 28 -0.6011 0.0312
3 -11 0 -1.5405 0.4346
3 -11 1 2.2431 0.2833
3 -11 2 2.1538 0.0819
3 -11 3 -3.2498 -0.1413
3 -11 4 -1.1146 -0.2153
3 -11 5 6.3176 -0.0179
3 -11 6 2.8983 0.0532
3 -11 7 -5.1952 -0.0425
3 -11 8 -3.0046 -0.0168
3 -11 9 3.5948 -0.0036
3 -11 10 1.5118 -0.0553
3 -11 11 -3.1901 -0.0040
3 -11 12 -1.1845 0.0373
3 -11 13 1.4647 -0.0531
3 -11 14 1.1023 -0.0993
3 -11 15 -0.1712 0.0048
3 -11 16 -0.6127 0.0586
3 -11 17 -0.3140 -0.0419
3 -11 18 -0.5227 -0.0555
3 -11 19 0.8869 0.0361
3 -11 20 1.9086 0.0013
3 -11 21 -0.3511 -0.0441
3 -11 22 -2.5047 -0.0112
3 -11 23 0.2215 -0.0100
3 -11 24 4.1185 0.0135
3 -11 25 1.0539 0.0215
3 -11 26 -1.5693 -0.0514
3 -11 27 0.9546 -0.0393
3 -11 28 0.8814 0.0661
3 -10 0 -1.5578 0.1804
3 -10 1 -0.9408 0.5262
3 -10 2 -0.5435 0.3145
3 -10 3 -0.6560 -0.2336
3 -10 4 1.4992 -0.1903
3 -10 5 3.0782 0.1722
3 -10 6 -0.3952 0.1062
3 -10 7 -2.1577 -0.0383
3 -10 8 1.6271 0.0533
3 -10 9 2.2821 0.0421
3 -10 10 -2.2838 -0.0639
3 -10 11 -2.3112 -0.0364
3 -10 12 0.0555 0.0454
3 -10 13 -0.4516 0.0348
3 -10 14 0.4038 -0.0431
3 -10 15 0.5030 -0.0365
3 -10 16 0.2296 0.0421
3 -10 17 1.2028 0.0045
3 -10 18 -0.0675 -0.0436
3 -10 19 -0.6753 0.0138
3 -10 20 0.4993 0.0076
3 -10 21 0.6268 -0.0214
3 -10 22 0.7268 0.0067
3 -10 23 2.7548 -0.0067
3 -10 24 1.7568 -0.0128
3 -10 25 -2.2150 0.0267
3 -10 26 0.8234 -0.0009
3 -10 27 3.3205 -0.0122
3 -10 28 -0.9212 0.0548
3 -9 0 1.8814 -0.4357
3 -9 1 -1.2244 0.1145
3 -9 2 -1.8078 0.2431
3 -9 3 -1.6799 -0.0357
3 -9 4 -1.9894 -0.0089
3 -9 5 0.4020 0.1400
3 -9 6 2.3765 0.0597
3 -9 7 1.1233 -0.0121
3 -9 8 0.1704 0.0271
3 -9 9 -0.7906 0.0571
3 -9 10 -1.9640 0.0328
3 -9 11 0.1319 -0.0225
3 -9 12 -0.4141 0.0020
3 -9 13 -2.4393 0.0875
3 -9 14 0.3332 0.0413
3 -9 15 1.3458 -0.0546
3 -9 16 0.5872 0.0059
3 -9 17 0.3911 0.0529
3 -9 18 -1.0708 -0.0072
3 -9 19 -0.5085 -0.0099
3 -9 20 2.4464 0.0292
3 -9 21 3.3560 0.0180
3 -9 22 0.7750 -0.0274
3 -9 23 0.4162 -0.0304
3 -9 24 1.1906 0.0495
3 -9 25 0.0297 0.0968
3 -9 26 1.5987 -0.0218
3 -9 27 1.3210 -0.0758
3 -9 28 -0.4895 0.0663
3 -9 29 2.1634 -0.0074
3 -8 0 6.0519 -0.6426
3 -8 1 -7.3901 -0.4114
3 -8 2 -7.5990 -0.0016
3 -8 3 1.3854 0.2252
3 -8 4 1.4132 0.0713
3 -8 5 -3.0556 -0.1597
3 -8 6 -0.2226 -0.0609
3 -8 7 3.5412 0.0833
3 -8 8 1.2016 -0.0170
3 -8 9 -2.9868 -0.0388
3 -8 10 -2.3567 0.0785
3 -8 11 1.3209 0.0440
3 -8 12 -0.9686 -0.0719
3 -8 13 -3.2961 -0.0028
3 -8 14 -0.5711 0.0994
3 -8 15 0.2398 0.0127
3 -8 16 0.4190 -0.0514
3 -8 17 0.6018 0.0227
3 -8 18 0.1649 0.0505
3 -8 19 0.5534 -0.0111
3 -8 20 1.3982 -0.0228
3 -8 21 2.0340 0.0137
3 -8 22 1.0659 0.0114
3 -8 23 1.0108 0.0043
3 -8 24 0.3199 0.0251
3 -8 25 0.2089 0.0429
3 -8 26 3.2281 -0.0179
3 -8 27 0.3383 -0.0427
3 -8 28 -2.7481 0.0761
3 -8 29 3.9191 0.0379
3 -8 30 6.9192 -0.1633
3 -7 0 2.8062 0.0283
3 -7 1 -9.8680 -0.4323
3 -7 2 -1.9756 -0.2702
3 -7 3 7.5581 0.2093
3 -7 4 -4.1091 0.0651
3 -7 5 -11.5285 -0.2737
3 -7 6 3.2416 -0.1017
3 -7 7 10.0777 0.0931
3 -7 8 -1.6899 -0.0351
3 -7 9 -6.6650 -0.1000
3 -7 10 1.4903 0.0004
3 -7 11 3.4712 0.0409
3 -7 12 -5.0659 -0.0560
3 -7 13 -5.5772 -0.0714
3 -7 14 1.1171 0.0447
3 -7 15 2.1985 0.0481
3 -7 16 -0.2581 -0.0522
3 -7 17 -1.5938 -0.0444
3 -7 18 0.1544 0.0332
3 -7 19 0.5341 0.0126
3 -7 20 0.1174 -0.0341
3 -7 21 2.3091 -0.0221
3 -7 22 1.7562 0.0172
3 -7 23 -0.1302 0.0274
3 -7 24 -0.6367 -0.0240
3 -7 25 0.8447 -0.0046
3 -7 26 2.3845 0.0353
3 -7 27 -1.2252 -0.0336
3 -7 28 -2.2776 -0.0307
3 -7 29 3.9427 0.0474
3 -7 30 5.9762 -0.0444
3 -6 0 4.2409 0.7466
3 -6 1 -7.0676 0.0763
3 -6 2 -1.2893 -0.2931
3 -6 3 4.9088 -0.0878
3 -6 4 -6.5069 0.0951
3 -6 5 -10.4783 0.0516
3 -6 6 5.7246 -0.0425
3 -6 7 9.5283 -0.0692
3 -6 8 -4.0527 0.0290
3 -6 9 -5.9573 0.0146
3 -6 10 4.4602 -0.1129
3 -6 11 3.0573 -0.0416
3 -6 12 -6.5992 0.0429
3 -6 13 -3.1833 -0.0381
3 -6 14 3.7624 -0.0596
3 -6 15 1.0903 0.0266
3 -6 16 -4.2524 0.0139
3 -6 17 -3.0180 -0.0555
3 -6 18 3.7891 -0.0282
3 -6 19 2.8114 0.0119
3 -6 20 -2.1548 -0.0021
3 -6 21 -0.9625 -0.0427
3 -6 22 0.8881 -0.0070
3 -6 23 1.1270 0.0533
3 -6 24 0.1531 -0.0246
3 -6 25 0.0283 -0.0509
3 -6 26 1.4345 0.0398
3 -6 27 -0.6024 -0.0078
3 -6 28 -3.7351 -0.0852
3 -6 29 -0.4867 0.0273
3 -6 30 5.5410 0.0351
3 -6 31 4.6315 -0.1672
3 -5 0 -2.2351 0.4683
3 -5 1 -8.8691 0.4293
3 -5 2 0.4587 0.0361
3 -5 3 7.4419 -0.2128
3 -5 4 -5.1993 0.0732
3 -5 5 -11.6088 0.3420
3 -5 6 4.3240 0.1054
3 -5 7 10.0077 -0.1500
3 -5 8 -4.0347 0.0213
3 -5 9 -7.3658 0.1046
3 -5 10 5.4737 -0.0598
3 -5 11 6.1520 -0.0478
3 -5 12 -4.6497 0.0842
3 -5 13 -4.2982 0.0485
3 -5 14 1.1625 -0.0781
3 -5 15 1.6523 -0.0382
3 -5 16 -1.2670 0.0578
3 -5 17 -0.6320 0.0234
3 -5 18 3.5700 -0.0455
3 -5 19 -0.3405 -0.0257
3 -5 20 -4.1467 0.0266
3 -5 21 0.4545 -0.0139
3 -5 22 2.6578 -0.0134
3 -5 23 -0.0828 0.0547
3 -5 24 -1.3021 0.0019
3 -5 25 0.6440 -0.0491
3 -5 26 1.6725 0.0281
3 -5 27 -0.0436 0.0295
3 -5 28 -3.4157 -0.0688
3 -5 29 -3.0832 -0.0187
3 -5 30 2.7064 0.0430
3 -5 31 4.6109 -0.0818
3 -4 0 -6.1183 -0.4993
3 -4 1 0.1133 0.2107
3 -4 2 -0.5732 0.3934
3 -4 3 -0.2801 -0.0011
3 -4 4 -1.2948 -0.0938
3 -4 5 -3.2417 0.1330
3 -4 6 -0.1530 0.1453
3 -4 7 2.0293 -0.0225
3 -4 8 -0.7723 -0.0284
3 -4 9 -0.5272 0.0500
3 -4 10 5.2474 0.0918
3 -4 11 2.0155 0.0444
3 -4 12 -5.4401 0.0157
3 -4 13 -2.6459 0.0463
3 -4 14 2.9635 -0.0149
3 -4 15 3.4412 -0.0451
3 -4 16 -2.1838 0.0362
3 -4 17 -3.2287 0.0704
3 -4 18 3.1126 -0.0114
3 -4 19 2.3726 -0.0416
3 -4 20 -1.8361 0.0398
3 -4 21 -0.9633 0.0447
3 -4 22 -0.0513 -0.0129
3 -4 23 -1.2809 -0.0033
3 -4 24 -0.0157 0.0368
3 -4 25 2.0100 0.0132
3 -4 26 1.0728 -0.0064
3 -4 27 0.3319 0.0298
3 -4 28 -2.1078 -0.0039
3 -4 29 -3.3154 -0.0314
3 -4 30 1.2158 0.0340
3 -4 31 2.7990 0.0381
3 -3 0 -3.8616 -0.7144
3 -3 1 7.2332 -0.2424
3 -3 2 -8.0205 0.1377
3 -3 3 -8.6507 0.1397
3 -3 4 4.9743 -0.1413
3 -3 5 1.5216 -0.2458
3 -3 6 -8.6411 -0.0174
3 -3 7 -0.5307 0.1374
3 -3 8 8.3024 -0.0094
3 -3 9 1.3701 -0.0785
3 -3 10 -2.0324 0.1089
3 -3 11 1.3002 0.0774
3 -3 12 2.3690 -0.0769
3 -3 13 -0.2680 -0.0139
3 -3 14 -3.2879 0.0537
3 -3 15 -1.5296 -0.0072
3 -3 16 -0.0820 -0.0326
3 -3 17 1.4439 0.0446
3 -3 18 3.1155 0.0507
3 -3 19 -0.2797 -0.0155
3 -3 20 -3.0338 -0.0100
3 -3 21 -0.5157 0.0285
3 -3 22 1.1165 -0.0001
3 -3 23 -1.9109 -0.0239
3 -3 24 -1.6453 0.0527
3 -3 25 1.3573 0.0451
3 -3 26 1.3909 -0.0441
3 -3 27 1.5474 -0.0060
3 -3 28 -0.5029 0.0458
3 -3 29 -3.1024 0.0105
3 -3 30 -1.3998 0.0109
3 -3 31 1.2936 0.0647
3 -2 0 4.1790 0.0760
3 -2 1 19.0253 -0.3288
3 -2 2 -16.3479 -0.3644
3 -2 3 -23.1433 0.0344
3 -2 4 7.4845 -0.0151
3 -2 5 9.7163 -0.2503
3 -2 6 -12.4388 -0.1375
3 -2 7 -6.1570 0.0835
3 -2 8 9.6633 0.0009
3 -2 9 3.4285 -0.1155
3 -2 10 -1.8904 -0.0129
3 -2 11 2.5564 0.0010
3 -2 12 3.6493 -0.0659
3 -2 13 -1.5832 -0.0344
3 -2 14 -3.7549 0.0571
3 -2 15 0.4125 0.0401
3 -2 16 1.2314 -0.0648
3 -2 17 -0.8958 -0.0377
3 -2 18 -0.7873 0.0403
3 -2 19 0.3913 0.0001
3 -2 20 -0.5096 -0.0541
3 -2 21 -0.8337 0.0111
3 -2 22 0.0022 0.0351
3 -2 23 -2.2689 -0.0316
3 -2 24 -1.5838 0.0001
3 -2 25 1.5714 0.0353
3 -2 26 1.3414 -0.0218
3 -2 27 -0.2705 -0.0320
3 -2 28 -2.0779 0.0272
3 -2 29 -1.7598 0.0090
3 -2 30 0.0198 -0.0383
3 -2 31 1.7022 0.0627
3 -1 0 20.3319 0.7370
3 -1 1 16.9464 0.0416
3 -1 2 -28.9222 -0.3226
3 -1 3 -21.2229 -0.1016
3 -1 4 20.8091 0.0906
3 -1 5 9.9262 0.0873
3 -1 6 -24.3099 -0.1002
3 -1 7 -9.7181 -0.1305
3 -1 8 13.9416 0.0027
3 -1 9 4.0998 0.0155
3 -1 10 -5.5561 -0.0870
3 -1 11 0.8815 -0.0668
3 -1 12 6.0523 0.0262
3 -1 13 2.2742 -0.0115
3 -1 14 -1.2718 0.0055
3 -1 15 -0.7959 0.0392
3 -1 16 -0.6634 -0.0553
3 -1 17 -1.4364 -0.0811
3 -1 18 -1.2879 0.0072
3 -1 19 0.6131 0.0242
3 -1 20 -0.1444 -0.0348
3 -1 21 -0.6234 -0.0061
3 -1 22 0.4850 0.0308
3 -1 23 -1.2709 -0.0240
3 -1 24 -0.8047 -0.0496
3 -1 25 0.7578 0.0152
3 -1 26 -0.8158 0.0258
3 -1 27 -2.7452 -0.0602
3 -1 28 -1.0259 -0.0243
3 -1 29 2.2820 0.0368
3 -1 30 0.5801 -0.0277
3 -1 31 -0.8245 -0.0124
3 0 0 28.9387 0.4205
3 0 1 20.4557 0.2804
3 0 2 -19.9978 0.1947
3 0 3 -10.8714 -0.0277
3 0 4 19.1976 0.0449
3 0 5 1.5492 0.2457
3 0 6 -22.4496 0.0260
3 0 7 -1.9982 -0.1305
3 0 8 11.8887 0.0465
3 0 9 -3.8688 0.1066
3 0 10 -8.2748 -0.0746
3 0 11 4.0008 -0.0400
3 0 12 7.4824 0.1037
3 0 13 0.3419 0.0002
3 0 14 -1.1418 -0.0706
3 0 15 1.6660 0.0045
3 0 16 0.4125 0.0345
3 0 17 -3.5183 -0.0131
3 0 18 -2.8547 -0.0241
3 0 19 2.3016 0.0202
3 0 20 1.6528 0.0116
3 0 21 -0.8917 -0.0317
3 0 22 -0.1185 -0.0112
3 0 23 -0.0920 0.0204
3 0 24 -0.9508 -0.0347
3 0 25 -1.0233 -0.0204
3 0 26 0.5748 0.0335
3 0 27 -0.1663 -0.0171
3 0 28 -1.0453 -0.0048
3 0 29 0.8004 0.0164
3 0 30 0.3800 -0.0433
3 0 31 0.3199 -0.0636
3 1 0 47.1337 -0.4634
3 1 1 19.6044 0.0698
3 1 2 -22.1982 0.4829
3 1 3 -5.6792 0.1267
3 1 4 23.8858 -0.0217
3 1 5 5.4562 0.1034
3 1 6 -16.6062 0.0884
3 1 7 -2.7899 0.0231
3 1 8 5.6856 0.0230
3 1 9 -3.4853 0.0661
3 1 10 -3.9340 0.0199
3 1 11 3.1267 0.0076
3 1 12 1.7351 0.0379
3 1 13 -2.2235 -0.0003
3 1 14 1.2421 -0.0341
3 1 15 2.9203 0.0124
3 1 16 -0.6406 0.0849
3 1 17 -3.6366 0.0282
3 1 18 -1.7348 -0.0543
3 1 19 1.6596 -0.0005
3 1 20 0.4779 0.0493
3 1 21 -0.6486 -0.0268
3 1 22 -0.3562 -0.0313
3 1 23 -0.3933 0.0535
3 1 24 -0.6188 -0.0010
3 1 25 0.6273 -0.0369
3 1 26 2.7524 0.0266
3 1 27 -0.7094 0.0373
3 1 28 -3.5895 -0.0043
3 1 29 -0.3400 -0.0315
3 1 30 2.5566 0.0007
3 1 31 3.1848 -0.0582
3 2 0 32.6631 -0.6603
3 2 1 5.2307 -0.1583
3 2 2 -7.6768 0.1430
3 2 3 11.8706 0.0902
3 2 4 18.8940 -0.0044
3 2 5 -4.0575 -0.1399
3 2 6 -12.0608 0.0355
3 2 7 4.2728 0.1242
3 2 8 7.1600 -0.0853
3 2 9 -4.0529 -0.0381
3 2 10 -5.9705 0.1086
3 2 11 1.8193 0.0120
3 2 12 2.7810 -0.0655
3 2 13 -1.5798 0.0321
3 2 14 -1.0609 0.0305
3 2 15 1.0814 -0.0321
3 2 16 0.4441 0.0214
3 2 17 -2.9715 0.0412
3 2 18 -2.9465 -0.0173
3 2 19 0.3643 -0.0173
3 2 20 1.1657 0.0460
3 2 21 -0.3290 0.0087
3 2 22 -2.1536 -0.0399
3 2 23 -0.8218 0.0206
3 2 24 0.7294 0.0456
3 2 25 1.0152 -0.0000
3 2 26 1.4963 -0.0244
3 2 27 -0.9612 0.0282
3 2 28 -2.6887 0.0063
3 2 29 -1.0092 -0.0390
3 2 30 2.1187 0.0262
3 2 31 3.8905 -0.0465
3 3 0 22.5497 0.0440
3 3 1 9.0893 -0.1174
3 3 2 2.2600 -0.3635
3 3 3 6.8085 -0.0704
3 3 4 7.1215 -0.0008
3 3 5 -0.7909 -0.2506
3 3 6 -0.8229 0.0060
3 3 7 2.6155 0.1251
3 3 8 -0.6398 -0.1374
3 3 9 -2.9746 -0.0837
3 3 10 -0.2593 0.0941
3 3 11 2.5499 -0.0158
3 3 12 0.6851 -0.1017
3 3 13 -0.6960 0.0099
3 3 14 -0.1589 0.0388
3 3 15 -0.5622 -0.0253
3 3 16 -1.4396 -0.0549
3 3 17 -1.8591 0.0078
3 3 18 0.5679 0.0582
3 3 19 0.7851 -0.0146
3 3 20 -1.3780 -0.0284
3 3 21 -1.2781 0.0250
3 3 22 -1.2164 0.0141
3 3 23 -0.6576 -0.0158
3 3 24 0.2398 0.0145
3 3 25 0.6335 0.0086
3 3 26 0.4285 -0.0221
3 3 27 0.0847 0.0394
3 3 28 0.1865 0.0105
3 3 29 -1.3284 -0.0309
3 3 30 -1.2583 -0.0175
3 4 0 12.6890 0.7598
3 4 1 -2.4400 0.0438
3 4 2 -0.3256 -0.5267
3 4 3 8.3368 -0.1235
3 4 4 8.6734 0.0831
3 4 5 1.5541 -0.0870
3 4 6 -2.2279 -0.0276
3 4 7 -3.1488 0.0193
3 4 8 -0.3658 -0.0237
3 4 9 2.7629 -0.0522
3 4 10 0.1671 -0.0634
3 4 11 -2.3415 -0.0260
3 4 12 0.5882 0.0139
3 4 13 3.3723 -0.0101
3 4 14 -0.2967 -0.0062
3 4 15 -1.9905 0.0123
3 4 16 0.2310 -0.0693
3 4 17 0.8152 -0.0254
3 4 18 1.5286 0.0736
3 4 19 -0.3998 -0.0172
3 4 20 -1.2301 -0.0613
3 4 21 1.7241 0.0364
3 4 22 0.3863 0.0292
3 4 23 -3.0412 -0.0634
3 4 24 -1.5346 0.0036
3 4 25 2.2109 0.0641
3 4 26 2.9330 0.0036
3 4 27 1.9835 -0.0211
3 4 28 -0.3165 -0.0260
3 4 29 -3.1629 0.0149
3 4 30 -1.4261 -0.0515
3 5 0 -4.4196 0.4698
3 5 1 2.2096 0.2154
3 5 2 8.7088 -0.0294
3 5 3 3.0380 -0.0389
3 5 4 -1.0532 0.0663
3 5 5 3.4141 0.1551
3 5 7 -3.2883 -0.1438
3 5 8 -2.6637 0.1173
3 5 9 3.4145 0.0515
3 5 10 1.2732 -0.1493
3 5 11 -4.4833 -0.0012
3 5 12 -1.1159 0.1317
3 5 13 4.4895 -0.0153
3 5 14 1.0623 -0.0548
3 5 15 -1.2155 0.0403
3 5 16 -0.3391 -0.0159
3 5 17 0.5887 -0.0481
3 5 18 3.5649 0.0153
3 5 19 1.7641 0.0217
3 5 20 -0.9475 -0.0256
3 5 21 1.0239 -0.0169
3 5 22 0.7459 0.0169
3 5 23 -1.0146 -0.0056
3 5 24 1.0510 0.0026
3 5 25 2.9278 0.0029
3 5 26 1.1766 -0.0019
3 5 27 -0.3536 -0.0075
3 5 28 0.0896 -0.0120
3 5 29 1.7453 0.0263
3 5 30 1.8479 -0.0903
3 6 0 -1.4958 -0.4371
3 6 1 4.1536 0.3373
3 6 2 2.4993 0.5650
3 6 3 -5.2716 -0.0541
3 6 4 -1.8422 -0.1239
3 6 5 9.0392 0.2329
3 6 6 5.1836 -0.0220
3 6 7 -6.3912 -0.1582
3 6 8 -3.3561 0.1195
3 6 9 5.4373 0.0931
3 6 10 2.6175 -0.0467
3 6 11 -5.3036 0.0292
3 6 12 -1.3835 0.0726
3 6 13 4.0034 -0.0259
3 6 14 -0.5776 -0.0481
3 6 15 -1.5669 0.0272
3 6 16 0.2153 0.0627
3 6 17 0.7260 0.0008
3 6 18 3.1212 -0.0525
3 6 19 1.2187 0.0216
3 6 20 -1.6146 0.0247
3 6 21 0.8938 -0.0351
3 6 22 3.1918 -0.0094
3 6 23 2.0890 0.0202
3 6 24 -0.0144 0.0057
3 6 25 -1.0262 -0.0325
3 6 26 0.0937 -0.0131
3 6 27 1.2322 0.0082
3 6 28 1.4417 0.0265
3 6 29 2.3760 0.0141
3 7 0 -10.5554 -0.8856
3 7 1 1.5533 0.0943
3 7 2 7.7332 0.5453
3 7 3 -3.5941 -0.0458
3 7 4 -6.7802 -0.2369
3 7 5 4.0058 0.0617
3 7 6 4.2080 0.1055
3 7 7 -3.6080 0.0345
3 7 8 -2.9267 -0.0334
3 7 9 3.5219 0.0105
3 7 10 3.1040 0.1107
3 7 11 -3.3788 -0.0049
3 7 12 -0.7122 -0.0882
3 7 13 2.7814 0.0199
3 7 14 -1.7142 0.0332
3 7 15 -2.4169 -0.0139
3 7 16 -0.7264 0.0735
3 7 17 0.5158 0.0377
3 7 18 1.9931 -0.0726
3 7 19 -0.2382 0.0096
3 7 20 -1.0906 0.0371
3 7 21 1.5601 -0.0202
3 7 22 1.5686 -0.0046
3 7 23 -0.8080 0.0236
3 7 24 -1.3475 -0.0040
3 7 25 0.8946 -0.0495
3 7 26 1.8645 -0.0115
3 7 27 -1.5049 0.0533
3 7 28 -2.1682 0.0712
3 7 29 2.1539 -0.0334
3 8 0 -5.1964 -0.3530
3 8 1 4.0551 -0.3950
3 8 2 5.0906 -0.0931
3 8 3 -4.6411 0.1319
3 8 4 -4.5215 -0.0093
3 8 5 2.6338 -0.1801
3 8 6 0.5279 0.0731
3 8 7 -3.5655 0.1965
3 8 8 -2.1674 -0.1107
3 8 9 3.0651 -0.0964
3 8 10 2.7750 0.1105
3 8 11 -2.7697 -0.0211
3 8 12 -0.4663 -0.0939
3 8 13 1.7690 0.0710
3 8 14 -0.9779 0.0537
3 8 15 -0.9454 -0.0686
3 8 16 -1.6403 0.0003
3 8 17 -1.8703 0.0321
3 8 18 0.8914 -0.0055
3 8 19 1.9029 0.0092
3 8 20 0.4615 -0.0018
3 8 21 -2.2965 0.0136
3 8 22 -3.3581 0.0117
3 8 23 -0.6075 -0.0102
3 8 24 1.7568 0.0151
3 8 25 1.5543 0.0029
3 8 26 -0.9633 -0.0543
3 8 27 -3.8434 0.0022
3 8 28 -1.9924 0.1303
3 9 0 -2.7146 0.5947
3 9 1 0.6938 -0.5514
3 9 2 4.2669 -0.6519
3 9 3 -0.2772 0.2369
3 9 4 -3.1000 0.3089
3 9 5 -1.4705 -0.2011
3 9 6 0.8447 -0.1098
3 9 7 1.3183 0.0856
3 9 8 -1.5554 -0.0479
3 9 9 -0.4044 -0.0385
3 9 10 0.4765 0.0406
3 9 11 -1.5517 -0.0083
3 9 12 0.6574 -0.0265
3 9 13 2.0719 0.0226
3 9 14 0.9730 0.0068
3 9 15 -0.7554 -0.0496
3 9 16 -3.0448 -0.0484
3 9 17 -1.1826 -0.0090
3 9 18 1.5379 0.0485
3 9 19 0.9364 0.0173
3 9 20 0.1282 -0.0326
3 9 21 -0.8035 0.0212
3 9 22 -1.5673 0.0150
3 9 23 -1.4006 -0.0323
3 9 24 -1.0767 0.0014
3 9 25 0.1839 0.0155
3 9 26 -0.3911 -0.0498
3 9 27 -2.3569 0.0072
3 9 28 -1.1328 0.1286
3 10 0 -1.0638 0.7947
3 10 1 -1.1368 -0.0886
3 10 2 0.9461 -0.4117
3 10 3 0.7243 0.0632
3 10 4 -0.0219 0.2259
3 10 5 -0.4296 -0.0224
3 10 6 1.5784 -0.1722
3 10 7 1.2006 -0.0974
3 10 8 -2.5155 0.0922
3 10 9 -1.2628 0.0765
3 10 10 0.9833 -0.0735
3 10 11 1.1755 -0.0114
3 10 12 0.6785 0.0375
3 10 13 -0.6971 -0.0507
3 10 14 0.6349 -0.0368
3 10 15 1.6324 0.0194
3 10 16 -0.7917 -0.0306
3 10 17 -2.8995 -0.0352
3 10 18 -1.8737 0.0378
3 10 19 3.3687 0.0026
3 10 20 5.8744 -0.0314
3 10 21 0.1911 0.0090
3 10 22 -4.3030 -0.0184
3 10 23 -2.8181 -0.0588
3 10 24 -0.0330 0.0069
3 10 25 1.5755 0.0732
3 10 26 -0.1059 -0.0222
3 10 27 -1.1493 -0.0615
3 11 0 0.0970 0.1103
3 11 1 -3.4564 0.5170
3 11 2 0.3832 0.2708
3 11 3 3.8210 -0.2501
3 11 4 -0.1647 -0.1398
3 11 5 -3.8031 0.1798
3 11 6 0.4939 0.0109
3 11 7 2.3236 -0.1130
3 11 8 -1.0596 0.0832
3 11 9 -1.7335 0.0353
3 11 10 -0.1436 -0.0911
3 11 11 0.9208 0.0452
3 11 12 -0.1271 0.0556
3 11 13 -0.6416 -0.0888
3 11 14 0.4298 -0.0429
3 11 15 -0.1696 0.0612
3 11 16 -0.5769 0.0186
3 11 17 -0.6128 -0.0205
3 11 18 -0.8099 -0.0076
3 11 19 1.9383 -0.0145
3 11 20 3.1171 -0.0164
3 11 21 0.1691 -0.0316
3 11 22 -0.6724 -0.0169
3 11 23 -0.5265 0.0141
3 11 24 -0.2589 0.0165
3 11 25 2.0503 0.0216
3 11 26 0.9541 -0.0348
3 12 0 -0.1979 -0.5581
3 12 1 -3.4164 0.5546
3 12 2 1.1796 0.5346
3 12 3 4.0065 -0.3023
3 12 4 -1.6409 -0.2749
3 12 5 -4.4906 0.1949
3 12 6 1.3399 0.1615
3 12 7 3.6536 -0.0251
3 12 8 -1.2680 -0.0212
3 12 9 -5.0672 -0.0065
3 12 10 -1.9850 0.0040
3 12 11 2.2664 0.0351
3 12 12 0.6945 0.0144
3 12 13 -1.9702 -0.0164
3 12 14 -2.1094 0.0048
3 12 15 -0.4902 0.0273
3 12 16 1.2113 0.0308
3 12 17 -1.4219 0.0195
3 12 18 -4.2995 -0.0383
3 12 19 0.1742 -0.0369
3 12 20 4.2767 0.0247
3 12 21 1.2774 0.0330
3 12 22 -0.8592 0.0342
3 12 23 0.1124 -0.0240
3 12 24 1.0269 -0.0727
3 12 25 1.3983 0.0320
3 13 0 1.7927 -0.5637
3 13 1 -2.3340 -0.0184
3 13 2 -1.1299 0.1726
3 13 3 2.6400 -0.0050
3 13 4 0.3684 -0.0639
3 13 5 -1.3557 -0.0137
3 13 6 1.9735 0.0991
3 13 7 2.3904 0.0726
3 13 8 -2.0083 -0.0680
3 13 9 -3.5693 -0.0137
3 13 10 0.1623 0.0591
3 13 11 0.8545 -0.0096
3 13 12 -1.0434 -0.0007
3 13 13 0.1543 0.0617
3 13 14 -0.7469 0.0329
3 13 15 -4.6361 -0.0276
3 13 16 -3.8151 -0.0092
3 13 17 0.2072 0.0240
3 13 18 0.2938 0.0049
3 13 19 -0.2765 0.0420
3 13 20 0.0954 0.0517
3 13 21 -1.6989 -0.0306
3 13 22 -0.3771 -0.0228
3 13 23 2.5471 0.0256
3 13 24 0.7239 0.0280
3 14 0 1.2115 -0.0371
3 14 1 -2.3718 -0.4858
3 14 2 -0.8708 -0.2710
3 14 3 2.6470 0.2872
3 14 4 0.3341 0.1463
3 14 5 -1.6565 -0.2195
3 14 6 1.5729 -0.0428
3 14 7 3.9661 0.0621
3 14 8 0.6664 -0.0575
3 14 9 -1.6835 0.0367
3 14 10 1.1290 0.0534
3 14 11 2.2386 -0.0627
3 14 12 0.4914 -0.0180
3 14 13 -0.6577 0.0505
3 14 14 -1.7016 0.0115
3 14 15 -3.4912 -0.0350
3 14 16 -1.8763 -0.0021
3 14 17 1.2230 0.0357
3 14 18 -2.2762 0.0104
3 14 19 -3.4109 0.0019
3 14 20 1.1338 0.0033
3 14 21 -0.0871 0.0073
3 14 22 -1.1481 0.0468
3 14 23 1.7136 0.0246
3 15 0 4.2647 0.3866
3 15 1 -0.7707 -0.3880
3 15 2 -3.8088 -0.2874
3 15 3 -0.6192 0.2843
3 15 4 1.4610 0.1095
3 15 5 0.6918 -0.2430
3 15 6 0.5130 -0.0942
3 15 7 -0.1854 0.0361
3 15 8 -1.5609 0.0108
3 15 9 2.4164 0.0120
3 15 10 6.1140 -0.0344
3 15 11 2.0675 -0.0178
3 15 12 -1.2827 0.0031
3 15 13 2.4063 -0.0465
3 15 14 4.4059 -0.0170
3 15 15 -3.5685 0.0225
3 15 16 -6.6029 -0.0110
3 15 17 0.9012 -0.0289
3 15 18 0.9655 0.0044
3 15 19 -1.4512 0.0395
3 15 20 0.6074 0.0192
3 15 21 -1.2879 -0.0401
3 15 22 -0.9665 -0.0416
3 16 0 1.0888 0.3861
3 16 1 -2.0849 0.1182
3 16 2 -0.4521 -0.0600
3 16 3 2.3781 -0.0369
3 16 4 0.6941 0.0205
3 16 5 -2.4069 0.0234
3 16 6 -2.0388 -0.0521
3 16 7 -2.6559 -0.0722
3 16 8 -3.4914 0.0402
3 16 9 2.3115 0.0409
3 16 10 6.2885 -0.0279
3 16 11 3.6242 0.0091
3 16 12 0.5669 -0.0242
3 16 13 1.0417 -0.0627
3 16 14 2.4928 0.0108
3 16 15 -1.6002 0.0336
3 16 16 -2.3168 0.0001
3 16 17 2.0361 -0.0005
3 16 18 -0.1714 0.0002
3 16 19 -1.3808 -0.0131
3 16 20 0.4239 -0.0107
3 17 0 -0.4500 0.0332
3 17 1 0.4951 0.4244
3 17 2 0.6695 0.1126
3 17 3 0.5892 -0.2799
3 17 4 -0.0267 -0.0124
3 17 5 -0.6320 0.2139
3 17 6 0.4913 0.0110
3 17 7 -3.8432 -0.0483
3 17 8 -7.5492 0.0641
3 17 9 -0.4119 -0.0187
3 17 10 4.3459 -0.0429
3 17 11 1.2864 0.0625
3 17 12 -1.2422 0.0304
3 17 13 1.4999 -0.0012
3 17 14 4.3423 0.0362
3 17 15 -0.5523 0.0286
3 17 16 -2.5949 0.0032
3 17 17 1.3305 -0.0083
3 17 18 1.0469 0.0034
3 17 19 -0.7269 0.0516
3 18 0 -2.5655 -0.3312
3 18 1 -1.8387 0.2461
3 18 2 -0.0102 0.0952
3 18 3 1.7443 -0.2253
3 18 4 0.2353 0.0044
3 18 5 -0.6112 0.1869
3 18 6 3.1546 0.0662
3 18 7 -1.2656 -0.0149
3 18 8 -8.0307 -0.0398
3 18 9 -4.9874 -0.0443
3 18 10 -1.2822 0.0581
3 18 11 1.3177 0.0646
3 18 12 3.0370 0.0034
3 18 13 0.9087 0.0521
3 18 14 -1.7157 0.0266
3 18 15 -1.5034 -0.0326
3 18 16 1.7089 0.0423
3 18 17 1.1098 0.0956
3 19 0 -1.9312 -0.3162
3 19 1 -0.6706 -0.1475
3 19 2 -2.2738 -0.0119
3 19 3 -1.1047 0.0856
3 19 4 0.2741 0.0170
3 19 5 1.0669 -0.0972
3 19 6 3.1145 -0.0157
3 19 7 -2.1456 0.0629
3 19 8 -5.8770 0.0143
3 19 9 -1.8575 -0.0146
3 19 10 -0.6370 -0.0068
3 19 11 -0.8974 -0.0344
3 19 12 -0.1926 0.0066
3 19 13 -0.2612 0.0420
3 19 14 -0.7482 -0.0214
3 19 15 -0.3255 0.0106
3 20 0 1.2025 0.0225
3 20 1 1.0378 -0.2663
3 20 2 -2.7338 -0.0373
3 20 3 -1.4902 0.2248
3 20 4 -0.4283 -0.1011
3 20 5 -0.7140 -0.2249
3 20 6 1.0159 0.0431
3 20 7 -0.0585 0.0592
3 20 8 0.2472 -0.0315
3 20 9 0.1228 0.0237
3 20 10 -4.0385 0.0169
3 20 11 -3.8697 -0.0527
3 20 12 0.6170 -0.0375
3 21 0 3.0530 0.3325
3 21 1 1.4235 -0.0968
3 21 2 -1.8923 -0.0518
3 21 3 -0.6227 0.1116
3 21 4 0.6481 -0.0970
3 21 5 0.9388 -0.0442
3 21 6 0.6335 0.0197
3 21 7 -1.2004 -0.1456
3 21 8 -0.5913 0.0162
3 21 9 -0.5811 0.2251
3 22 0 0.5630 0.2288
3 22 1 -0.0177 0.0481
3 22 2 1.1291 0.0950
3 22 3 2.2776 0.0464
3 22 4 0.9137 -0.1482
3 22 5 -0.3418 0.0173
4 -23 0 -0.0237 0.0505
4 -23 1 0.2820 -0.1126
4 -23 2 3.2845 -0.1668
4 -23 3 -0.6170 0.0526
4 -23 4 -0.8558 0.1325
4 -23 5 4.1709 -0.1232
4 -23 6 2.7450 -0.0783
4 -23 7 -2.0217 0.1336
4 -23 8 -3.1798 0.0469
4 -22 0 -1.4344 0.0930
4 -22 1 2.0245 -0.0834
4 -22 2 4.0876 -0.1301
4 -22 3 -1.1110 0.0166
4 -22 4 0.7820 0.0365
4 -22 5 3.5718 -0.1115
4 -22 6 0.2452 -0.0362
4 -22 7 -0.6738 0.0857
4 -22 8 -0.9024 0.0432
4 -22 9 -1.5678 -0.0375
4 -22 10 0.4037 -0.1076
4 -22 11 3.2681 0.0059
4 -22 12 3.0735 0.1338
4 -21 0 0.9992 0.0761
4 -21 1 3.2708 0.1786
4 -21 2 2.3760 0.0865
4 -21 3 -2.4361 -0.0980
4 -21 4 0.5523 -0.0895
4 -21 5 3.1490 0.0294
4 -21 6 0.5859 0.0426
4 -21 7 -2.6354 -0.0430
4 -21 8 -3.5399 -0.0186
4 -21 9 0.6712 -0.0184
4 -21 10 2.4306 -0.0855
4 -21 11 1.0236 0.0470
4 -21 12 1.8641 0.0916
4 -21 13 0.7573 -0.0602
4 -21 14 -1.1907 0.0057
4 -21 15 0.5804 0.0637
4 -20 0 -3.2219 -0.0480
4 -20 1 1.7998 0.2685
4 -20 2 1.8164 0.2075
4 -20 3 -1.9881 -0.0935
4 -20 4 3.0706 -0.0649
4 -20 5 3.0380 0.1252
4 -20 6 -3.8790 0.0404
4 -20 7 -5.7221 -0.1057
4 -20 8 -0.1182 0.0282
4 -20 9 3.7441 0.0660
4 -20 10 -1.4090 -0.0887
4 -20 11 -3.3906 -0.0263
4 -20 12 0.4077 0.0563
4 -20 13 0.0357 0.0025
4 -20 14 0.1465 0.0021
4 -20 15 2.8443 -0.0483
4 -20 16 3.2736 0.0091
4 -20 17 2.5658 0.1566
4 -19 0 -1.9172 -0.2876
4 -19 1 2.1055 0.0145
4 -19 2 -0.9671 0.1429
4 -19 3 -1.4418 0.0525
4 -19 4 3.0157 -0.0037
4 -19 5 1.0141 0.0476
4 -19 6 -1.9394 0.0512
4 -19 7 -3.3859 -0.0224
4 -19 8 -2.1519 0.0162
4 -19 9 1.0499 0.0363
4 -19 10 -0.9723 -0.0184
4 -19 11 -3.0645 0.0036
4 -19 12 -1.8451 -0.0265
4 -19 13 -0.3358 -0.0179
4 -19 14 0.7146 0.0600
4 -19 15 -0.4443 -0.0461
4 -19 16 0.5914 -0.0258
4 -19 17 4.9231 0.1189
4 -19 18 4.3044 -0.0167
4 -19 19 -1.7037 -0.0157
4 -18 0 -2.1333 -0.2231
4 -18 1 -0.6700 -0.3695
4 -18 2 -1.9880 -0.1425
4 -18 3 -0.7866 0.2176
4 -18 4 2.3083 0.0845
4 -18 5 0.4449 -0.1344
4 -18 6 -2.7689 -0.0229
4 -18 7 -3.3616 0.0476
4 -18 8 1.3542 0.0075
4 -18 9 2.7766 -0.0007
4 -18 10 -2.0624 0.0235
4 -18 11 -2.6394 0.0177
4 -18 12 -2.4561 -0.0822
4 -18 13 -3.8149 -0.0148
4 -18 14 -1.1322 0.1090
4 -18 15 1.9646 -0.0643
4 -18 16 2.6888 -0.0776
4 -18 17 3.1062 0.1060
4 -18 18 2.4610 -0.0270
4 -18 19 -1.9517 -0.0756
4 -18 20 -4.7091 0.1452
4 -17 0 -1.3161 0.2033
4 -17 1 0.8450 -0.3637
4 -17 2 -3.1896 -0.3281
4 -17 3 -1.7508 0.1560
4 -17 4 1.0766 0.0672
4 -17 5 -1.2602 -0.1853
4 -17 6 -1.4121 -0.0677
4 -17 7 1.8420 0.0576
4 -17 8 3.0683 0.0357
4 -17 9 -1.2295 -0.0538
4 -17 10 -2.9202 -0.0516
4 -17 11 -0.7878 0.0438
4 -17 12 -3.3487 -0.0415
4 -17 13 -3.1333 -0.0686
4 -17 14 2.4279 0.0841
4 -17 15 2.9769 0.0247
4 -17 16 -0.0475 -0.0669
4 -17 17 1.0983 -0.0227
4 -17 18 3.3138 -0.0596
4 -17 19 -1.8580 0.0128
4 -17 20 -6.0193 0.1266
4 -17 21 0.2443 -0.0433
4 -17 22 3.6699 -0.1081
4 -16 0 -0.8519 0.5656
4 -16 1 0.5987 0.1278
4 -16 2 -0.5475 -0.2227
4 -16 3 -0.5955 -0.1391
4 -16 4 -1.1811 0.0010
4 -16 5 -1.0908 0.0667
4 -16 6 0.0738 -0.0080
4 -16 7 1.7850 -0.0726
4 -16 8 3.0799 0.0383
4 -16 9 -0.6687 0.0009
4 -16 10 -3.0904 -0.1017
4 -16 11 -1.6195 0.0132
4 -16 12 -1.5522 0.0307
4 -16 13 0.1358 -0.0375
4 -16 14 2.3992 0.0216
4 -16 15 1.2438 0.0034
4 -16 16 -0.8758 -0.0329
4 -16 17 0.3632 -0.0017
4 -16 18 2.1789 -0.0423
4 -16 19 -1.7647 0.0007
4 -16 20 -2.9291 0.0660
4 -16 21 2.4633 -0.0819
4 -16 22 1.6808 -0.0809
4 -16 23 -2.6428 0.1300
4 -15 0 -1.0503 0.2309
4 -15 1 1.0464 0.4696
4 -15 2 0.1374 0.1707
4 -15 3 -0.9443 -0.2530
4 -15 4 -1.1420 -0.0939
4 -15 5 -0.3402 0.2649
4 -15 6 0.9716 0.1031
4 -15 7 2.5738 -0.1426
4 -15 8 0.8715 0.0203
4 -15 9 -1.9753 0.0856
4 -15 10 2.1595 -0.0595
4 -15 11 2.8699 -0.0095
4 -15 12 -4.3810 0.0717
4 -15 13 -4.8867 0.0147
4 -15 14 1.6745 -0.0272
4 -15 15 4.1893 -0.0262
4 -15 16 0.6236 0.0215
4 -15 17 -1.4061 0.0286
4 -15 18 0.0259 -0.0573
4 -15 19 -0.3731 0.0004
4 -15 20 -0.5157 0.0974
4 -15 21 -0.2020 -0.0594
4 -15 22 -1.0525 -0.1038
4 -15 23 0.6582 0.1149
4 -15 24 1.4076 0.0609
4 -14 0 -2.1764 -0.4945
4 -14 1 0.6620 0.2353
4 -14 2 2.8233 0.4219
4 -14 3 0.4943 -0.0219
4 -14 4 -3.2184 -0.1324
4 -14 5 -1.0022 0.1112
4 -14 6 3.2305 0.1204
4 -14 7 2.8014 -0.0351
4 -14 8 -1.0689 -0.0043
4 -14 9 0.1255 0.0686
4 -14 10 4.7699 0.0224
4 -14 11 -0.0358 -0.0019
4 -14 12 -6.3746 0.0335
4 -14 13 -2.3462 0.0535
4 -14 14 3.7523 0.0174
4 -14 15 3.9793 -0.0432
4 -14 16 -0.2921 -0.0101
4 -14 17 -2.8590 0.0592
4 -14 18 -1.9391 0.0043
4 -14 19 -0.7202 -0.0310
4 -14 20 0.0360 0.0411
4 -14 21 -0.7737 0.0009
4 -14 22 -0.5934 -0.0436
4 -14 23 1.8473 0.0875
4 -14 24 1.1372 0.0527
4 -14 25 -1.2048 -0.1421
4 -13 0 -0.7410 -0.6883
4 -13 1 2.1447 -0.2757
4 -13 2 1.8829 0.2336
4 -13 3 -0.5641 0.2662
4 -13 4 -0.2606 -0.0875
4 -13 5 1.5627 -0.2213
4 -13 6 1.1528 0.0196
4 -13 7 -0.4715 0.1064
4 -13 8 -2.1554 -0.0345
4 -13 9 0.6633 -0.0360
4 -13 10 4.5296 0.0487
4 -13 11 1.0250 0.0192
4 -13 12 -2.4736 -0.0149
4 -13 13 -1.6536 0.0340
4 -13 14 0.0099 0.0454
4 -13 15 2.5128 -0.0234
4 -13 16 2.4237 -0.0375
4 -13 17 -1.7179 0.0385
4 -13 18 -4.6891 0.0269
4 -13 19 -1.8174 -0.0529
4 -13 20 1.5346 0.0048
4 -13 21 -0.5846 0.0541
4 -13 22 -0.5951 -0.0169
4 -13 23 2.9661 0.0292
4 -13 24 0.9860 0.0594
4 -13 25 -3.0189 -0.0760
4 -13 26 -1.0472 -0.0317
4 -12 0 -2.0138 0.0166
4 -12 1 1.1025 -0.3836
4 -12 2 3.3893 -0.2202
4 -12 3 1.7232 0.1953
4 -12 4 -0.5383 0.0072
4 -12 5 -0.3252 -0.2702
4 -12 6 0.5769 -0.0669
4 -12 7 -0.3617 0.0749
4 -12 8 -1.1517 -0.0505
4 -12 9 2.1603 -0.0529
4 -12 10 2.0336 0.0271
4 -12 11 -2.3057 -0.0178
4 -12 12 -0.8462 -0.0581
4 -12 13 1.3044 -0.0074
4 -12 14 0.2332 0.0342
4 -12 15 0.5999 -0.0003
4 -12 16 0.5799 -0.0519
4 -12 17 -1.3168 0.0017
4 -12 18 -1.6406 0.0493
4 -12 19 1.1651 -0.0446
4 -12 20 1.6551 -0.0478
4 -12 21 -1.1419 0.0548
4 -12 22 -0.9976 0.0180
4 -12 23 0.6636 -0.0079
4 -12 24 0.0061 0.0252
4 -12 25 -0.1257 -0.0402
4 -12 26 1.2523 -0.0336
4 -12 27 0.1977 0.0538
4 -11 0 -3.3833 0.7187
4 -11 1 1.6699 -0.1217
4 -11 2 2.4036 -0.4224
4 -11 3 -0.9004 -0.0304
4 -11 4 0.9478 0.1108
4 -11 5 3.7785 -0.0190
4 -11 6 -0.0155 -0.0594
4 -11 7 -3.4826 -0.0311
4 -11 8 0.4611 -0.0042
4 -11 9 4.3791 -0.0055
4 -11 10 -0.8376 -0.0401
4 -11 11 -4.4462 -0.0415
4 -11 12 0.0751 -0.0166
4 -11 13 1.6677 -0.0330
4 -11 14 -0.3612 -0.0199
4 -11 15 -0.5586 0.0271
4 -11 16 1.1097 -0.0157
4 -11 17 1.8328 -0.0385
4 -11 18 0.5511 0.0306
4 -11 19 0.6610 0.0029
4 -11 20 0.7262 -0.0458
4 -11 21 -0.7356 0.0141
4 -11 22 -0.1447 0.0169
4 -11 23 2.4341 -0.0294
4 -11 24 2.2924 -0.0125
4 -11 25 -0.4261 0.0323
4 -11 26 -0.2517 0.0419
4 -11 27 0.7993 -0.0317
4 -11 28 -0.2073 -0.0686
4 -10 0 -1.4581 0.5108
4 -10 1 1.6187 0.1726
4 -10 2 0.2575 -0.1295
4 -10 3 -2.6095 -0.1044
4 -10 4 0.2240 0.1363
4 -10 5 3.1813 0.2082
4 -10 6 0.4339 -0.0150
4 -10 7 -1.5773 -0.0896
4 -10 8 1.4549 0.0559
4 -10 9 2.1534 0.0481
4 -10 10 -2.8474 -0.0522
4 -10 11 -3.3353 -0.0023
4 -10 12 0.3389 0.0566
4 -10 13 1.1067 -0.0257
4 -10 14 0.4860 -0.0677
4 -10 15 -0.2296 0.0268
4 -10 16 0.3986 0.0524
4 -10 17 0.7891 -0.0237
4 -10 18 0.7352 -0.0131
4 -10 19 2.1648 0.0224
4 -10 20 1.9451 -0.0193
4 -10 21 1.3868 -0.0227
4 -10 22 1.9704 0.0263
4 -10 23 1.4136 0.0177
4 -10 24 0.4549 -0.0096
4 -10 25 1.3727 0.0421
4 -10 26 2.4920 0.0311
4 -10 27 0.1366 -0.0941
4 -10 28 -1.3364 -0.0741
4 -9 0 0.7374 -0.2776
4 -9 1 -0.8166 0.2848
4 -9 2 -3.8530 0.2902
4 -9 3 -4.4848 -0.0714
4 -9 4 1.4809 0.0016
4 -9 5 4.5400 0.1777
4 -9 6 -0.6452 0.0134
4 -9 7 -3.5219 -0.0582
4 -9 8 0.8090 0.0740
4 -9 9 2.0528 0.0727
4 -9 10 -1.5039 -0.0039
4 -9 11 -1.5547 0.0209
4 -9 12 -0.9971 0.0517
4 -9 13 -1.0479 0.0032
4 -9 14 -0.3909 -0.0489
4 -9 15 0.0612 0.0126
4 -9 16 1.7841 0.0895
4 -9 17 0.8706 0.0021
4 -9 18 -0.3068 -0.0706
4 -9 19 1.9543 0.0200
4 -9 20 3.4708 0.0560
4 -9 21 3.2229 -0.0138
4 -9 22 0.9360 -0.0066
4 -9 23 -0.4032 0.0217
4 -9 24 1.3092 -0.0092
4 -9 25 2.5895 0.0253
4 -9 26 2.0739 0.0525
4 -9 27 1.0132 -0.0228
4 -9 28 1.1497 -0.0751
4 -9 29 0.6663 -0.0783
4 -8 0 -0.1349 -0.6198
4 -8 1 -4.7326 0.1459
4 -8 2 -3.8111 0.3049
4 -8 3 0.3698 -0.0708
4 -8 4 1.4165 -0.1794
4 -8 5 -1.2776 -0.0211
4 -8 6 -1.4750 0.0766
4 -8 7 1.0282 0.0434
4 -8 8 1.2795 -0.0335
4 -8 9 -1.4047 -0.0079
4 -8 10 -1.1396 0.0721
4 -8 11 0.1079 0.0205
4 -8 12 -2.7923 -0.0470
4 -8 13 -2.6100 0.0322
4 -8 14 -0.0634 0.0357
4 -8 15 1.3286 -0.0422
4 -8 16 1.9266 0.0188
4 -8 17 -0.7712 0.0494
4 -8 18 -0.2210 -0.0353
4 -8 19 2.7466 -0.0172
4 -8 20 2.5106 0.0503
4 -8 21 1.9881 -0.0006
4 -8 22 0.4036 -0.0422
4 -8 23 -0.9655 0.0008
4 -8 24 0.8534 0.0403
4 -8 25 3.8706 0.0534
4 -8 26 2.7814 0.0005
4 -8 27 -1.9689 -0.0541
4 -8 28 -0.7196 -0.0383
4 -8 29 4.9439 -0.0479
4 -7 0 3.5640 -0.1658
4 -7 1 -4.4780 -0.1862
4 -7 2 -3.8213 -0.0622
4 -7 3 0.2863 -0.0045
4 -7 4 -2.3620 -0.1689
4 -7 5 -2.5610 -0.1621
4 -7 6 3.4892 0.0985
4 -7 7 3.2460 0.0834
4 -7 8 -2.4962 -0.1289
4 -7 9 -2.9410 -0.0764
4 -7 10 2.0478 0.0814
4 -7 11 0.7744 0.0000
4 -7 12 -4.6387 -0.1043
4 -7 13 -2.3881 0.0243
4 -7 14 0.6164 0.0795
4 -7 15 1.1591 -0.0542
4 -7 16 1.0279 -0.0671
4 -7 17 -0.6679 0.0413
4 -7 18 0.3737 0.0304
4 -7 19 0.4947 -0.0448
4 -7 20 0.8131 -0.0229
4 -7 21 3.0012 0.0133
4 -7 22 0.7805 0.0106
4 -7 23 -1.5087 0.0107
4 -7 24 0.3178 0.0069
4 -7 25 1.9510 -0.0141
4 -7 26 -0.3573 -0.0447
4 -7 27 -2.6143 0.0045
4 -7 28 1.2456 0.0620
4 -7 29 5.2935 -0.0552
4 -6 0 5.9400 0.4638
4 -6 1 -10.7359 -0.3561
4 -6 2 -7.6119 -0.3446
4 -6 3 3.3061 0.1318
4 -6 4 -1.1925 0.0828
4 -6 5 -4.4441 -0.1202
4 -6 6 3.2173 -0.0369
4 -6 7 3.6761 0.0347
4 -6 8 -3.2771 0.0006
4 -6 9 -2.3528 -0.0661
4 -6 10 4.6527 -0.0727
4 -6 11 1.0182 0.0003
4 -6 12 -5.8282 0.0149
4 -6 13 -1.8110 -0.0092
4 -6 14 2.2183 0.0129
4 -6 15 1.0383 -0.0051
4 -6 16 -1.9113 -0.0733
4 -6 17 -0.7862 -0.0191
4 -6 18 3.3170 0.0487
4 -6 19 0.0378 -0.0163
4 -6 20 -2.1652 -0.0345
4 -6 21 1.8162 0.0212
4 -6 22 2.4615 0.0234
4 -6 23 -0.7051 -0.0267
4 -6 24 -2.2143 -0.0299
4 -6 25 0.7158 0.0277
4 -6 26 1.9139 0.0155
4 -6 27 -2.7039 -0.0371
4 -6 28 -4.5974 -0.0115
4 -6 29 1.2008 -0.0061
4 -6 30 6.2057 -0.0826
4 -5 0 0.3326 0.4438
4 -5 1 -10.1851 -0.0944
4 -5 2 -0.8169 -0.1290
4 -5 3 5.5126 0.1457
4 -5 4 -8.1431 0.2039
4 -5 5 -9.3770 0.0702
4 -5 6 5.8033 -0.1340
4 -5 7 6.8225 -0.1054
4 -5 8 -4.4456 0.1352
4 -5 9 -3.9192 0.0501
4 -5 10 5.5331 -0.1422
4 -5 11 1.7629 0.0077
4 -5 12 -5.6664 0.1281
4 -5 13 -2.0192 -0.0425
4 -5 14 2.6041 -0.0852
4 -5 15 1.5606 0.0499
4 -5 16 -2.4696 0.0128
4 -5 17 0.1141 -0.0449
4 -5 18 3.3217 0.0103
4 -5 19 -2.6276 0.0212
4 -5 20 -3.1171 -0.0148
4 -5 21 2.8190 -0.0241
4 -5 22 2.2975 0.0232
4 -5 23 -1.3491 0.0436
4 -5 24 -0.1494 0.0035
4 -5 25 2.1640 -0.0136
4 -5 26 -0.9335 -0.0211
4 -5 27 -4.3440 -0.0347
4 -5 28 -2.9820 0.0140
4 -5 29 0.7946 0.0540
4 -5 30 3.1970 -0.0310
4 -4 0 5.5775 -0.2074
4 -4 1 -3.4866 0.3545
4 -4 2 -2.7579 0.3445
4 -4 3 0.2054 -0.0730
4 -4 4 -7.6974 -0.0349
4 -4 5 -6.7904 0.1934
4 -4 6 3.5523 -0.0313
4 -4 7 4.9371 -0.1496
4 -4 8 -2.5425 0.1051
4 -4 9 -2.6631 0.1289
4 -4 10 4.2330 -0.0448
4 -4 11 0.7486 -0.0176
4 -4 12 -5.4006 0.0712
4 -4 13 -2.0984 -0.0300
4 -4 14 4.3928 -0.0722
4 -4 15 2.8785 0.0466
4 -4 16 -5.6640 0.0587
4 -4 17 -2.7356 -0.0158
4 -4 18 4.9050 -0.0344
4 -4 19 0.6626 0.0149
4 -4 20 -4.1789 0.0310
4 -4 21 -1.7363 -0.0103
4 -4 22 1.4418 0.0108
4 -4 23 1.5603 0.0412
4 -4 24 0.8803 -0.0098
4 -4 25 -0.3400 -0.0376
4 -4 26 -0.7822 0.0258
4 -4 27 0.4698 0.0288
4 -4 28 -1.7591 -0.0462
4 -4 29 -3.3144 -0.0087
4 -4 30 0.6172 0.0771
4 -3 0 9.6312 -0.5762
4 -3 1 0.6187 0.2847
4 -3 2 -6.6422 0.3247
4 -3 3 -3.0138 -0.1859
4 -3 4 -3.4706 -0.2175
4 -3 5 -5.8739 0.0880
4 -3 6 -1.8691 0.1416
4 -3 7 5.9340 0.0108
4 -3 8 3.1962 -0.0840
4 -3 9 -3.5765 0.0205
4 -3 10 -0.6783 0.1202
4 -3 11 2.6477 -0.0217
4 -3 12 0.6437 -0.0822
4 -3 13 -2.7654 0.0096
4 -3 14 -0.9468 0.0227
4 -3 15 0.9831 -0.0112
4 -3 16 -2.0762 0.0282
4 -3 17 0.5174 0.0436
4 -3 18 3.1057 -0.0252
4 -3 19 -2.0039 -0.0191
4 -3 20 -4.5861 0.0191
4 -3 21 -0.8932 -0.0052
4 -3 22 0.8039 -0.0061
4 -3 23 -0.7363 0.0362
4 -3 24 1.0581 0.0229
4 -3 25 1.9433 -0.0352
4 -3 26 0.0036 -0.0015
4 -3 27 -0.8106 0.0160
4 -3 28 -1.7094 -0.0575
4 -3 29 -0.6708 -0.0048
4 -3 30 1.1322 0.1247
4 -2 0 20.7901 -0.1007
4 -2 1 10.5967 -0.2667
4 -2 2 -16.6540 -0.2348
4 -2 3 -11.7855 0.0123
4 -2 4 6.3873 -0.0186
4 -2 5 1.0859 -0.1335
4 -2 6 -9.6318 0.0999
4 -2 7 1.0999 0.1736
4 -2 8 7.4380 -0.1600
4 -2 9 -0.6061 -0.1230
4 -2 10 -2.0960 0.1207
4 -2 11 3.4104 -0.0078
4 -2 12 3.0857 -0.0935
4 -2 13 -3.4045 0.0582
4 -2 14 -1.7273 0.0739
4 -2 15 3.4912 -0.0588
4 -2 16 0.5096 -0.0413
4 -2 17 -2.7205 0.0378
4 -2 18 -0.7523 0.0012
4 -2 19 1.4972 -0.0323
4 -2 20 -0.6092 -0.0009
4 -2 21 -2.5781 0.0294
4 -2 22 -1.3563 0.0054
4 -2 23 0.4950 0.0013
4 -2 24 1.3171 0.0116
4 -2 25 -0.4125 -0.0277
4 -2 26 -0.2266 -0.0180
4 -2 27 0.4378 0.0053
4 -2 28 -0.9728 -0.0268
4 -2 29 0.6730 -0.0123
4 -2 30 2.2911 0.0523
4 -1 0 29.4366 0.6240
4 -1 1 13.2954 -0.5094
4 -1 2 -21.9934 -0.5829
4 -1 3 -8.5401 0.2342
4 -1 4 17.1983 0.2773
4 -1 5 -0.2465 -0.2050
4 -1 6 -19.4307 -0.1133
4 -1 7 -0.6604 0.1137
4 -1 8 12.2612 -0.0461
4 -1 9 0.5753 -0.0923
4 -1 10 -6.4290 0.0097
4 -1 11 1.9592 0.0290
4 -1 12 8.2143 0.0175
4 -1 13 1.8457 0.0155
4 -1 14 -3.2320 0.0032
4 -1 15 -1.5615 -0.0490
4 -1 16 0.0139 -0.0483
4 -1 17 -0.4152 0.0084
4 -1 18 0.7724 0.0271
4 -1 19 2.5927 -0.0096
4 -1 20 -0.1501 -0.0116
4 -1 21 -1.9486 0.0319
4 -1 22 -0.5272 0.0014
4 -1 23 0.1683 -0.0327
4 -1 24 -0.3457 -0.0039
4 -1 25 -0.2110 0.0167
4 -1 26 1.0042 -0.0143
4 -1 27 -0.9736 -0.0342
4 -1 28 -0.1210 0.0242
4 -1 29 4.9502 0.0218
4 -1 30 2.8672 -0.0530
4 0 0 37.8730 0.6411
4 0 1 22.3013 0.0023
4 0 2 -19.3264 -0.1337
4 0 3 -8.1248 0.1329
4 0 4 17.9389 0.1485
4 0 5 -0.0634 -0.0568
4 0 6 -17.1544 -0.1504
4 0 7 -0.4242 -0.0522
4 0 8 8.0739 0.1170
4 0 9 -2.1258 0.0607
4 0 10 -5.5323 -0.1120
4 0 11 3.5539 0.0054
4 0 12 7.5396 0.0743
4 0 13 0.1825 -0.0599
4 0 14 -4.2293 -0.0431
4 0 15 -1.2485 0.0379
4 0 16 1.1449 0.0026
4 0 17 -1.2640 -0.0315
4 0 18 -0.7758 0.0052
4 0 19 2.9251 0.0009
4 0 20 1.2525 -0.0183
4 0 21 -1.6938 0.0039
4 0 22 -0.7687 0.0069
4 0 23 0.5542 -0.0220
4 0 24 -1.4991 -0.0186
4 0 25 -0.7071 0.0447
4 0 26 3.0683 0.0071
4 0 27 0.6267 -0.0435
4 0 28 -0.0856 0.0473
4 0 29 3.3357 0.0240
4 0 30 1.9069 -0.0975
4 1 0 41.9801 -0.0936
4 1 1 13.9121 0.5835
4 1 2 -20.6073 0.5308
4 1 3 0.7434 -0.1735
4 1 4 22.6893 -0.1886
4 1 5 -0.0834 0.1975
4 1 6 -15.3542 0.0449
4 1 7 -2.1032 -0.1521
4 1 8 4.7779 0.1011
4 1 9 -0.4207 0.1014
4 1 10 -3.4418 -0.1204
4 1 11 0.0325 -0.0035
4 1 12 2.1026 0.0523
4 1 13 0.6843 -0.0588
4 1 14 -0.3042 -0.0060
4 1 15 -1.4248 0.0767
4 1 16 -2.6836 0.0119
4 1 17 -3.2439 -0.0622
4 1 18 -0.4825 -0.0257
4 1 19 1.9385 0.0220
4 1 20 0.2412 -0.0046
4 1 21 -1.6455 -0.0408
4 1 22 -1.1983 0.0213
4 1 23 -0.8667 0.0368
4 1 24 -1.7122 -0.0222
4 1 25 2.4319 0.0141
4 1 26 3.4945 -0.0001
4 1 27 -4.6717 -0.0209
4 1 28 -3.3123 0.0563
4 1 29 6.2691 0.0207
4 1 30 6.3579 -0.0826
4 2 0 25.3574 -0.7390
4 2 1 8.5774 0.4281
4 2 2 -4.4489 0.5521
4 2 3 8.8120 -0.2251
4 2 4 11.1028 -0.2106
4 2 5 -5.3023 0.2380
4 2 6 -5.2907 0.1274
4 2 7 3.0557 -0.1302
4 2 8 0.1811 -0.0048
4 2 9 -4.3061 0.0738
4 2 10 -2.0674 0.0080
4 2 11 2.4798 -0.0072
4 2 12 1.2711 -0.0255
4 2 13 -1.0816 0.0011
4 2 14 -0.6670 0.0277
4 2 15 -1.4829 0.0212
4 2 16 -3.2313 0.0139
4 2 17 -3.0993 -0.0185
4 2 18 -0.7262 -0.0357
4 2 19 0.2004 0.0196
4 2 20 -1.1410 0.0305
4 2 21 -2.7048 -0.0295
4 2 22 -0.9653 0.0169
4 2 23 0.9673 0.0353
4 2 24 -1.5711 -0.0191
4 2 25 -1.0137 -0.0003
4 2 26 -0.4656 0.0140
4 2 27 -3.6368 0.0297
4 2 28 -0.3845 0.0087
4 2 29 4.5822 -0.0465
4 2 30 2.8716 -0.0151
4 3 0 19.1518 -0.5772
4 3 1 6.3815 -0.2094
4 3 2 0.1344 -0.0385
4 3 3 6.6050 -0.0218
4 3 4 4.0468 -0.0190
4 3 5 -1.6966 -0.0045
4 3 6 2.3379 0.0839
4 3 7 0.4204 0.0496
4 3 8 -4.8699 -0.0636
4 3 9 -2.1687 -0.0151
4 3 10 2.6355 0.0752
4 3 11 2.3973 -0.0376
4 3 12 -1.3199 -0.0573
4 3 13 -0.9942 0.0814
4 3 14 0.5924 0.0330
4 3 15 -1.2982 -0.0561
4 3 16 -2.5414 0.0054
4 3 17 -0.3264 0.0426
4 3 18 0.6861 -0.0170
4 3 19 -1.7369 0.0048
4 3 20 -2.4435 0.0529
4 3 21 -0.7476 0.0001
4 3 22 1.5149 -0.0245
4 3 23 -0.0960 0.0016
4 3 24 -3.9395 0.0448
4 3 25 -0.7790 0.0272
4 3 26 2.0513 -0.0119
4 3 27 -1.3972 0.0242
4 3 28 -2.6467 -0.0053
4 3 29 -0.8164 -0.0354
4 3 30 0.4419 0.0047
4 4 0 0.9158 0.1673
4 4 1 -6.6580 -0.6800
4 4 2 7.4344 -0.5835
4 4 3 13.7610 0.2496
4 4 4 0.0411 0.1876
4 4 5 -3.7847 -0.2498
4 4 6 4.6690 -0.0381
4 4 7 1.1229 0.1416
4 4 8 -4.5343 -0.0941
4 4 9 -1.3197 -0.1027
4 4 10 2.4128 0.0724
4 4 11 1.3927 0.0057
4 4 12 -0.2585 -0.0176
4 4 13 0.7337 0.0444
4 4 14 0.1685 -0.0159
4 4 15 -1.5429 -0.0610
4 4 16 -0.4186 -0.0000
4 4 17 2.5213 0.0594
4 4 18 1.5708 0.0020
4 4 19 -1.4436 -0.0390
4 4 20 -0.4826 0.0187
4 4 21 0.7772 0.0440
4 4 22 0.5994 -0.0229
4 4 23 0.3438 -0.0298
4 4 24 0.7218 0.0716
4 4 25 2.0541 0.0297
4 4 26 0.7165 -0.0375
4 4 27 -1.7746 0.0176
4 4 28 -2.0169 0.0014
4 4 29 -1.3267 -0.0515
4 5 0 -8.4548 0.6005
4 5 1 -1.9226 -0.3717
4 5 2 13.0442 -0.3531
4 5 3 7.9905 0.3008
4 5 4 -5.7645 0.1055
4 5 5 0.7929 -0.3155
4 5 6 8.2840 -0.1475
4 5 7 -1.3922 0.0976
4 5 8 -4.9968 0.0112
4 5 9 2.2743 -0.0606
4 5 10 3.2106 -0.0108
4 5 11 -2.2462 0.0128
4 5 12 -0.8644 0.0112
4 5 13 3.4903 -0.0362
4 5 14 0.6043 -0.0208
4 5 15 -2.9667 -0.0014
4 5 16 -0.3131 -0.0403
4 5 17 4.1997 0.0004
4 5 18 2.5664 0.0260
4 5 19 -1.7524 -0.0322
4 5 20 -0.7769 -0.0324
4 5 21 2.4426 0.0356
4 5 22 3.9874 -0.0001
4 5 23 2.9686 -0.0323
4 5 24 0.4951 0.0254
4 5 25 -0.0783 -0.0037
4 5 26 0.9614 -0.0172
4 5 27 1.1918 -0.0037
4 5 28 0.8524 -0.0327
4 5 29 0.7915 -0.0350
4 6 0 -5.9066 0.5053
4 6 1 -6.0931 0.4418
4 6 2 5.9787 0.1481
4 6 3 3.8921 -0.1004
4 6 4 -3.2811 -0.0661
4 6 5 4.0554 0.0175
4 6 6 5.8014 -0.0779
4 6 7 -3.4961 -0.0203
4 6 8 -3.3377 0.1025
4 6 9 3.9121 0.0171
4 6 10 2.6443 -0.0814
4 6 11 -3.0169 0.0095
4 6 12 -0.0859 0.0262
4 6 13 3.2413 -0.0804
4 6 14 -0.3474 -0.0051
4 6 15 -2.6414 0.0622
4 6 16 -0.8687 -0.0284
4 6 17 1.5466 -0.0459
4 6 18 0.8500 0.0186
4 6 19 -0.3348 -0.0011
4 6 20 1.6364 -0.0479
4 6 21 2.8374 -0.0006
4 6 22 2.0762 0.0088
4 6 23 0.9959 -0.0113
4 6 24 -0.3520 -0.0135
4 6 25 0.3543 -0.0306
4 6 26 2.7467 -0.0060
4 6 27 2.5277 -0.0134
4 6 28 0.8213 -0.0171
4 7 0 -11.8481 -0.0866
4 7 1 -1.7528 0.7177
4 7 2 10.0166 0.3385
4 7 3 -0.8554 -0.4277
4 7 4 -7.1413 -0.0595
4 7 5 4.5250 0.4016
4 7 6 5.2431 0.0705
4 7 7 -5.2853 -0.1391
4 7 8 -4.5275 0.0474
4 7 9 5.0761 0.0908
4 7 10 4.1342 -0.0263
4 7 11 -3.1906 -0.0164
4 7 12 -0.8532 0.0105
4 7 13 2.1776 -0.0100
4 7 14 -0.8338 0.0319
4 7 15 -2.4053 0.0547
4 7 16 -1.1465 0.0100
4 7 17 0.5566 -0.0474
4 7 18 0.5215 -0.0178
4 7 19 0.2701 0.0311
4 7 20 0.2184 0.0118
4 7 21 -1.5369 0.0018
4 7 22 -0.6210 -0.0055
4 7 23 2.3058 -0.0072
4 7 24 1.1926 -0.0273
4 7 25 0.0775 -0.0186
4 7 26 1.0143 0.0424
4 7 27 -0.5966 0.0268
4 7 28 -1.4625 -0.0336
4 8 0 -4.1179 -0.6695
4 8 1 2.4715 0.1893
4 8 2 5.6211 0.2068
4 8 3 -3.0611 -0.2367
4 8 4 -3.2705 0.0089
4 8 5 3.3195 0.2738
4 8 6 0.6976 0.0956
4 8 7 -3.9473 -0.0763
4 8 8 -0.8215 -0.0402
4 8 9 3.9699 0.0549
4 8 10 -0.2303 0.0456
4 8 11 -3.8357 -0.0037
4 8 12 0.7826 0.0273
4 8 13 1.7811 0.0715
4 8 14 -0.1735 -0.0024
4 8 15 0.0591 -0.0358
4 8 16 -0.9259 0.0371
4 8 17 -1.9374 0.0153
4 8 18 -0.7436 -0.0094
4 8 19 1.6643 0.0286
4 8 20 0.2648 0.0406
4 8 21 -4.4765 0.0189
4 8 22 -2.2721 -0.0191
4 8 23 3.5272 -0.0080
4 8 24 1.9575 0.0189
4 8 25 -1.8203 0.0171
4 8 26 -2.1702 0.0012
4 8 27 -1.3343 0.0292
4 9 0 -3.0256 -0.5433
4 9 1 1.4342 -0.5016
4 9 2 4.0609 -0.0557
4 9 3 -2.4047 0.2205
4 9 4 -1.9786 -0.0007
4 9 5 4.1167 -0.2141
4 9 6 4.0237 -0.0003
4 9 7 -1.8103 0.0796
4 9 8 -3.2711 -0.0735
4 9 9 0.2204 -0.0266
4 9 10 -1.0574 0.0685
4 9 11 -1.4562 0.0021
4 9 12 1.7623 -0.0080
4 9 13 1.5059 0.0431
4 9 14 0.4760 -0.0438
4 9 15 -0.6401 -0.0614
4 9 16 -2.2607 0.0468
4 9 17 -1.3582 0.0450
4 9 18 1.2673 -0.0062
4 9 19 3.4966 -0.0127
4 9 20 0.3937 0.0188
4 9 21 -5.1861 0.0241
4 9 22 -2.6125 -0.0260
4 9 23 1.8519 -0.0178
4 9 24 0.0626 0.0388
4 9 25 -0.8133 0.0160
4 9 26 0.6860 -0.0231
4 9 27 0.1977 0.0755
4 10 0 -2.7351 0.1642
4 10 1 -1.2039 -0.5144
4 10 2 0.2736 -0.1777
4 10 3 0.9014 0.3390
4 10 4 3.4176 -0.0658
4 10 5 2.9830 -0.4099
4 10 6 -0.3468 -0.0616
4 10 7 -2.0271 0.1349
4 10 8 1.0090 -0.0148
4 10 9 1.5625 -0.0637
4 10 10 -2.7785 -0.0145
4 10 11 -1.6394 -0.0353
4 10 12 1.2481 -0.0529
4 10 13 0.0920 -0.0198
4 10 14 -0.4085 -0.0081
4 10 15 -0.1875 0.0003
4 10 16 -0.3329 -0.0052
4 10 17 -0.8086 -0.0050
4 10 18 0.5485 0.0077
4 10 19 4.0546 -0.0356
4 10 20 1.1951 -0.0503
4 10 21 -4.7035 -0.0031
4 10 22 -2.7877 0.0076
4 10 23 0.6126 -0.0043
4 10 24 0.9181 0.0226
4 10 25 1.5762 -0.0038
4 10 26 0.8192 -0.0543
4 11 0 -0.3256 0.6728
4 11 1 -0.9871 0.0299
4 11 2 0.7426 -0.1643
4 11 3 0.3235 0.0336
4 11 4 -2.0978 -0.0059
4 11 5 -0.5435 -0.0609
4 11 6 3.3793 -0.0041
4 11 7 2.9260 0.0181
4 11 8 0.1830 0.0101
4 11 9 -3.0767 -0.0358
4 11 10 -3.0627 -0.0456
4 11 11 0.5643 -0.0147
4 11 12 0.3139 -0.0453
4 11 13 -1.4754 -0.0471
4 11 14 -0.6630 0.0419
4 11 15 0.8913 0.0451
4 11 16 0.6551 -0.0509
4 11 17 -2.7566 -0.0479
4 11 18 -2.1263 0.0046
4 11 19 3.4411 -0.0149
4 11 20 2.4013 -0.0323
4 11 21 -1.7574 0.0028
4 11 22 -1.3226 0.0152
4 11 23 -1.0758 -0.0144
4 11 24 0.0161 0.0055
4 11 25 1.9913 -0.0125
4 12 0 0.3495 0.3595
4 12 1 -2.0697 0.3699
4 12 2 -0.7830 -0.0284
4 12 3 -0.4084 -0.2036
4 12 4 -1.6675 0.1190
4 12 5 0.5674 0.3020
4 12 6 3.2021 0.0267
4 12 7 2.1430 -0.1062
4 12 8 -1.4199 0.0420
4 12 9 -4.4184 0.0422
4 12 10 -1.5096 -0.0156
4 12 11 1.7443 0.0449
4 12 12 0.1730 0.0293
4 12 13 -1.3860 -0.0232
4 12 14 -2.1939 0.0138
4 12 15 -1.4327 0.0070
4 12 16 -0.0855 -0.0179
4 12 17 -1.9019 0.0147
4 12 18 -1.6066 0.0137
4 12 19 2.0115 -0.0139
4 12 20 1.7796 -0.0105
4 12 21 -0.4102 0.0506
4 12 22 -1.5740 0.0663
4 12 23 -1.6348 -0.0296
4 12 24 1.2361 -0.0409
4 13 0 1.8135 -0.3207
4 13 1 -1.9250 0.2239
4 13 2 -0.2589 0.0923
4 13 3 1.1299 -0.1393
4 13 4 -1.4044 0.1054
4 13 5 -0.1223 0.2126
4 13 6 3.7286 -0.0073
4 13 7 3.3915 -0.0608
4 13 8 -2.1866 0.0537
4 13 9 -4.0427 0.0511
4 13 10 1.3437 0.0251
4 13 11 2.5741 0.0673
4 13 12 -0.7556 0.0432
4 13 13 -2.4015 -0.0002
4 13 14 -3.5588 -0.0113
4 13 15 -2.1974 -0.0143
4 13 16 1.5102 0.0419
4 13 17 1.1999 0.0366
4 13 18 -2.2657 -0.0238
4 13 19 -2.2608 0.0073
4 13 20 0.6567 0.0432
4 13 21 1.5215 0.0545
4 13 22 -0.2208 0.0308
4 13 23 -0.7038 -0.0240
4 14 0 1.9945 -0.4710
4 14 1 -1.1492 -0.0661
4 14 2 0.0183 0.0630
4 14 3 0.0340 0.0087
4 14 4 -1.3417 -0.0568
4 14 5 1.0370 -0.0916
4 14 6 4.2361 -0.0104
4 14 7 3.5767 0.0240
4 14 8 -1.4978 -0.0011
4 14 9 -1.7555 0.0145
4 14 10 3.5665 0.0107
4 14 11 2.8672 -0.0090
4 14 12 -1.9816 0.0085
4 14 13 -2.2001 0.0308
4 14 14 -0.0083 -0.0224
4 14 15 -0.8269 -0.0364
4 14 16 -1.0627 0.0337
4 14 17 -0.2892 0.0185
4 14 18 -2.3517 0.0041
4 14 19 -0.8348 0.0121
4 14 20 3.5373 -0.0459
4 14 21 1.2255 -0.0068
4 14 22 -2.7345 0.0748
4 15 0 3.0929 -0.0693
4 15 1 -2.2130 -0.1445
4 15 2 -2.2631 -0.0037
4 15 3 0.6153 0.0780
4 15 4 1.3316 -0.1789
4 15 5 0.1725 -0.2304
4 15 6 -0.1293 0.0559
4 15 7 0.9893 0.0625
4 15 8 1.2833 -0.0842
4 15 9 2.9814 -0.0392
4 15 10 4.0843 0.0062
4 15 11 1.3040 -0.0435
4 15 12 -1.0796 -0.0524
4 15 13 1.0919 -0.0180
4 15 14 1.2401 -0.0208
4 15 15 -4.4141 0.0107
4 15 16 -2.8495 0.0240
4 15 17 2.9767 -0.0180
4 15 18 0.6538 0.0057
4 15 19 -0.2668 -0.0242
4 15 20 1.3493 -0.0786
4 16 0 0.2052 0.3144
4 16 1 -0.0203 -0.0573
4 16 2 1.8239 -0.0537
4 16 3 0.2580 0.0752
4 16 4 -2.0496 -0.0732
4 16 5 -1.9348 -0.0793
4 16 6 -0.8551 0.0704
4 16 7 0.0487 0.0004
4 16 8 1.8483 -0.0558
4 16 9 3.3700 0.0046
4 16 10 2.3236 -0.0108
4 16 11 0.9047 -0.0617
4 16 12 -0.4645 -0.0422
4 16 13 0.9991 -0.0049
4 16 14 1.9383 0.0250
4 16 15 -2.2289 0.0519
4 16 16 -1.2339 -0.0400
4 16 17 1.4929 -0.0702
4 16 18 -1.2415 0.0685
4 16 19 -0.5456 0.0657
4 17 0 0.6392 0.2024
4 17 1 0.4469 0.0169
4 17 2 -0.1774 -0.0354
4 17 3 -0.3346 0.0587
4 17 4 0.7574 0.1260
4 17 5 1.3491 0.1026
4 17 6 -1.2349 -0.0123
4 17 7 -5.0416 -0.0419
4 17 8 -1.9875 0.0318
4 17 9 2.8999 0.0089
4 17 10 1.5822 -0.0088
4 17 11 -0.0453 0.0377
4 17 12 0.7574 0.0444
4 17 13 2.9788 0.0076
4 17 14 1.1886 -0.0007
4 17 15 -3.6730 0.0004
4 17 16 -1.4101 -0.0306
4 17 17 1.5221 0.0698
4 18 0 -4.3326 -0.1744
4 18 1 -1.2993 0.0520
4 18 2 3.9083 0.0303
4 18 3 3.4416 0.0074
4 18 4 -1.4689 0.1442
4 18 5 -0.9290 0.0893
4 18 6 0.5465 -0.1012
4 18 7 -4.7199 -0.0132
4 18 8 -4.5726 0.1043
4 18 9 0.7176 0.0164
4 18 10 1.5591 -0.0108
4 18 11 1.0248 0.0235
4 18 12 0.2275 0.0419
4 18 13 -0.3916 0.0179
4 18 14 -0.4786 -0.0207
4 18 15 0.3380 0.0388
4 19 0 -1.4690 -0.2602
4 19 1 -0.6841 0.0865
4 19 2 0.2543 0.0158
4 19 3 1.1941 -0.1288
4 19 4 -0.7645 -0.0453
4 19 6 2.1586 0.0062
4 19 7 -3.7775 0.0869
4 19 8 -4.3413 0.0045
4 19 9 -0.5341 -0.0859
4 19 10 -1.0097 -0.0080
4 19 11 -1.0512 0.0030
4 19 12 1.1340 0.0105
4 19 13 1.4233 0.0211
4 20 0 -0.6331 -0.0004
4 20 1 -3.9549 -0.0060
4 20 2 -1.4477 -0.0627
4 20 3 4.5126 -0.0985
4 20 4 1.8504 -0.1265
4 20 5 -0.7185 -0.0694
4 20 6 0.6270 0.0482
4 20 7 -1.3767 0.0482
4 20 8 -2.4886 -0.0438
4 20 9 -2.3655 0.0322
4 20 10 -2.4531 0.0377
4 21 0 0.5414 0.2856
4 21 1 -0.6166 -0.0796
4 21 2 -0.7110 -0.0534
4 21 3 2.9860 0.0227
4 21 4 1.9856 -0.1546
4 21 5 0.1303 -0.1333
4 21 6 -0.0508 0.0610
4 21 7 -1.4080 0.0930
4 22 0 1.0116 0.3257
4 22 1 0.1640 -0.0597
5 -23 0 0.2730 -0.1511
5 -23 1 0.6682 -0.1616
5 -23 2 1.8598 -0.0353
5 -23 3 0.0976 0.1130
5 -23 4 0.8151 -0.0398
5 -23 5 3.6619 -0.1738
5 -23 6 2.1106 0.1129
5 -22 0 1.6186 0.1918
5 -22 1 0.8118 -0.2004
5 -22 2 0.1672 -0.2617
5 -22 3 0.9950 0.1298
5 -22 4 3.1396 0.0796
5 -22 5 0.7962 -0.1679
5 -22 6 -1.0969 0.0127
5 -22 7 0.5514 0.1142
5 -22 8 0.2689 -0.0095
5 -22 9 -0.3662 -0.0611
5 -22 10 1.4924 -0.0197
5 -22 11 2.7028 0.1239
5 -21 0 0.2750 0.3983
5 -21 1 1.8021 -0.0633
5 -21 2 1.8674 -0.2156
5 -21 3 -1.2750 0.0527
5 -21 4 -1.1279 0.0424
5 -21 5 0.3193 -0.0852
5 -21 6 1.3783 -0.0015
5 -21 7 -0.5208 0.0462
5 -21 8 -2.7732 0.0222
5 -21 9 -0.3041 -0.0422
5 -21 10 2.7729 -0.0127
5 -21 11 2.6291 0.1248
5 -21 12 -0.3172 0.0001
5 -21 13 -1.6003 -0.0910
5 -21 14 1.3827 0.0965
5 -20 0 -0.6153 0.2229
5 -20 1 4.5722 0.2211
5 -20 2 -0.0280 0.0021
5 -20 3 -2.7631 -0.1243
5 -20 4 1.6926 0.0078
5 -20 5 -0.3098 0.1402
5 -20 6 -3.7943 -0.0022
5 -20 7 -1.7226 -0.0867
5 -20 8 0.9545 0.0707
5 -20 9 -0.8974 0.0179
5 -20 10 -2.8767 -0.0728
5 -20 11 0.1552 0.0680
5 -20 12 0.8624 0.0435
5 -20 13 -0.9803 -0.0314
5 -20 14 1.9099 -0.0009
5 -20 15 5.2756 -0.0539
5 -20 16 3.5487 0.0645
5 -19 0 -0.7243 -0.2398
5 -19 1 3.1092 0.3049
5 -19 2 0.0224 0.2622
5 -19 3 -0.7207 -0.1289
5 -19 4 -0.0702 -0.0739
5 -19 5 -1.7671 0.1625
5 -19 6 -1.0558 0.0111
5 -19 7 -1.1054 -0.1161
5 -19 8 -1.6842 0.0537
5 -19 9 -1.9618 0.0488
5 -19 10 -2.2758 -0.0220
5 -19 11 -1.2825 0.0337
5 -19 12 -2.0197 -0.0334
5 -19 13 -1.1461 -0.0476
5 -19 14 3.4888 0.0089
5 -19 15 4.7748 -0.0001
5 -19 16 2.0719 0.1119
5 -19 17 0.6540 0.0565
5 -19 18 0.6041 -0.1612
5 -18 0 -2.1759 -0.4724
5 -18 1 3.2791 0.1262
5 -18 2 0.3071 0.2713
5 -18 3 -1.6664 -0.0429
5 -18 4 -0.8388 -0.1558
5 -18 5 -0.7636 0.0297
5 -18 6 -0.8705 0.0536
5 -18 7 -0.3077 -0.0468
5 -18 8 1.4997 -0.0024
5 -18 9 -1.1071 0.0190
5 -18 10 -4.3173 -0.0031
5 -18 11 -3.2161 -0.0247
5 -18 12 -3.3419 -0.0506
5 -18 13 -1.3248 0.0448
5 -18 14 3.8086 0.0157
5 -18 15 4.6482 -0.1003
5 -18 16 3.0690 0.0661
5 -18 17 2.9373 0.0943
5 -18 18 0.3579 -0.1277
5 -18 19 -4.7649 -0.0333
5 -18 20 -3.3196 0.1444
5 -17 0 2.3093 -0.1426
5 -17 1 1.1953 -0.2705
5 -17 2 -3.9550 -0.0490
5 -17 3 -2.1474 0.1432
5 -17 4 -0.4509 -0.0631
5 -17 5 0.7587 -0.1292
5 -17 6 2.6012 0.0460
5 -17 7 1.3058 0.0523
5 -17 8 -1.6303 -0.0630
5 -17 9 -3.8061 -0.0806
5 -17 10 -0.9629 0.0326
5 -17 11 0.5677 0.0374
5 -17 12 -4.5083 -0.0823
5 -17 13 -3.7427 -0.0148
5 -17 14 3.5956 0.0423
5 -17 15 5.6142 -0.0356
5 -17 16 2.7390 0.0367
5 -17 17 1.3082 0.0410
5 -17 18 -0.3101 -0.1001
5 -17 19 -3.5233 -0.0212
5 -17 20 -1.4684 0.0990
5 -17 21 3.1925 -0.0007
5 -16 0 1.5891 0.3840
5 -16 1 -0.3987 -0.4437
5 -16 2 -1.5789 -0.3243
5 -16 3 -0.3781 0.2525
5 -16 4 -1.1611 0.1256
5 -16 5 -0.3480 -0.1451
5 -16 6 0.1096 -0.0424
5 -16 7 1.2367 0.0724
5 -16 8 2.7255 0.0098
5 -16 9 -0.9690 -0.0853
5 -16 10 -2.3607 -0.0137
5 -16 11 -1.1627 0.0466
5 -16 12 -2.9575 -0.0531
5 -16 13 -1.1563 -0.0132
5 -16 14 2.7135 0.0710
5 -16 15 1.3260 -0.0168
5 -16 16 -0.4990 -0.0280
5 -16 17 1.9657 0.0232
5 -16 18 1.3719 -0.0073
5 -16 19 -2.7745 0.0135
5 -16 20 -0.6554 0.0245
5 -16 21 2.7823 -0.0476
5 -16 22 0.9940 -0.0060
5 -15 0 1.6859 0.4543
5 -15 1 0.5523 -0.1345
5 -15 2 0.2161 -0.2099
5 -15 3 -1.3389 0.1199
5 -15 4 -3.6560 0.1812
5 -15 5 0.2393 0.0344
5 -15 6 3.4833 -0.0932
5 -15 7 2.5692 -0.0280
5 -15 8 -0.4902 0.1023
5 -15 9 -2.4155 -0.0038
5 -15 10 1.9751 -0.0657
5 -15 11 2.5661 0.0581
5 -15 12 -4.1244 0.0427
5 -15 13 -4.8164 -0.0295
5 -15 14 0.3747 -0.0102
5 -15 15 2.4869 0.0037
5 -15 16 2.0394 0.0243
5 -15 17 0.9450 0.0134
5 -15 18 -3.0963 -0.0168
5 -15 19 -4.5807 0.0487
5 -15 20 -0.1269 0.0521
5 -15 21 1.6943 -0.0676
5 -15 22 1.5031 -0.0265
5 -15 23 1.4846 0.0944
5 -14 0 1.0101 -0.0130
5 -14 1 1.2632 0.3890
5 -14 2 2.7048 0.1983
5 -14 3 -1.1639 -0.1520
5 -14 4 -3.3000 -0.0321
5 -14 5 2.3581 0.1698
5 -14 6 2.3741 -0.0143
5 -14 7 -1.7035 -0.1017
5 -14 8 -0.7631 0.0755
5 -14 9 3.3783 0.0609
5 -14 10 4.5842 -0.0175
5 -14 11 -2.5716 0.0461
5 -14 12 -7.9129 0.0224
5 -14 13 -0.9078 -0.0382
5 -14 14 6.6672 0.0003
5 -14 15 2.9737 0.0280
5 -14 16 -3.3832 0.0146
5 -14 17 -3.6934 -0.0075
5 -14 18 -3.3174 -0.0095
5 -14 19 -2.4765 0.0554
5 -14 20 -0.0170 0.0540
5 -14 21 0.0078 -0.0628
5 -14 22 0.9115 -0.0294
5 -14 23 0.6700 0.0978
5 -14 24 -2.3504 0.0272
5 -13 0 -0.2323 -0.3909
5 -13 1 -0.7141 0.4460
5 -13 2 3.6694 0.3239
5 -13 3 2.4757 -0.2739
5 -13 4 -1.7283 -0.2319
5 -13 5 -0.7992 0.1266
5 -13 6 0.6033 0.1035
5 -13 7 0.0256 -0.0654
5 -13 8 -0.7773 -0.0434
5 -13 9 1.8581 0.0274
5 -13 10 4.0975 0.0442
5 -13 11 -0.9457 0.0142
5 -13 12 -4.7408 -0.0274
5 -13 13 -0.8541 -0.0001
5 -13 14 2.7519 0.0364
5 -13 15 1.3216 -0.0025
5 -13 16 -0.0140 -0.0295
5 -13 17 -1.0417 0.0006
5 -13 18 -4.1850 0.0029
5 -13 19 -2.7876 0.0165
5 -13 20 0.3482 0.0515
5 -13 21 -0.5415 -0.0030
5 -13 22 0.3618 -0.0215
5 -13 23 -0.4284 0.0378
5 -13 24 -3.5458 -0.0080
5 -13 25 -0.5287 -0.0316
5 -12 0 -2.8846 -0.2342
5 -12 1 2.7397 -0.0648
5 -12 2 6.2288 -0.0150
5 -12 3 -0.1300 -0.0686
5 -12 4 -4.6619 -0.1102
5 -12 5 0.6257 -0.0563
5 -12 6 4.2638 0.0555
5 -12 7 0.1646 0.0379
5 -12 8 -2.9378 -0.0691
5 -12 9 1.2958 -0.0545
5 -12 10 3.2198 0.0202
5 -12 11 -1.2521 0.0089
5 -12 12 -3.6230 -0.0127
5 -12 13 -1.4850 0.0081
5 -12 14 1.9273 0.0154
5 -12 15 2.3648 -0.0249
5 -12 16 0.3686 -0.0451
5 -12 17 -1.0517 0.0234
5 -12 18 -0.6886 0.0417
5 -12 19 1.7851 -0.0078
5 -12 20 0.3651 0.0154
5 -12 21 -2.9855 0.0085
5 -12 22 -1.3760 -0.0324
5 -12 23 -0.6565 0.0066
5 -12 24 -0.4496 0.0185
5 -12 25 2.6908 0.0159
5 -12 26 1.0313 0.0443
5 -11 0 -0.3783 0.1525
5 -11 1 1.0158 -0.4689
5 -11 2 0.3493 -0.2499
5 -11 3 -0.4571 0.2401
5 -11 4 1.1901 0.0882
5 -11 5 1.9688 -0.1872
5 -11 6 0.0327 -0.0484
5 -11 7 -1.6614 0.0757
5 -11 8 0.0378 -0.0142
5 -11 9 2.6367 -0.0465
5 -11 10 -0.3615 -0.0233
5 -11 11 -3.3481 -0.0137
5 -11 12 -1.2684 0.0189
5 -11 13 0.7605 0.0092
5 -11 14 0.2821 -0.0133
5 -11 15 -0.7049 -0.0165
5 -11 16 1.6379 -0.0180
5 -11 17 3.4041 0.0423
5 -11 18 1.3897 0.0456
5 -11 19 0.4118 -0.0417
5 -11 20 -0.6345 -0.0228
5 -11 21 -0.5911 0.0296
5 -11 22 2.3079 0.0175
5 -11 23 2.1358 0.0104
5 -11 24 0.3448 -0.0227
5 -11 25 0.4198 -0.0054
5 -11 26 -0.7262 0.0748
5 -11 27 -1.0058 0.0145
5 -10 0 -1.6616 0.2845
5 -10 1 0.7212 -0.2288
5 -10 2 0.3476 -0.0423
5 -10 3 -2.0996 0.2666
5 -10 4 -1.1614 0.0828
5 -10 5 1.1669 -0.1271
5 -10 6 1.2018 -0.0690
5 -10 7 -0.4768 0.0316
5 -10 8 0.4763 0.0631
5 -10 9 0.9548 0.0186
5 -10 10 -3.1043 -0.0660
5 -10 11 -2.7904 -0.0273
5 -10 12 1.8406 0.0585
5 -10 13 1.9435 0.0087
5 -10 14 -1.7786 -0.0267
5 -10 15 -2.2267 0.0132
5 -10 16 1.9097 0.0021
5 -10 17 2.8327 0.0018
5 -10 18 1.9733 0.0195
5 -10 19 3.0793 -0.0068
5 -10 20 1.8795 0.0032
5 -10 21 1.2350 0.0344
5 -10 22 1.7157 0.0177
5 -10 23 0.0744 -0.0303
5 -10 24 1.1830 -0.0512
5 -10 25 4.0774 0.0519
5 -10 26 1.8617 0.1151
5 -10 27 -1.3619 -0.0781
5 -9 0 1.3858 0.0558
5 -9 1 -0.0040 0.2616
5 -9 2 -4.9886 0.2587
5 -9 3 -2.9033 0.0111
5 -9 4 4.1143 -0.0475
5 -9 5 2.3188 0.0584
5 -9 6 -3.6472 0.0148
5 -9 7 -2.7848 -0.0252
5 -9 8 2.7174 0.0455
5 -9 9 2.5387 0.0386
5 -9 10 -2.2050 -0.0136
5 -9 11 -2.4985 0.0144
5 -9 12 -0.2434 0.0160
5 -9 13 0.1395 -0.0335
5 -9 14 -1.4993 -0.0081
5 -9 15 -0.5166 0.0458
5 -9 16 2.6207 0.0119
5 -9 17 2.1506 -0.0324
5 -9 18 2.7448 0.0077
5 -9 19 3.6091 0.0415
5 -9 20 0.7979 -0.0061
5 -9 21 0.0973 -0.0359
5 -9 22 1.2561 0.0232
5 -9 23 2.2886 0.0344
5 -9 24 4.0536 -0.0460
5 -9 25 2.7023 -0.0075
5 -9 26 -1.1400 0.0804
5 -8 0 1.1641 -0.1706
5 -8 1 -0.0069 0.3672
5 -8 2 -3.1988 0.1400
5 -8 3 -0.3046 -0.2516
5 -8 4 2.7648 -0.0327
5 -8 5 -0.9639 0.2038
5 -8 6 -2.4419 0.0502
5 -8 7 0.9868 -0.0574
5 -8 8 2.8339 0.0014
5 -8 9 0.5670 0.0407
5 -8 10 -1.5383 0.0498
5 -8 11 -2.0145 -0.0038
5 -8 12 -1.2363 -0.0568
5 -8 13 0.1764 -0.0033
5 -8 14 -0.5807 0.0312
5 -8 15 0.9070 0.0235
5 -8 16 2.3657 0.0235
5 -8 17 1.0820 -0.0276
5 -8 18 2.9412 -0.0457
5 -8 19 1.8807 0.0202
5 -8 20 -1.2498 0.0301
5 -8 21 1.7168 -0.0123
5 -8 22 3.9799 0.0041
5 -8 23 1.8719 0.0015
5 -8 24 0.3403 -0.0521
5 -8 25 0.1254 0.0066
5 -8 26 -0.2542 0.0980
5 -8 27 1.1092 -0.0339
5 -8 28 3.4692 -0.1959
5 -7 0 6.1359 -0.1577
5 -7 1 -1.5851 -0.0445
5 -7 2 -8.2656 -0.2485
5 -7 3 -0.6359 -0.2167
5 -7 4 5.5152 0.0788
5 -7 5 0.2134 0.1362
5 -7 6 -2.5204 0.0347
5 -7 7 1.5129 -0.0173
5 -7 8 2.3611 -0.0656
5 -7 9 -0.6710 -0.0203
5 -7 10 -0.1320 0.0786
5 -7 11 0.5590 0.0003
5 -7 12 -0.5473 -0.0528
5 -7 13 -1.4826 0.0491
5 -7 14 -1.2766 0.0203
5 -7 15 2.6794 -0.0572
5 -7 16 2.3127 0.0023
5 -7 17 -0.5809 0.0299
5 -7 18 1.2617 -0.0186
5 -7 19 0.9710 -0.0052
5 -7 20 1.2962 0.0281
5 -7 21 3.5617 -0.0141
5 -7 22 1.2892 -0.0390
5 -7 23 -0.9530 0.0152
5 -7 24 0.7330 0.0371
5 -7 25 1.4288 -0.0110
5 -7 26 -1.9317 -0.0202
5 -7 27 -2.8341 0.0038
5 -7 28 2.1108 -0.0514
5 -7 29 4.0354 -0.1089
5 -6 0 1.7975 0.0121
5 -6 1 -11.3126 -0.4244
5 -6 2 -7.8480 -0.3279
5 -6 3 6.0757 0.1022
5 -6 4 4.3828 0.0767
5 -6 5 -5.2055 -0.1370
5 -6 6 -2.5025 -0.0320
5 -6 7 3.9995 0.0577
5 -6 8 0.4983 -0.0693
5 -6 9 -2.3287 -0.0713
5 -6 10 3.0444 0.0563
5 -6 11 2.7859 0.0256
5 -6 12 -2.4159 -0.0236
5 -6 13 -3.6652 0.0208
5 -6 14 -0.1579 -0.0044
5 -6 15 3.5492 -0.0581
5 -6 16 0.3112 -0.0120
5 -6 17 -0.6207 0.0612
5 -6 18 2.0397 0.0123
5 -6 19 -0.7048 -0.0548
5 -6 20 -0.8697 0.0028
5 -6 21 3.0252 0.0395
5 -6 22 3.4328 -0.0155
5 -6 23 0.3210 -0.0198
5 -6 24 -1.1301 0.0276
5 -6 25 0.3162 0.0001
5 -6 26 -1.8141 -0.0230
5 -6 27 -4.4070 0.0587
5 -6 28 0.0043 0.0411
5 -6 29 3.9864 -0.1330
5 -5 0 0.3232 0.2099
5 -5 1 -6.9239 -0.2052
5 -5 2 -2.7442 0.0431
5 -5 3 2.1762 0.2565
5 -5 4 -4.0934 -0.1106
5 -5 5 -6.6087 -0.2851
5 -5 6 1.0132 -0.0506
5 -5 7 4.7815 0.0944
5 -5 8 -1.3956 0.0213
5 -5 9 -2.7721 -0.0742
5 -5 10 2.5049 -0.0555
5 -5 11 0.5415 0.0322
5 -5 12 -3.1128 0.0324
5 -5 13 -2.0243 -0.0478
5 -5 14 1.5761 -0.0140
5 -5 15 2.2055 0.0191
5 -5 16 -1.8375 -0.0454
5 -5 17 -1.0777 -0.0092
5 -5 18 -0.4332 0.0371
5 -5 19 -2.7640 -0.0081
5 -5 20 0.6873 -0.0085
5 -5 21 4.2288 0.0144
5 -5 22 1.7311 -0.0161
5 -5 23 -2.1245 -0.0197
5 -5 24 -0.6267 0.0408
5 -5 25 2.5746 0.0290
5 -5 26 -0.9757 -0.0447
5 -5 27 -4.5764 0.0027
5 -5 28 -1.3384 0.0744
5 -5 29 1.5968 -0.0181
5 -4 0 4.3875 0.2389
5 -4 1 -7.7706 0.3546
5 -4 2 -4.5487 0.3366
5 -4 3 -1.2391 -0.0128
5 -4 4 -5.6292 -0.1752
5 -4 5 -3.9968 -0.0001
5 -4 6 2.9116 -0.0047
5 -4 7 3.2657 -0.0261
5 -4 8 -3.9629 0.0934
5 -4 9 -3.4359 0.0220
5 -4 10 2.4979 -0.1173
5 -4 11 0.5222 -0.0133
5 -4 12 -2.6090 0.0441
5 -4 13 -1.2254 -0.0681
5 -4 14 1.9514 -0.0014
5 -4 15 -0.4328 0.0679
5 -4 16 -4.7459 -0.0424
5 -4 17 -0.7306 -0.0520
5 -4 18 1.6525 0.0279
5 -4 19 -1.7436 0.0266
5 -4 20 -2.9936 -0.0229
5 -4 21 -0.6198 -0.0240
5 -4 22 2.1471 0.0111
5 -4 23 1.0286 0.0097
5 -4 24 -0.9080 -0.0049
5 -4 25 -0.6727 -0.0068
5 -4 26 -0.0050 -0.0218
5 -4 27 0.1920 -0.0188
5 -4 28 -0.9054 0.0402
5 -4 29 -1.6694 0.0720
5 -3 0 -1.6358 -0.1052
5 -3 1 -4.3294 0.4275
5 -3 2 1.3723 0.2527
5 -3 3 -2.6871 -0.2428
5 -3 4 -7.3001 -0.0008
5 -3 5 -2.2876 0.3360
5 -3 6 3.0317 0.0451
5 -3 7 1.7540 -0.1485
5 -3 8 -3.5184 0.0616
5 -3 9 -1.1608 0.1201
5 -3 10 3.3921 -0.0667
5 -3 11 0.6788 -0.0794
5 -3 12 -2.7011 0.0269
5 -3 13 -1.8695 0.0188
5 -3 14 1.7499 0.0208
5 -3 15 0.5269 0.0351
5 -3 16 -2.1631 0.0015
5 -3 17 -0.4690 -0.0341
5 -3 18 -0.8650 -0.0193
5 -3 19 -2.3325 0.0230
5 -3 20 -1.9099 0.0005
5 -3 21 -0.6386 -0.0174
5 -3 22 0.1707 0.0178
5 -3 23 0.0148 0.0078
5 -3 24 -0.2440 -0.0407
5 -3 25 -1.1375 -0.0129
5 -3 26 -0.0820 0.0332
5 -3 27 1.5371 -0.0396
5 -3 28 0.4707 -0.0706
5 -3 29 -0.5338 0.0636
5 -2 0 6.4157 -0.5105
5 -2 1 3.6067 -0.1277
5 -2 2 -2.2407 -0.0134
5 -2 3 -7.2703 -0.0625
5 -2 4 -2.1592 0.1446
5 -2 5 0.9857 0.2110
5 -2 6 -1.3313 0.0576
5 -2 7 -0.0549 -0.0656
5 -2 8 0.9596 -0.0645
5 -2 9 1.3237 0.0566
5 -2 10 0.6561 0.0599
5 -2 11 0.2300 -0.0226
5 -2 12 0.7232 0.0126
5 -2 13 0.2883 0.0661
5 -2 14 1.3604 0.0032
5 -2 15 1.1430 -0.0365
5 -2 16 -0.7895 0.0295
5 -2 17 -2.0912 0.0212
5 -2 18 -0.5455 -0.0181
5 -2 19 2.3161 0.0113
5 -2 20 -0.0885 0.0195
5 -2 21 -3.0533 0.0007
5 -2 22 -0.6981 0.0045
5 -2 23 1.9864 0.0186
5 -2 24 -0.9480 -0.0244
5 -2 25 -3.3929 -0.0389
5 -2 26 1.2805 0.0287
5 -2 27 3.4445 -0.0051
5 -2 28 1.2144 -0.0837
5 -2 29 1.2494 -0.0011
5 -1 0 11.4327 -0.2943
5 -1 1 8.3795 -0.5613
5 -1 2 -4.0830 -0.2292
5 -1 3 -6.7928 0.2372
5 -1 4 3.1284 0.0857
5 -1 5 0.0116 -0.2193
5 -1 6 -6.5150 0.0135
5 -1 7 -0.1021 0.1094
5 -1 8 4.1367 -0.1206
5 -1 9 0.0384 -0.0470
5 -1 10 -2.4458 0.1228
5 -1 11 3.2771 0.0425
5 -1 12 5.9147 -0.0404
5 -1 13 -0.9492 -0.0027
5 -1 14 -4.4681 -0.0233
5 -1 15 0.4944 -0.0292
5 -1 16 3.8908 0.0382
5 -1 17 -0.2977 0.0280
5 -1 18 -1.3449 -0.0035
5 -1 19 2.9411 0.0059
5 -1 20 2.2609 0.0259
5 -1 21 -1.7370 0.0058
5 -1 22 -2.2088 -0.0285
5 -1 23 0.0510 0.0073
5 -1 24 -0.1994 0.0036
5 -1 25 0.4356 -0.0290
5 -1 26 2.7632 0.0262
5 -1 27 1.2368 0.0481
5 -1 28 1.9988 -0.0344
5 -1 29 4.1014 -0.0676
5 0 0 21.9075 0.4526
5 0 1 16.3535 -0.2820
5 0 2 -9.0091 -0.2609
5 0 3 -9.3202 0.1931
5 0 4 8.4243 -0.0416
5 0 5 2.3588 -0.3405
5 0 6 -9.6555 -0.0239
5 0 7 -3.6956 0.1491
5 0 8 4.3340 -0.0313
5 0 9 1.6843 -0.0890
5 0 10 -3.1520 0.0060
5 0 11 1.2192 0.0259
5 0 12 4.7486 -0.0458
5 0 13 -1.2710 -0.0502
5 0 14 -5.3496 -0.0134
5 0 15 -0.0029 -0.0000
5 0 16 3.2743 -0.0046
5 0 17 -1.3586 0.0076
5 0 18 -0.9673 0.0094
5 0 19 3.4233 -0.0339
5 0 20 0.8930 -0.0111
5 0 21 -3.6292 0.0081
5 0 22 -1.4506 -0.0215
5 0 23 1.8686 0.0091
5 0 24 -0.2256 0.0269
5 0 25 0.4561 -0.0168
5 0 26 2.7335 -0.0192
5 0 27 1.2212 0.0560
5 0 28 2.7444 0.0549
5 0 29 3.9369 -0.0573
5 1 0 21.6060 0.7243
5 1 1 12.4724 0.3787
5 1 2 -8.1279 -0.0209
5 1 3 -1.5335 -0.1138
5 1 4 11.0852 -0.0826
5 1 5 -1.4213 0.0003
5 1 6 -11.4086 0.0112
5 1 7 -2.9681 0.0037
5 1 8 5.0689 0.0550
5 1 9 0.6822 -0.0419
5 1 10 -5.3705 -0.0895
5 1 11 -0.6348 0.0104
5 1 12 4.2012 0.0068
5 1 13 -0.1737 -0.0289
5 1 14 -4.9186 0.0069
5 1 15 -2.2558 0.0100
5 1 16 0.5031 -0.0399
5 1 17 -1.6510 -0.0272
5 1 18 -2.3232 -0.0173
5 1 19 -0.5514 -0.0417
5 1 20 0.5376 0.0033
5 1 21 -0.0626 0.0352
5 1 22 -1.4702 0.0116
5 1 23 -3.2218 -0.0303
5 1 24 -1.5406 -0.0252
5 1 25 3.4306 0.0197
5 1 26 0.3560 0.0036
5 1 27 -2.9984 0.0129
5 1 28 4.6713 0.0524
5 1 29 7.4797 0.0107
5 2 0 17.9565 0.1278
5 2 1 15.0017 0.5821
5 2 2 -2.3020 0.1929
5 2 3 -1.9176 -0.2676
5 2 4 4.8907 0.0440
5 2 5 0.9463 0.3481
5 2 6 -2.9130 -0.0019
5 2 7 -3.7781 -0.1510
5 2 8 -2.2903 0.0975
5 2 9 -0.4164 0.0623
5 2 10 -0.0497 -0.0466
5 2 11 0.2459 0.0157
5 2 12 -0.0708 0.0369
5 2 13 -0.0762 0.0183
5 2 14 -0.9440 0.0237
5 2 15 -3.0679 -0.0050
5 2 16 -4.0108 -0.0431
5 2 17 -2.4421 -0.0100
5 2 18 -0.1392 0.0129
5 2 19 0.6719 0.0136
5 2 20 -0.7322 0.0060
5 2 21 -2.7421 0.0028
5 2 22 -2.0557 0.0236
5 2 23 -1.7725 -0.0316
5 2 24 -1.2900 -0.0216
5 2 25 -0.0232 0.0668
5 2 26 -3.1696 0.0074
5 2 27 -1.5828 -0.0534
5 2 28 5.9620 0.0413
5 2 29 4.4177 0.0980
5 3 0 11.7313 -0.6849
5 3 1 5.8501 0.0827
5 3 2 -0.9055 0.1976
5 3 3 3.9552 -0.0495
5 3 4 5.6838 0.1028
5 3 5 2.1732 0.1975
5 3 6 -1.2484 -0.0512
5 3 7 -5.7228 -0.0746
5 3 8 -3.4290 0.0772
5 3 9 2.5559 0.0656
5 3 10 3.1937 0.0176
5 3 11 -0.7976 0.0055
5 3 12 -2.4812 0.0379
5 3 13 0.4867 0.0475
5 3 14 0.1853 0.0017
5 3 15 -3.4766 -0.0071
5 3 16 -1.5931 0.0261
5 3 17 2.9870 0.0164
5 3 18 0.5649 0.0016
5 3 19 -4.7001 0.0552
5 3 20 -3.7659 0.0098
5 3 21 2.7364 -0.0402
5 3 22 4.7876 0.0386
5 3 23 -3.1939 0.0259
5 3 24 -5.9092 -0.0098
5 3 25 0.7619 0.0364
5 3 26 0.8187 0.0261
5 3 27 -2.3011 -0.0249
5 3 28 0.1851 0.0152
5 3 29 1.6030 0.0736
5 4 0 -4.3149 -0.7023
5 4 1 1.6466 -0.4069
5 4 2 11.4894 0.0284
5 4 3 8.1627 0.1657
5 4 4 -3.6348 -0.0451
5 4 5 0.0996 -0.1756
5 4 6 6.0664 -0.0177
5 4 7 -1.8213 0.0606
5 4 8 -4.9751 -0.0570
5 4 9 2.0229 -0.0092
5 4 10 4.7191 0.0648
5 4 11 -1.1857 -0.0099
5 4 12 -3.6237 -0.0091
5 4 13 1.1519 0.0028
5 4 14 1.7631 -0.0230
5 4 15 -1.1140 0.0125
5 4 16 0.6962 0.0486
5 4 17 1.4688 -0.0082
5 4 18 -2.0016 -0.0253
5 4 19 -1.5915 0.0528
5 4 20 1.5717 0.0116
5 4 21 3.3917 -0.0369
5 4 22 3.1135 0.0220
5 4 23 -0.6561 0.0352
5 4 24 -1.2638 0.0155
5 4 25 1.4687 0.0068
5 4 26 -0.0571 -0.0124
5 4 27 -1.9684 -0.0318
5 4 28 -0.2800 0.0263
5 5 0 -4.8923 0.0908
5 5 1 0.5720 -0.3790
5 5 2 9.5150 -0.1173
5 5 3 2.7734 0.1642
5 5 4 -4.9169 -0.1989
5 5 5 5.7034 -0.3203
5 5 6 8.1637 0.0751
5 5 7 -4.0494 0.1030
5 5 8 -4.7838 -0.1391
5 5 9 3.8595 -0.0342
5 5 10 3.7970 0.0421
5 5 11 -1.9674 -0.0590
5 5 12 -0.1313 -0.0546
5 5 13 3.2255 -0.0233
5 5 14 -1.5905 -0.0181
5 5 15 -4.0561 -0.0098
5 5 16 1.2218 0.0083
5 5 17 3.1161 -0.0078
5 5 18 0.7004 -0.0335
5 5 19 -0.3144 -0.0162
5 5 20 -1.1233 -0.0054
5 5 21 2.3792 0.0112
5 5 22 7.1806 0.0124
5 5 23 2.2085 0.0001
5 5 24 -3.7062 -0.0236
5 5 25 0.3823 -0.0483
5 5 26 4.4615 -0.0278
5 5 27 1.4527 -0.0044
5 5 28 -1.1966 0.0363
5 6 0 -12.0077 0.7106
5 6 1 -8.9980 -0.0575
5 6 2 9.8545 -0.1389
5 6 3 6.8756 0.0587
5 6 4 -3.7966 -0.0730
5 6 5 1.9673 -0.0859
5 6 6 3.4075 0.0911
5 6 7 -3.4936 0.0285
5 6 8 -1.5960 -0.0567
5 6 9 4.8429 0.0057
5 6 10 3.0387 -0.0334
5 6 11 -1.7394 -0.0535
5 6 12 0.3847 -0.0258
5 6 13 1.0804 -0.0114
5 6 14 -3.4239 0.0288
5 6 15 -1.8430 -0.0186
5 6 16 3.0319 -0.0642
5 6 17 0.7724 -0.0065
5 6 18 -1.9190 0.0205
5 6 19 0.2500 -0.0383
5 6 20 1.2095 -0.0324
5 6 21 1.8298 0.0333
5 6 22 2.4844 -0.0006
5 6 23 -0.5168 -0.0480
5 6 24 -0.9989 -0.0267
5 6 25 3.7586 0.0081
5 6 26 4.0191 -0.0435
5 6 27 -0.2400 -0.0973
5 7 0 -9.1436 0.4455
5 7 1 2.0641 0.1554
5 7 2 11.0558 -0.0578
5 7 3 -2.8171 -0.0108
5 7 4 -7.8042 0.2032
5 7 5 4.3184 0.2032
5 7 6 4.8852 -0.0169
5 7 7 -3.5300 -0.0656
5 7 8 -2.4989 0.0750
5 7 9 3.6075 0.0355
5 7 10 1.7696 -0.0464
5 7 11 -2.1397 0.0545
5 7 12 0.1677 0.0479
5 7 13 0.6290 -0.0047
5 7 14 -1.1665 0.0272
5 7 15 0.8497 -0.0206
5 7 16 0.4814 -0.0440
5 7 17 -2.8510 0.0329
5 7 18 -0.3800 0.0414
5 7 19 2.5466 -0.0318
5 7 20 -1.3780 -0.0110
5 7 21 -2.6609 0.0404
5 7 22 1.9964 -0.0018
5 7 23 2.0469 -0.0399
5 7 24 -0.8842 -0.0037
5 7 25 0.6561 0.0521
5 7 26 1.4261 -0.0344
5 7 27 -0.4630 -0.1078
5 8 0 -1.8834 -0.2899
5 8 1 -0.9359 0.1927
5 8 2 2.1950 0.0547
5 8 3 -0.9023 -0.0767
5 8 4 1.8042 0.2217
5 8 5 4.3950 0.1960
5 8 6 -0.6446 -0.1284
5 8 7 -3.6079 -0.0802
5 8 8 -0.4583 0.1220
5 8 9 1.6106 0.0367
5 8 10 -1.2111 0.0066
5 8 11 -1.3945 0.1067
5 8 12 1.4167 0.0368
5 8 13 0.6175 -0.0235
5 8 14 -0.0610 0.0078
5 8 15 0.6505 0.0179
5 8 16 -1.2932 0.0188
5 8 17 -1.7932 0.0065
5 8 18 1.2743 0.0128
5 8 19 1.3289 0.0391
5 8 20 -2.3175 0.0311
5 8 21 -2.0883 -0.0093
5 8 22 1.4811 -0.0159
5 8 23 0.9436 -0.0086
5 8 24 -0.7949 0.0405
5 8 25 -0.2860 0.1071
5 8 26 -0.8366 -0.0221
5 9 0 -5.1773 -0.5327
5 9 1 1.3252 0.1367
5 9 2 4.6639 0.0717
5 9 3 1.2109 -0.1625
5 9 4 2.0119 -0.0773
5 9 5 2.9160 -0.0333
5 9 6 0.6152 -0.0512
5 9 7 -1.4800 0.0193
5 9 8 -1.3683 0.0099
5 9 9 -0.9819 -0.0488
5 9 10 -0.8697 0.0288
5 9 11 0.7911 0.0466
5 9 12 0.0239 -0.0178
5 9 13 -1.9055 -0.0133
5 9 14 0.0843 -0.0251
5 9 15 1.3238 0.0174
5 9 16 -0.3340 0.0696
5 9 17 -0.6116 -0.0190
5 9 18 0.6830 -0.0506
5 9 19 0.7688 0.0387
5 9 20 -1.5229 0.0275
5 9 21 -1.9722 -0.0377
5 9 22 0.4412 -0.0047
5 9 23 0.2189 0.0099
5 9 24 -0.5191 0.0323
5 9 25 0.5633 0.0775
5 10 0 -0.6136 -0.0767
5 10 1 0.0300 0.0188
5 10 2 -1.3022 -0.0339
5 10 3 2.1003 -0.1482
5 10 4 6.1150 -0.2431
5 10 5 1.9467 -0.1178
5 10 6 -2.6848 0.0918
5 10 7 -0.3163 0.0406
5 10 8 2.8573 -0.1201
5 10 9 -0.5798 -0.0667
5 10 10 -3.9206 0.0106
5 10 11 -2.1310 -0.0824
5 10 12 -0.3008 -0.0530
5 10 13 1.2334 0.0526
5 10 14 1.1239 -0.0028
5 10 15 -1.6509 -0.0144
5 10 16 -1.6200 0.0118
5 10 17 0.0949 -0.0543
5 10 18 0.5203 -0.0267
5 10 19 0.6095 0.0319
5 10 20 -1.0464 -0.0600
5 10 21 -1.6827 -0.0491
5 10 22 -0.8971 0.0860
5 10 23 -1.2370 0.0174
5 10 24 1.2347 -0.0720
5 10 25 3.2532 0.0030
5 11 0 -0.0927 0.3457
5 11 1 -2.0730 -0.1502
5 11 2 -2.7891 -0.0767
5 11 3 1.0270 0.0791
5 11 4 3.5056 -0.0655
5 11 5 1.5451 -0.0336
5 11 6 0.3545 0.0915
5 11 7 1.6149 -0.0120
5 11 8 -0.2297 -0.0867
5 11 9 -3.9672 -0.0023
5 11 10 -1.8069 -0.0211
5 11 11 0.8299 -0.0907
5 11 12 0.0162 0.0090
5 11 13 0.0434 0.0747
5 11 14 -1.4666 -0.0175
5 11 15 -2.2934 -0.0488
5 11 16 -0.2034 -0.0170
5 11 17 -0.8394 -0.0223
5 11 18 -0.8688 0.0078
5 11 19 0.9203 0.0061
5 11 20 -0.9055 -0.0528
5 11 21 -1.3936 0.0360
5 11 22 -0.4526 0.1001
5 11 23 -1.4085 -0.0594
5 11 24 -0.0278 -0.1123
5 12 0 1.3033 0.1825
5 12 1 -1.8403 -0.1708
5 12 2 -3.8096 0.0721
5 12 3 -0.0788 0.2391
5 12 4 3.1998 0.1143
5 12 5 1.5966 0.0565
5 12 6 -0.0772 -0.0063
5 12 7 0.9169 -0.0458
5 12 8 -0.7958 0.0450
5 12 10 0.4644 0.0009
5 12 11 -0.8505 0.0269
5 12 12 -0.7181 0.0325
5 12 13 0.9815 -0.0024
5 12 14 -2.4913 -0.0050
5 12 15 -2.3526 -0.0111
5 12 16 1.3814 -0.0254
5 12 17 -0.7211 -0.0074
5 12 18 -2.2105 0.0574
5 12 19 -0.2928 0.0527
5 12 20 0.4724 -0.0196
5 12 21 1.0961 0.0321
5 12 22 -1.3886 0.0747
5 12 23 -3.7217 -0.0182
5 13 0 2.3628 -0.2231
5 13 1 -2.6367 -0.0571
5 13 2 -3.4047 0.1647
5 13 3 0.3705 0.1524
5 13 4 2.2561 0.0873
5 13 5 1.3393 0.0091
5 13 6 1.8416 -0.0898
5 13 7 1.3238 0.0167
5 13 8 -3.1219 0.1310
5 13 9 -1.4039 0.0065
5 13 10 2.8983 -0.0013
5 13 11 0.3874 0.1021
5 13 12 -0.5137 0.0167
5 13 13 -0.6665 -0.0367
5 13 14 -3.0663 -0.0101
5 13 15 0.2758 -0.0247
5 13 16 3.1450 0.0267
5 13 17 -1.2858 0.0681
5 13 18 -3.2880 0.0158
5 13 19 -0.1877 -0.0509
5 13 20 2.1724 -0.0193
5 13 21 1.1088 0.1096
5 13 22 -2.2813 0.1141
5 14 0 1.6085 -0.2211
5 14 1 -0.6775 0.0785
5 14 2 -0.9734 -0.0047
5 14 3 -0.0889 -0.1272
5 14 4 0.5415 -0.0308
5 14 5 0.6916 -0.0074
5 14 6 1.9462 -0.0486
5 14 7 0.5396 0.0453
5 14 8 -2.6292 0.0427
5 14 9 1.5810 -0.0851
5 14 10 3.9474 0.0061
5 14 11 -1.3457 0.0729
5 14 12 -2.3780 -0.0551
5 14 13 0.4251 -0.0479
5 14 14 0.5452 0.0151
5 14 15 0.0331 0.0334
5 14 16 0.4416 0.0496
5 14 17 -0.2537 -0.0327
5 14 18 -1.4880 -0.0954
5 14 19 0.0183 -0.0446
5 14 20 2.8458 0.0473
5 15 0 2.4582 0.1240
5 15 1 -0.9928 0.0813
5 15 2 -1.9321 -0.2512
5 15 3 -0.9406 -0.2243
5 15 4 -0.0629 0.0004
5 15 5 -0.1450 0.0480
5 15 6 1.9281 0.0097
5 15 7 2.3835 -0.0218
5 15 8 -0.5684 -0.0709
5 15 9 -0.4862 -0.0549
5 15 10 0.7511 0.0055
5 15 11 0.1711 -0.0659
5 15 12 -0.5742 -0.0606
5 15 13 0.1018 0.0651
5 15 14 0.1933 0.0184
5 15 15 -1.3249 -0.0495
5 15 16 0.1990 -0.0231
5 15 17 1.7903 0.0109
5 15 18 -0.0085 0.0291
5 15 19 0.1105 -0.0528
5 16 0 -0.6152 0.2638
5 16 1 1.4140 0.0245
5 16 2 0.2115 -0.1584
5 16 3 -2.4070 -0.0465
5 16 4 -0.6632 0.0267
5 16 5 1.3328 0.0675
5 16 6 1.6537 0.0507
5 16 7 1.1221 -0.0791
5 16 8 -0.3965 -0.0817
5 16 9 -1.6054 0.0314
5 16 10 0.3680 0.0027
5 16 11 1.8771 -0.0664
5 16 12 -1.6978 0.0250
5 16 13 -1.6522 0.0078
5 16 14 1.4111 -0.0760
5 16 15 0.4008 0.0321
5 16 16 0.2385 0.0714
5 16 17 0.0785 0.0270
5 17 0 1.0765 0.0503
5 17 1 3.1350 -0.0053
5 17 2 -0.8293 0.1273
5 17 3 -1.9236 0.1411
5 17 4 2.0732 -0.0080
5 17 5 0.7569 0.0093
5 17 6 -3.3276 0.0147
5 17 7 -0.2079 -0.0490
5 17 8 3.9495 0.0195
5 17 9 -0.5274 0.0744
5 17 10 -2.6355 -0.0186
5 17 11 1.0191 -0.0313
5 17 12 0.3736 0.0554
5 17 13 -0.3869 -0.0075
5 17 14 -0.0268 -0.0172
5 17 15 -0.7056 0.0443
5 17 16 0.1136 -0.0121
5 18 0 -0.9246 -0.2447
5 18 1 3.5248 0.0080
5 18 2 1.7675 0.2946
5 18 3 -2.1797 0.1164
5 18 4 -0.9765 -0.1089
5 18 5 1.1474 -0.0631
5 18 6 -1.2109 0.0028
5 18 7 -1.3615 0.0741
5 18 8 1.9087 0.0781
5 18 9 0.2614 -0.0467
5 18 10 -0.7743 -0.0881
5 18 11 0.5606 0.0514
5 18 12 -0.8354 0.1039
5 18 13 -0.8539 -0.0519
5 18 14 0.3656 -0.0546
5 19 0 -0.7841 -0.1849
5 19 1 1.4141 -0.0020
5 19 2 0.8478 0.0263
5 19 3 -0.1638 -0.0980
5 19 4 1.2002 0.0023
5 19 5 2.0446 0.0382
5 19 6 -2.4492 -0.0269
5 19 7 -3.6324 0.0517
5 19 8 1.4316 0.0061
5 19 9 1.3783 -0.0838
5 19 10 -1.4134 -0.0304
5 19 11 -0.8510 0.0066
5 20 0 -3.3518 -0.0510
5 20 1 -2.5269 -0.0882
5 20 2 4.6562 -0.1349
5 20 3 5.3328 -0.0645
5 20 4 -1.2516 0.0598
5 20 5 -2.0030 -0.0559
5 20 6 -0.0460 -0.0401
5 20 7 -0.7507 0.1220
5 20 8 -1.3687 0.0261
5 21 0 -2.3059 0.2245
5 21 1 -0.5634 -0.0292
5 21 2 4.0089 -0.1833
5 21 3 2.8190 -0.1003
5 21 4 -1.5287 -0.0139
6 -23 0 1.8005 -0.3079
6 -23 1 -0.7550 0.1752
6 -23 2 1.0031 0.1405
6 -23 3 1.7471 -0.1621
6 -23 4 0.2943 -0.1010
6 -22 0 2.1783 -0.0919
6 -22 1 -1.9421 -0.1380
6 -22 2 0.7772 -0.0656
6 -22 3 2.1028 0.0568
6 -22 4 -0.8280 0.0065
6 -22 5 -0.2536 -0.0116
6 -22 6 1.7100 0.0501
6 -22 7 0.2902 -0.0037
6 -22 8 -0.4576 0.0225
6 -22 9 0.0998 0.0614
6 -21 0 -1.1397 0.1032
6 -21 1 -0.7461 -0.3339
6 -21 2 1.5017 -0.1350
6 -21 3 -1.7037 0.1933
6 -21 4 -2.6131 0.0185
6 -21 5 1.9449 -0.0983
6 -21 6 1.9855 0.0254
6 -21 7 -2.8308 0.0548
6 -21 8 -2.3143 0.0412
6 -21 9 1.1778 0.0066
6 -21 10 1.7681 0.0375
6 -21 11 0.4474 0.0854
6 -21 12 -1.3071 -0.0391
6 -20 0 -1.3161 0.2145
6 -20 1 2.2927 -0.1442
6 -20 2 1.4785 -0.0674
6 -20 3 -1.8727 0.1195
6 -20 4 -3.1786 0.0271
6 -20 5 -1.3395 -0.0398
6 -20 6 0.8352 -0.0310
6 -20 7 -0.1371 0.0266
6 -20 8 -1.7024 0.0758
6 -20 9 -2.5600 -0.0223
6 -20 10 -1.8698 -0.0122
6 -20 11 0.1343 0.0570
6 -20 12 0.8588 -0.0259
6 -20 13 1.7463 -0.0009
6 -20 14 2.5652 0.0553
6 -20 15 1.2492 -0.0220
6 -19 0 0.3746 0.1202
6 -19 1 4.0385 0.2272
6 -19 2 1.0772 0.1001
6 -19 3 -4.0639 -0.1019
6 -19 4 -4.2259 -0.0433
6 -19 5 1.7754 0.0963
6 -19 6 3.9339 -0.0167
6 -19 7 -1.9501 -0.0436
6 -19 8 -5.3965 0.0472
6 -19 9 -3.9753 -0.0120
6 -19 10 -0.9127 0.0068
6 -19 11 1.6679 0.0342
6 -19 12 1.0897 -0.0698
6 -19 13 0.4520 -0.0307
6 -19 14 1.6333 0.0515
6 -19 15 1.7167 0.0271
6 -19 16 0.3837 0.0222
6 -19 17 -0.0019 -0.0238
6 -18 0 -0.6704 -0.0179
6 -18 1 3.9914 0.3845
6 -18 2 0.9973 0.0883
6 -18 3 -2.0753 -0.2696
6 -18 4 -1.7638 -0.0373
6 -18 5 1.1516 0.1934
6 -18 6 1.3855 -0.0156
6 -18 7 -1.5868 -0.0897
6 -18 8 -2.2691 0.0382
6 -18 9 -1.8189 0.0199
6 -18 10 -1.4303 -0.0026
6 -18 11 -1.9894 -0.0209
6 -18 12 -2.1110 -0.0609
6 -18 13 2.2741 0.0087
6 -18 14 5.5823 0.0381
6 -18 15 3.3306 0.0062
6 -18 16 0.5776 0.0150
6 -18 17 -0.5433 -0.0181
6 -18 18 -2.1528 -0.0484
6 -17 0 2.4448 -0.1083
6 -17 1 0.7647 0.0565
6 -17 2 -2.0829 -0.0597
6 -17 3 -1.7185 -0.1432
6 -17 4 -0.2717 0.0212
6 -17 5 2.5885 0.1306
6 -17 6 2.0397 -0.0022
6 -17 7 -0.9877 -0.0729
6 -17 8 -2.0174 -0.0169
6 -17 9 -2.6057 0.0078
6 -17 10 -1.3581 0.0186
6 -17 11 -0.3429 -0.0115
6 -17 12 -0.6830 -0.0250
6 -17 13 1.5896 0.0268
6 -17 14 3.2293 0.0092
6 -17 15 1.7981 -0.0094
6 -17 16 0.7619 0.0330
6 -17 17 0.9987 0.0288
6 -17 18 0.0577 -0.0180
6 -17 19 -1.2248 -0.0556
6 -17 20 0.1592 0.0116
6 -16 0 0.6725 -0.1383
6 -16 1 -0.6463 -0.3467
6 -16 2 -0.7821 -0.0356
6 -16 3 -0.4402 0.1926
6 -16 4 -0.7859 -0.0108
6 -16 5 0.2435 -0.1060
6 -16 6 0.9881 0.0116
6 -16 7 2.1532 0.0271
6 -16 8 -0.1234 -0.0521
6 -16 9 -3.7473 -0.0412
6 -16 10 0.3240 0.0426
6 -16 11 2.4460 0.0308
6 -16 12 -2.0766 -0.0160
6 -16 13 -2.1044 0.0081
6 -16 14 1.0643 0.0060
6 -16 15 1.7148 0.0007
6 -16 16 1.7792 0.0408
6 -16 17 1.4571 0.0517
6 -16 18 -1.1190 -0.0143
6 -16 19 -1.8778 -0.0811
6 -16 20 0.9810 0.0374
6 -16 21 1.2457 0.1563
6 -15 0 4.0384 0.0366
6 -15 1 0.5673 -0.2958
6 -15 2 -2.2492 0.1080
6 -15 3 -2.9806 0.2956
6 -15 4 0.0060 -0.0970
6 -15 5 3.0894 -0.2035
6 -15 6 0.3099 0.0129
6 -15 7 -0.6255 0.0685
6 -15 8 0.1253 -0.0088
6 -15 9 -0.2011 -0.0421
6 -15 10 1.9100 0.0009
6 -15 11 0.6148 0.0227
6 -15 12 -2.8509 -0.0050
6 -15 13 -2.0558 -0.0072
6 -15 14 0.1628 0.0043
6 -15 15 2.1826 0.0162
6 -15 16 2.1770 0.0245
6 -15 17 -1.6795 0.0260
6 -15 18 -4.5795 0.0072
6 -15 19 -2.1087 -0.0342
6 -15 20 0.8535 0.0154
6 -15 21 0.7441 0.0870
6 -15 22 1.5023 0.0061
6 -14 0 1.8749 0.2462
6 -14 1 0.8046 0.0826
6 -14 2 1.4682 0.1048
6 -14 3 -0.5787 0.0529
6 -14 4 -0.6105 -0.0543
6 -14 5 -0.4900 -0.0171
6 -14 6 -1.9173 -0.0137
6 -14 7 2.3856 -0.0046
6 -14 8 3.4763 0.0496
6 -14 9 -1.1454 -0.0018
6 -14 10 -1.8160 -0.0360
6 -14 11 -1.1914 -0.0021
6 -14 12 0.1354 -0.0103
6 -14 13 2.1584 -0.0141
6 -14 14 0.8466 0.0083
6 -14 15 -1.0475 0.0160
6 -14 16 -1.4275 0.0141
6 -14 17 -2.3164 0.0085
6 -14 18 -3.2954 -0.0179
6 -14 19 -1.9148 -0.0281
6 -14 20 -0.2194 0.0303
6 -14 21 0.3698 0.0717
6 -14 22 -0.1881 -0.0108
6 -14 23 -3.6152 -0.0867
6 -13 0 -0.6538 0.1037
6 -13 1 1.8938 0.2330
6 -13 2 4.2490 -0.0266
6 -13 3 -1.1183 -0.1725
6 -13 4 -2.6756 0.0931
6 -13 5 1.4903 0.2031
6 -13 6 2.0855 -0.0494
6 -13 7 -0.4023 -0.1083
6 -13 8 -1.9953 0.0500
6 -13 9 1.6180 0.0645
6 -13 10 2.7825 0.0050
6 -13 11 -2.5773 -0.0327
6 -13 12 -2.3913 -0.0453
6 -13 13 0.7492 0.0084
6 -13 14 -0.1689 0.0397
6 -13 15 0.4696 0.0002
6 -13 16 1.8525 -0.0226
6 -13 17 -0.9093 -0.0159
6 -13 18 -3.3022 -0.0026
6 -13 19 -1.8549 0.0397
6 -13 20 -1.4362 0.0289
6 -13 21 -1.1105 -0.0297
6 -13 22 -1.1188 -0.0329
6 -13 23 -4.2365 -0.0188
6 -13 24 -1.2742 0.0617
6 -12 0 -0.6153 -0.1628
6 -12 1 2.5648 0.0105
6 -12 2 2.6259 -0.1701
6 -12 3 -2.2644 -0.1227
6 -12 4 -1.5417 0.1649
6 -12 5 2.2831 0.1311
6 -12 6 2.1239 -0.0632
6 -12 7 -0.3582 -0.0460
6 -12 8 -0.7968 0.0137
6 -12 9 2.1174 0.0270
6 -12 10 -0.0490 0.0564
6 -12 11 -4.3520 0.0031
6 -12 12 -1.7407 -0.0604
6 -12 13 1.1578 0.0030
6 -12 14 1.0310 0.0594
6 -12 15 0.6634 -0.0051
6 -12 16 -0.0133 -0.0366
6 -12 17 0.5865 0.0201
6 -12 18 2.1811 0.0347
6 -12 19 0.0446 0.0137
6 -12 20 -4.0551 -0.0129
6 -12 21 -1.5858 -0.0077
6 -12 22 0.3757 0.0207
6 -12 23 -3.2877 -0.0395
6 -12 24 0.1323 -0.0121
6 -11 0 -2.2182 -0.1478
6 -11 1 -1.6635 -0.2457
6 -11 2 1.0809 -0.1649
6 -11 3 -0.0990 0.0837
6 -11 4 -1.9578 0.0502
6 -11 5 0.1551 -0.1291
6 -11 6 3.4202 -0.0311
6 -11 7 -0.2049 0.0822
6 -11 8 -3.3542 -0.0219
6 -11 9 1.5466 -0.0550
6 -11 10 1.7362 0.0320
6 -11 11 -2.5653 0.0506
6 -11 12 -1.8863 0.0013
6 -11 13 -0.0659 -0.0214
6 -11 14 -0.3344 0.0083
6 -11 15 -0.2431 0.0119
6 -11 16 1.8733 0.0018
6 -11 17 3.0937 0.0170
6 -11 18 1.9493 0.0176
6 -11 19 -0.2312 0.0359
6 -11 20 -1.4129 0.0207
6 -11 21 1.1998 -0.0449
6 -11 22 1.1295 -0.0269
6 -11 23 -1.5487 0.0251
6 -11 24 1.8683 0.0387
6 -11 25 2.3102 0.0715
6 -10 0 -2.5626 0.1743
6 -10 1 0.3133 -0.0470
6 -10 2 0.1967 0.0270
6 -10 3 -3.5268 0.0785
6 -10 4 -3.0247 -0.1528
6 -10 5 1.2900 -0.1845
6 -10 6 2.5748 0.0387
6 -10 7 -1.5892 0.0747
6 -10 8 -1.3939 -0.0245
6 -10 9 1.8423 -0.0492
6 -10 10 -0.8728 -0.0349
6 -10 11 -1.8483 0.0323
6 -10 12 1.0078 0.0479
6 -10 13 0.6196 -0.0334
6 -10 14 -1.9337 -0.0272
6 -10 15 -1.6518 0.0142
6 -10 16 1.8154 0.0046
6 -10 17 3.9648 0.0215
6 -10 18 4.2285 0.0249
6 -10 19 1.8934 0.0005
6 -10 20 -1.6329 -0.0074
6 -10 21 -0.2784 -0.0091
6 -10 22 1.9036 0.0278
6 -10 23 2.1315 0.0281
6 -10 24 3.1637 -0.0821
6 -10 25 0.7501 -0.0255
6 -9 0 -0.9343 0.3139
6 -9 1 -1.5368 0.2956
6 -9 2 -1.2097 0.2260
6 -9 3 0.5626 -0.0778
6 -9 4 -0.0004 -0.2019
6 -9 5 -2.5675 0.0375
6 -9 6 -1.1386 0.1003
6 -9 7 1.2971 -0.0410
6 -9 8 2.2485 -0.0025
6 -9 9 0.7897 0.0288
6 -9 10 -1.5214 -0.0735
6 -9 11 -1.4379 -0.0373
6 -9 12 -0.5772 0.0504
6 -9 13 0.3874 0.0160
6 -9 14 0.2867 -0.0163
6 -9 15 0.6371 -0.0191
6 -9 16 2.9508 -0.0137
6 -9 17 3.5276 0.0189
6 -9 18 2.2363 0.0033
6 -9 19 0.3408 -0.0149
6 -9 20 0.1085 0.0308
6 -9 21 2.1457 0.0041
6 -9 22 2.4933 -0.0420
6 -9 23 2.2428 -0.0124
6 -9 24 1.5994 -0.0591
6 -9 25 -1.0789 0.0001
6 -9 26 -0.5695 0.1722
6 -8 0 1.6736 -0.0630
6 -8 1 1.5401 0.2037
6 -8 2 -1.2657 0.2088
6 -8 3 -0.7328 -0.0725
6 -8 4 0.2435 0.0063
6 -8 5 -0.6079 0.2095
6 -8 6 0.6429 0.0474
6 -8 7 2.6386 -0.0942
6 -8 8 2.3241 0.0273
6 -8 9 -0.8032 0.0629
6 -8 10 -1.7435 -0.0253
6 -8 11 0.1885 -0.0311
6 -8 12 1.4365 0.0165
6 -8 13 1.3506 0.0318
6 -8 14 -0.0632 0.0157
6 -8 15 0.2526 -0.0150
6 -8 16 2.2723 -0.0301
6 -8 17 3.7045 0.0036
6 -8 18 3.1796 0.0253
6 -8 19 0.3694 -0.0002
6 -8 20 0.3340 -0.0169
6 -8 21 2.9234 -0.0383
6 -8 22 4.0712 0.0003
6 -8 23 2.9635 0.0595
6 -8 24 -1.4200 -0.0592
6 -8 25 -3.9451 -0.0799
6 -8 26 -0.2988 0.0935
6 -8 27 3.2359 -0.0187
6 -7 0 3.6230 -0.4891
6 -7 1 -3.3781 -0.2217
6 -7 2 -5.2998 -0.0189
6 -7 3 4.5251 0.1006
6 -7 4 6.0500 0.2033
6 -7 5 -3.4114 0.0669
6 -7 6 -4.3167 -0.0865
6 -7 7 3.9839 -0.0089
6 -7 8 4.5612 0.0479
6 -7 9 -1.3334 0.0266
6 -7 10 0.5568 0.0420
6 -7 11 3.8237 0.0081
6 -7 12 -0.1754 -0.0144
6 -7 13 -3.2712 0.0163
6 -7 14 0.5301 0.0120
6 -7 15 3.9836 0.0091
6 -7 16 1.7707 0.0157
6 -7 17 0.8485 0.0094
6 -7 18 1.2723 -0.0055
6 -7 19 0.9784 -0.0172
6 -7 20 3.5811 0.0004
6 -7 21 4.8622 0.0019
6 -7 22 3.3755 0.0126
6 -7 23 0.9584 0.0242
6 -7 24 -2.2196 -0.0610
6 -7 25 -2.3683 -0.0504
6 -7 26 -1.2917 0.0977
6 -7 27 -0.5162 0.0291
6 -7 28 2.2016 -0.1600
6 -6 0 0.4928 -0.2859
6 -6 1 -3.6789 -0.3745
6 -6 2 -1.5055 -0.2426
6 -6 3 5.0038 0.1233
6 -6 4 0.5367 0.1078
6 -6 5 -6.8102 -0.1753
6 -6 6 -2.0270 -0.0929
6 -6 7 5.9976 0.0856
6 -6 8 2.0549 -0.0246
6 -6 9 -3.2234 -0.0412
6 -6 10 2.1703 0.0722
6 -6 11 4.6090 0.0206
6 -6 12 -2.1347 -0.0324
6 -6 13 -4.4090 -0.0172
6 -6 14 2.4217 -0.0116
6 -6 15 3.6365 0.0269
6 -6 16 -2.0572 0.0360
6 -6 17 -1.1345 -0.0036
6 -6 18 1.6335 -0.0173
6 -6 19 1.6720 0.0104
6 -6 20 2.4121 0.0223
6 -6 21 2.7464 -0.0262
6 -6 22 3.6361 -0.0394
6 -6 23 2.1947 0.0238
6 -6 24 -0.3900 0.0456
6 -6 25 -0.4015 0.0212
6 -6 26 -3.0313 0.0214
6 -6 27 -3.4259 -0.0005
6 -6 28 2.0843 -0.0754
6 -5 0 4.3043 0.4054
6 -5 1 -3.0802 -0.0728
6 -5 2 -4.3988 -0.2442
6 -5 3 0.9346 -0.0479
6 -5 4 -0.2717 -0.1269
6 -5 5 -4.5724 -0.1883
6 -5 6 -1.7801 0.0306
6 -5 7 3.3365 0.0611
6 -5 8 -0.1867 -0.0958
6 -5 9 -3.7455 -0.0416
6 -5 10 1.0048 0.0327
6 -5 11 3.5802 -0.0287
6 -5 12 -1.8129 -0.0436
6 -5 13 -4.3038 -0.0232
6 -5 14 1.6808 -0.0025
6 -5 15 2.1142 0.0018
6 -5 16 -3.2406 -0.0108
6 -5 17 -3.2157 0.0098
6 -5 18 -1.0993 0.0066
6 -5 19 1.2786 -0.0200
6 -5 20 1.9736 -0.0115
6 -5 21 1.0650 -0.0030
6 -5 22 1.7423 -0.0142
6 -5 23 0.3603 0.0020
6 -5 24 1.2385 0.0410
6 -5 25 3.2991 0.0161
6 -5 26 -2.5019 -0.0320
6 -5 27 -4.9589 0.0239
6 -5 28 1.0754 0.0658
6 -4 0 -0.5064 0.6867
6 -4 1 -4.7530 0.2494
6 -4 2 -1.6409 -0.0301
6 -4 3 0.9592 -0.1342
6 -4 4 -0.7049 -0.1406
6 -4 5 -2.7005 0.0337
6 -4 6 -1.8748 0.1113
6 -4 7 0.0971 -0.0094
6 -4 8 -1.0808 -0.0506
6 -4 9 -1.6826 -0.0172
6 -4 10 0.4058 -0.0586
6 -4 11 1.6304 -0.0386
6 -4 12 -1.2154 0.0062
6 -4 13 -2.8650 0.0016
6 -4 14 0.3357 0.0194
6 -4 15 -0.6667 -0.0264
6 -4 16 -3.2859 -0.0589
6 -4 17 -2.1911 0.0079
6 -4 18 -0.8996 0.0226
6 -4 19 -0.0843 -0.0146
6 -4 20 -1.5785 -0.0131
6 -4 21 -1.0551 -0.0049
6 -4 22 1.1966 -0.0294
6 -4 23 -0.8052 -0.0273
6 -4 24 -0.0276 0.0327
6 -4 25 2.6952 0.0278
6 -4 26 0.1137 -0.0547
6 -4 27 -0.8520 -0.0165
6 -4 28 0.4455 0.1035
6 -3 0 -3.0034 0.1033
6 -3 1 4.2492 0.2859
6 -3 2 3.0173 0.2341
6 -3 3 -4.2774 -0.0308
6 -3 4 -2.9104 0.0653
6 -3 5 1.4647 0.2122
6 -3 6 -0.4259 0.0227
6 -3 7 -3.0327 -0.0692
6 -3 8 -0.3419 0.0720
6 -3 9 2.9910 0.0294
6 -3 10 0.6279 -0.0864
6 -3 11 -1.3167 0.0213
6 -3 12 -0.8937 0.0703
6 -3 13 -0.3583 0.0094
6 -3 14 0.4482 0.0155
6 -3 15 -0.2843 -0.0041
6 -3 16 -0.7707 -0.0221
6 -3 17 -2.4139 -0.0010
6 -3 18 -2.6338 -0.0018
6 -3 19 0.4797 -0.0058
6 -3 20 -0.0787 0.0051
6 -3 21 -1.7915 0.0103
6 -3 22 -1.6355 -0.0106
6 -3 23 -1.7321 -0.0266
6 -3 24 -0.5083 0.0018
6 -3 25 1.3882 0.0175
6 -3 26 2.2806 -0.0451
6 -3 27 1.8137 -0.0668
6 -3 28 -0.6407 0.0374
6 -2 0 0.5184 -0.6428
6 -2 1 7.4705 0.1079
6 -2 2 0.0600 0.2699
6 -2 3 -8.2175 0.0511
6 -2 4 -0.2539 0.1514
6 -2 5 5.3758 0.1216
6 -2 6 -1.8045 -0.0922
6 -2 7 -5.6552 -0.0420
6 -2 8 2.1882 0.1101
6 -2 9 5.9763 0.0452
6 -2 10 -1.3345 -0.0151
6 -2 11 -2.9235 0.0563
6 -2 12 2.1913 0.0469
6 -2 13 3.1451 0.0066
6 -2 14 0.4637 0.0100
6 -2 15 -0.7263 0.0171
6 -2 16 -0.5529 0.0205
6 -2 17 -1.8924 -0.0025
6 -2 18 0.1884 0.0014
6 -2 19 3.3151 0.0305
6 -2 20 0.1280 0.0241
6 -2 21 -3.6187 -0.0116
6 -2 22 -2.2962 -0.0165
6 -2 23 0.0607 0.0133
6 -2 24 -0.7879 0.0049
6 -2 25 -0.1770 -0.0147
6 -2 26 3.3263 -0.0206
6 -2 27 3.2578 -0.0417
6 -2 28 0.5242 -0.0360
6 -1 0 0.6810 -0.6449
6 -1 1 10.3898 -0.1243
6 -1 2 -0.2835 0.0211
6 -1 3 -8.7845 0.0204
6 -1 4 0.2577 -0.0055
6 -1 5 4.2035 -0.1139
6 -1 6 -2.8103 -0.0506
6 -1 7 -5.3075 0.0362
6 -1 8 1.7306 0.0004
6 -1 9 4.1621 0.0101
6 -1 10 -0.8124 0.0529
6 -1 11 0.3808 -0.0041
6 -1 12 3.0614 -0.0435
6 -1 13 -0.8939 -0.0049
6 -1 14 -3.0886 -0.0027
6 -1 15 2.2356 0.0228
6 -1 16 4.6492 0.0435
6 -1 17 -0.8572 0.0167
6 -1 18 -2.1107 0.0149
6 -1 19 2.5034 -0.0015
6 -1 20 2.0999 -0.0220
6 -1 21 -3.4385 -0.0153
6 -1 22 -3.3011 0.0214
6 -1 23 1.1061 0.0349
6 -1 24 0.6527 -0.0320
6 -1 25 0.9425 -0.0299
6 -1 26 3.3908 0.0681
6 -1 27 2.2740 0.0370
6 -1 28 1.0685 -0.1109
6 0 0 9.9788 0.1467
6 0 1 12.2835 -0.2338
6 0 2 -5.8590 -0.2977
6 0 3 -9.8547 -0.0301
6 0 4 2.7593 -0.1139
6 0 5 3.3630 -0.1722
6 0 6 -5.9762 0.0745
6 0 7 -6.1355 0.0535
6 0 8 3.8961 -0.1231
6 0 9 4.6494 -0.0373
6 0 10 -3.6782 0.0416
6 0 11 -2.6581 -0.0727
6 0 12 1.9638 -0.0764
6 0 13 -0.7602 0.0021
6 0 14 -1.8154 0.0003
6 0 15 3.0824 0.0160
6 0 16 2.2016 0.0059
6 0 17 -3.4959 -0.0116
6 0 18 -1.8022 -0.0127
6 0 19 3.4973 -0.0344
6 0 20 1.2336 -0.0113
6 0 21 -4.4551 0.0015
6 0 22 -2.1601 0.0021
6 0 23 1.2100 0.0214
6 0 24 -0.2880 -0.0119
6 0 25 1.6052 -0.0315
6 0 26 3.0638 0.0454
6 0 27 1.1524 0.0720
6 0 28 1.5457 -0.0452
6 1 0 11.0443 0.6966
6 1 1 10.1532 -0.1977
6 1 2 -5.1201 -0.2831
6 1 3 -5.6373 0.0495
6 1 4 2.3539 -0.0257
6 1 5 -0.1407 -0.0154
6 1 6 -5.5975 0.1055
6 1 7 -3.3556 -0.0187
6 1 8 2.6995 -0.0995
6 1 9 -0.4859 -0.0090
6 1 10 -5.6052 -0.0048
6 1 11 0.3770 -0.0497
6 1 12 4.7243 0.0144
6 1 13 -1.4432 0.0187
6 1 14 -5.2476 -0.0284
6 1 15 -1.2856 -0.0225
6 1 16 1.0297 -0.0365
6 1 17 -0.9786 -0.0183
6 1 18 -1.7486 -0.0060
6 1 19 0.9643 -0.0113
6 1 20 1.0168 0.0157
6 1 21 -2.9055 -0.0010
6 1 22 -3.3002 -0.0255
6 1 23 -1.7250 -0.0154
6 1 24 0.0448 -0.0061
6 1 25 1.5800 -0.0056
6 1 26 0.1050 0.0172
6 1 27 1.7431 0.0510
6 1 28 4.3335 0.0406
6 2 0 12.2795 0.3074
6 2 1 10.3172 0.0144
6 2 2 -3.8460 0.1068
6 2 3 -3.0996 0.1275
6 2 4 4.2057 0.0757
6 2 5 2.0372 0.1223
6 2 6 -6.3626 0.0012
6 2 7 -7.6638 -0.0662
6 2 8 1.5794 0.0487
6 2 9 3.9569 0.0557
6 2 10 -1.6835 -0.0032
6 2 11 -1.7746 0.0434
6 2 12 0.2208 0.0683
6 2 13 -1.3003 -0.0161
6 2 14 -2.1646 -0.0382
6 2 15 -1.4421 -0.0198
6 2 16 -1.2244 0.0023
6 2 17 -1.6190 0.0498
6 2 18 -0.6052 0.0049
6 2 19 2.0348 -0.0259
6 2 20 -0.0007 0.0171
6 2 21 -3.7866 0.0162
6 2 22 -2.5227 -0.0326
6 2 23 -0.8396 -0.0434
6 2 24 -0.1146 0.0444
6 2 25 -0.8368 0.0587
6 2 26 -1.4519 -0.0558
6 2 27 3.0366 -0.0287
6 2 28 4.3776 0.1500
6 3 0 7.3248 -0.3979
6 3 1 6.3802 0.2192
6 3 2 2.1726 0.3826
6 3 3 3.2399 0.0341
6 3 4 1.9688 -0.0060
6 3 5 -0.8348 0.0617
6 3 6 -3.8532 -0.0660
6 3 7 -2.8713 0.0166
6 3 8 3.3851 0.1281
6 3 9 2.4719 0.0246
6 3 10 -2.8509 0.0004
6 3 11 -2.6072 0.0757
6 3 12 0.0443 0.0261
6 3 13 1.6904 -0.0291
6 3 14 0.2128 0.0208
6 3 15 -3.0760 0.0162
6 3 16 -1.4266 0.0279
6 3 17 1.1458 0.0530
6 3 18 -0.7643 -0.0002
6 3 19 -1.8722 -0.0093
6 3 20 0.2163 -0.0044
6 3 21 3.1186 0.0127
6 3 22 0.9505 0.0318
6 3 23 -3.9456 -0.0128
6 3 24 -1.7424 0.0027
6 3 25 1.1968 0.0409
6 3 26 -0.3189 -0.0156
6 3 27 0.7498 -0.0033
6 4 0 1.5648 -0.4436
6 4 1 4.5097 0.2052
6 4 2 5.0434 0.1000
6 4 3 1.8936 -0.1924
6 4 4 0.2863 -0.0496
6 4 5 4.8037 -0.0058
6 4 6 1.2756 -0.0621
6 4 7 -4.9268 0.0603
6 4 8 -0.4830 0.0443
6 4 9 3.6740 -0.0579
6 4 10 1.5129 0.0069
6 4 11 -1.5708 0.0414
6 4 12 -1.6011 -0.0584
6 4 13 1.2503 -0.0255
6 4 14 0.5531 0.0744
6 4 15 -1.6344 0.0198
6 4 16 0.1534 -0.0146
6 4 17 -0.2824 -0.0060
6 4 18 -2.0078 0.0086
6 4 19 0.2938 0.0330
6 4 20 2.9324 -0.0232
6 4 21 3.7051 -0.0088
6 4 22 0.8557 0.0504
6 4 23 -2.3624 -0.0027
6 4 24 -0.0727 -0.0230
6 4 25 2.2417 0.0205
6 4 26 0.2568 -0.0175
6 4 27 -1.0607 -0.0078
6 5 0 -2.7118 0.1009
6 5 1 -0.8906 -0.0326
6 5 2 6.3130 -0.3345
6 5 3 4.0487 -0.1942
6 5 4 -0.8294 0.0470
6 5 5 2.1847 -0.0148
6 5 6 0.6079 -0.0251
6 5 7 -1.8616 0.0077
6 5 8 1.4843 -0.0618
6 5 9 2.6808 -0.0498
6 5 10 1.4412 -0.0061
6 5 11 -0.2900 -0.0433
6 5 12 -1.3265 -0.0594
6 5 13 -0.2364 0.0187
6 5 14 -0.5619 0.0231
6 5 15 -0.7393 -0.0303
6 5 16 0.4527 -0.0071
6 5 17 0.2256 -0.0280
6 5 18 0.6116 -0.0165
6 5 19 -0.3377 0.0297
6 5 20 -1.0297 -0.0278
6 5 21 3.7736 -0.0180
6 5 22 4.5649 0.0626
6 5 23 -1.9473 0.0140
6 5 24 -2.1442 -0.1007
6 5 25 4.1002 -0.0942
6 5 26 3.2310 0.0112
6 5 27 -1.7450 0.1215
6 6 0 -7.8693 0.3909
6 6 1 -2.4187 -0.1704
6 6 2 8.8629 -0.2705
6 6 3 1.7649 0.0456
6 6 4 -4.5610 0.0993
6 6 5 2.3764 0.0090
6 6 6 3.5937 0.0128
6 6 7 -0.8217 -0.0624
6 6 8 -1.4278 -0.0478
6 6 9 0.9117 0.0330
6 6 10 2.2521 -0.0339
6 6 11 0.0977 -0.0570
6 6 12 -0.8594 0.0226
6 6 13 -0.1515 0.0292
6 6 14 -1.3381 -0.0461
6 6 15 -0.5411 -0.0283
6 6 16 0.9793 0.0205
6 6 17 0.6658 -0.0326
6 6 18 0.7049 -0.0243
6 6 19 -1.4587 0.0180
6 6 20 -2.1148 0.0027
6 6 21 2.4948 0.0108
6 6 22 2.9081 0.0000
6 6 23 -1.6427 -0.0559
6 6 24 0.4253 -0.0549
6 6 25 4.9832 -0.0038
6 6 26 1.1246 -0.0199
6 7 0 -3.4516 0.0842
6 7 1 0.6153 -0.1121
6 7 2 4.9127 0.1811
6 7 3 -1.2156 0.2494
6 7 4 -1.1108 -0.0115
6 7 5 4.6115 -0.0106
6 7 6 2.7206 0.0552
6 7 7 -2.4520 -0.0508
6 7 8 -3.4942 0.0040
6 7 9 0.4090 0.0708
6 7 10 2.7936 0.0014
6 7 11 0.3065 0.0124
6 7 12 -1.1576 0.0505
6 7 13 -1.2493 0.0002
6 7 14 -0.4417 -0.0539
6 7 15 1.9427 -0.0089
6 7 16 0.7054 0.0385
6 7 17 -0.9631 0.0248
6 7 18 0.0108 0.0081
6 7 19 -1.8225 -0.0216
6 7 20 -1.9417 -0.0110
6 7 21 3.1112 0.0163
6 7 22 3.0214 -0.0061
6 7 23 -2.5179 0.0006
6 7 24 -1.0288 0.0421
6 7 25 2.8213 -0.0283
6 8 0 -4.3612 -0.3473
6 8 1 -2.1318 0.0532
6 8 2 4.7425 0.4242
6 8 3 3.7359 0.1444
6 8 4 1.0655 -0.1595
6 8 5 0.6818 -0.0365
6 8 6 1.4566 0.0470
6 8 7 -0.0284 0.0162
6 8 8 -2.1811 0.0523
6 8 9 -0.0666 0.0242
6 8 10 0.5396 0.0190
6 8 11 -2.0013 0.0488
6 8 12 -1.0628 -0.0047
6 8 13 1.1069 -0.0302
6 8 14 1.3828 0.0158
6 8 15 0.0901 0.0352
6 8 16 -1.5799 0.0004
6 8 17 -0.2073 0.0109
6 8 18 0.5956 0.0333
6 8 19 -1.0231 -0.0161
6 8 20 0.6572 -0.0232
6 8 21 2.7974 0.0241
6 8 22 -1.0457 0.0155
6 8 23 -3.6113 -0.0066
6 8 24 1.2579 0.0489
6 8 25 2.1822 0.0256
6 9 0 -3.4050 -0.2408
6 9 1 1.9064 0.0919
6 9 2 3.7539 0.0659
6 9 3 1.5793 -0.1395
6 9 4 0.3496 -0.0898
6 9 5 2.0041 0.0074
6 9 6 3.8197 0.0113
6 9 7 -0.6649 0.0601
6 9 8 -4.6279 -0.0069
6 9 9 -0.6545 -0.0826
6 9 10 1.8547 0.0402
6 9 11 -0.8005 0.0427
6 9 12 -1.7451 -0.0677
6 9 13 -0.8783 -0.0180
6 9 14 -0.7494 0.0544
6 9 15 -0.2579 0.0223
6 9 16 1.5866 -0.0240
6 9 17 1.0422 -0.0145
6 9 18 -2.8001 0.0054
6 9 19 -2.2982 -0.0058
6 9 20 1.9634 -0.0082
6 9 21 1.8031 0.0070
6 9 22 -1.8161 -0.0147
6 9 23 -0.9827 -0.0156
6 9 24 2.5727 0.0889
6 10 0 -1.5259 0.1491
6 10 1 -1.7406 -0.0465
6 10 2 1.1988 -0.3686
6 10 3 5.5147 -0.1801
6 10 4 2.7548 0.1386
6 10 5 -2.2731 0.0278
6 10 6 -1.8057 -0.0777
6 10 7 0.3184 0.0305
6 10 8 1.2544 -0.0259
6 10 9 0.7874 -0.0715
6 10 10 -2.1405 0.0035
6 10 11 -3.5202 -0.0389
6 10 12 -0.1339 -0.0231
6 10 13 1.6654 0.0612
6 10 14 -1.6660 0.0142
6 10 15 -2.1923 -0.0237
6 10 16 1.4006 -0.0222
6 10 17 -0.9124 -0.0501
6 10 18 -4.9121 -0.0047
6 10 19 -0.7198 0.0323
6 10 20 3.4079 -0.0199
6 10 21 0.4340 0.0084
6 10 22 -3.2369 0.0321
6 10 23 -0.7528 -0.0496
6 11 0 0.0482 0.3291
6 11 1 -1.6045 -0.0830
6 11 2 -0.5497 -0.3147
6 11 3 2.5366 0.0062
6 11 4 1.2211 0.1923
6 11 5 -0.6927 -0.0137
6 11 6 0.5319 -0.0866
6 11 7 0.6930 -0.0009
6 11 8 -1.4672 -0.0157
6 11 9 -1.1454 -0.0097
6 11 10 0.1355 -0.0110
6 11 11 -0.5638 -0.0295
6 11 12 0.7615 0.0698
6 11 13 0.6444 0.0608
6 11 14 -3.8889 -0.0851
6 11 15 -3.0226 -0.0571
6 11 16 1.3825 0.0193
6 11 17 -0.8932 -0.0019
6 11 18 -2.3375 0.0418
6 11 19 0.4973 0.0352
6 11 20 -0.2364 -0.0338
6 11 21 -2.3088 0.0469
6 11 22 -2.0864 0.0382
6 12 0 0.0899 0.1139
6 12 1 -3.6070 0.0815
6 12 2 -2.5429 0.1326
6 12 3 3.3152 0.1015
6 12 4 4.5140 -0.0123
6 12 5 -0.2378 -0.0273
6 12 6 -3.0003 -0.0198
6 12 7 -1.0993 -0.0431
6 12 8 1.1700 0.0195
6 12 9 2.4064 0.0800
6 12 10 -0.0937 0.0265
6 12 11 -2.0490 -0.0022
6 12 12 1.5904 0.0234
6 12 13 0.2594 -0.0341
6 12 14 -4.2180 -0.0718
6 12 15 0.4525 0.0326
6 12 16 3.1144 0.0506
6 12 17 -2.4175 -0.0151
6 12 18 -2.5510 0.0473
6 12 19 0.0679 0.0382
6 12 20 -0.5478 -0.0365
6 12 21 -0.0644 0.0597
6 13 0 0.5790 -0.2116
6 13 1 -2.3500 0.1969
6 13 2 -1.1469 0.4089
6 13 3 2.5227 -0.0068
6 13 4 1.3632 -0.2312
6 13 5 -2.5843 0.0080
6 13 6 -1.2999 0.0768
6 13 7 0.9769 0.0041
6 13 8 0.3436 0.0366
6 13 9 1.4425 0.0187
6 13 10 0.5083 0.0003
6 13 11 -0.5491 -0.0028
6 13 12 1.1075 -0.0369
6 13 13 -1.0613 -0.0038
6 13 14 -0.6717 0.0324
6 13 15 3.7919 0.0088
6 13 16 -0.5935 -0.0385
6 13 17 -5.0181 -0.0223
6 13 18 0.9876 0.0510
6 13 19 3.3783 0.0134
6 13 20 -0.0935 -0.0102
6 14 0 1.3518 -0.3133
6 14 1 -1.3732 0.0295
6 14 2 -1.7014 0.1889
6 14 3 -0.7026 -0.1123
6 14 4 -1.0385 -0.1236
6 14 5 -1.4222 0.0930
6 14 6 -0.0224 0.0646
6 14 7 -1.0567 0.0253
6 14 8 -0.7430 -0.0211
6 14 9 1.9015 -0.1056
6 14 10 -0.6944 0.0132
6 14 11 -0.9741 0.0485
6 14 12 2.0066 -0.0396
6 14 13 -0.5692 0.0023
6 14 14 -1.1598 0.0058
6 14 15 1.8293 -0.0206
6 14 16 0.1060 0.0024
6 14 17 -0.7620 -0.0225
6 14 18 1.3217 -0.0509
6 14 19 0.0434 -0.0185
6 15 0 -0.3311 -0.1156
6 15 1 -1.7776 -0.2491
6 15 2 -1.2274 -0.1884
6 15 3 -0.0625 0.0282
6 15 4 -1.0250 0.1629
6 15 5 -1.3812 0.0193
6 15 6 0.5714 -0.0868
6 15 7 -1.2686 0.0294
6 15 8 -3.0175 -0.0094
6 15 9 -1.3986 -0.0665
6 15 10 -0.3214 0.0349
6 15 11 0.5975 -0.0348
6 15 12 -0.7701 -0.0500
6 15 13 -1.6654 0.0734
6 15 14 1.6056 0.0178
6 15 15 2.1660 -0.0367
6 15 16 -0.6752 -0.0011
6 15 17 -0.7207 -0.0181
6 16 0 0.6649 0.1782
6 16 1 2.1026 -0.2044
6 16 2 -0.3051 -0.2500
6 16 3 -2.5398 0.1162
6 16 4 -1.4365 0.1757
6 16 5 1.9069 -0.0743
6 16 6 2.4954 -0.1063
6 16 7 -2.6431 0.0271
6 16 8 -5.4643 0.0092
6 16 9 -2.5858 -0.0003
6 16 10 1.3555 -0.0051
6 16 11 0.7457 -0.0436
6 16 12 -2.7180 0.0635
6 16 13 -0.5966 0.0335
6 16 14 2.2999 -0.0942
6 16 15 0.2703 0.0138
6 16 16 -0.7377 0.0944
6 17 0 2.9565 0.3395
6 17 1 1.9205 0.0512
6 17 2 -3.0586 -0.0805
6 17 3 -1.3366 0.0471
6 17 4 1.8683 0.0028
6 17 5 0.2928 -0.0636
6 17 6 -0.5302 -0.0215
6 17 7 0.8300 -0.0294
6 17 8 -1.0360 -0.0252
6 17 9 -3.3017 0.0701
6 17 10 0.3410 0.0220
6 17 11 0.3925 -0.0305
6 17 12 -3.7130 0.0182
6 17 13 -0.6595 -0.0645
6 17 14 2.9275 -0.0300
6 18 0 3.2915 0.1057
6 18 1 2.0051 0.1980
6 18 2 -2.7162 0.1934
6 18 3 -1.9744 -0.0684
6 18 4 0.9767 -0.1868
6 18 5 0.8658 0.0107
6 18 6 0.5043 0.0898
6 18 7 2.1932 -0.0217
6 18 8 0.5775 -0.0306
6 18 9 -2.7122 0.0063
6 18 10 -1.3664 -0.0819
6 18 11 -0.8829 -0.0304
6 18 12 -0.5799 0.0616
6 19 0 1.7200 -0.1640
6 19 1 1.4831 0.1009
6 19 2 -1.7084 0.1474
6 19 3 0.3511 -0.0683
6 19 4 3.7350 -0.0103
6 19 5 0.4695 0.0755
6 19 6 -3.6330 0.0227
6 19 7 0.0962 -0.0085
6 19 8 2.6206 -0.0620
6 19 9 -0.2506 -0.1059
6 20 0 -1.0259 -0.3077
6 20 1 1.6766 -0.0166
6 20 2 3.8245 0.1055
6 20 3 1.5327 0.0619
6 20 4 -1.2178 0.0686
6 20 5 -1.2088 -0.0788
7 -23 0 3.3794 -0.0624
7 -23 1 -1.1837 0.3577
7 -22 0 -0.3037 -0.1291
7 -22 1 -2.9229 0.1104
7 -22 2 2.2847 -0.0533
7 -22 3 0.5744 -0.0281
7 -22 4 -2.1235 0.1062
7 -22 5 1.0059 0.0176
7 -22 6 -0.1879 -0.0808
7 -22 7 -2.1423 0.0264
7 -21 0 -1.8711 -0.1126
7 -21 1 -0.0178 -0.0924
7 -21 2 1.8613 -0.0215
7 -21 3 -3.1447 0.0853
7 -21 4 -2.1851 0.0058
7 -21 5 2.5562 -0.0715
7 -21 6 -0.8345 0.0077
7 -21 7 -2.6125 0.1062
7 -21 8 0.8870 0.0506
7 -21 9 -0.6106 -0.0504
7 -21 10 -2.5252 0.0143
7 -21 11 -0.5330 0.0890
7 -20 0 -3.3785 0.0454
7 -20 1 0.2395 -0.1281
7 -20 2 2.6530 0.0505
7 -20 3 -3.0274 0.1443
7 -20 4 -3.1734 -0.0591
7 -20 5 2.8393 -0.1023
7 -20 6 0.8123 0.0167
7 -20 7 -3.7644 0.0604
7 -20 8 -2.1650 0.0028
7 -20 9 -0.9880 -0.0317
7 -20 10 -1.0772 0.0151
7 -20 11 0.4761 0.0483
7 -20 12 1.2364 0.0158
7 -20 13 0.1114 -0.0517
7 -19 0 0.1657 0.1401
7 -19 1 2.3640 0.0400
7 -19 2 0.7384 0.1332
7 -19 3 -3.8800 0.0048
7 -19 4 -1.0499 -0.1259
7 -19 5 4.0107 0.0102
7 -19 6 -0.7792 0.0833
7 -19 7 -5.3334 0.0231
7 -19 8 -1.7542 -0.0179
7 -19 9 0.3468 -0.0219
7 -19 10 0.4285 -0.0273
7 -19 11 1.2795 -0.0183
7 -19 12 -0.0280 0.0060
7 -19 13 -1.0220 0.0016
7 -19 14 -0.2820 0.0263
7 -19 15 -0.3248 0.0069
7 -18 0 -1.5728 0.0132
7 -18 1 1.1660 0.0395
7 -18 2 3.9394 0.0431
7 -18 3 0.9170 -0.0520
7 -18 4 -2.6492 0.0301
7 -18 5 -0.5934 0.1216
7 -18 6 -0.2615 0.0338
7 -18 7 -1.6722 -0.0203
7 -18 8 -0.2206 -0.0133
7 -18 9 -0.2138 -0.0148
7 -18 10 -1.3102 -0.0088
7 -18 11 -0.3273 0.0059
7 -18 12 2.2408 0.0095
7 -18 13 3.5239 0.0022
7 -18 14 0.1584 0.0075
7 -18 15 -2.7819 -0.0407
7 -18 16 -0.5447 -0.0504
7 -18 17 1.2887 0.1067
7 -17 0 0.7399 -0.1732
7 -17 1 1.6613 -0.0885
7 -17 2 1.8694 -0.0815
7 -17 3 -0.0550 0.0246
7 -17 4 -0.5935 0.1755
7 -17 5 1.7106 0.0319
7 -17 6 -0.2574 -0.1166
7 -17 7 -2.3308 0.0068
7 -17 8 -0.9209 0.0728
7 -17 9 -0.6973 -0.0015
7 -17 10 0.7445 -0.0073
7 -17 11 2.6185 0.0268
7 -17 12 1.6431 -0.0023
7 -17 13 0.0649 -0.0102
7 -17 14 -1.0741 0.0515
7 -17 15 -0.2977 0.0061
7 -17 16 2.2391 -0.0689
7 -17 17 2.5484 0.0793
7 -17 18 -0.4183 0.1077
7 -17 19 -2.0810 -0.1060
7 -16 0 0.4042 -0.0615
7 -16 1 -1.7226 -0.0596
7 -16 2 1.5938 -0.1570
7 -16 3 2.8748 -0.0262
7 -16 4 -0.8790 0.0836
7 -16 5 -1.5510 -0.0552
7 -16 6 0.0633 -0.0891
7 -16 7 0.9839 0.0381
7 -16 8 -0.0287 0.0283
7 -16 9 -0.1566 -0.0432
7 -16 10 1.8425 -0.0018
7 -16 11 0.1139 0.0528
7 -16 12 -0.9842 0.0267
7 -16 13 1.5298 -0.0061
7 -16 14 0.4735 0.0190
7 -16 15 -1.1482 -0.0100
7 -16 16 1.3633 -0.0524
7 -16 17 2.3499 0.0976
7 -16 18 -0.5732 0.1094
7 -16 19 -0.5657 -0.1282
7 -16 20 1.1576 -0.0067
7 -15 0 1.7112 0.2083
7 -15 1 -1.5515 0.0579
7 -15 2 -0.2706 -0.0837
7 -15 3 0.3854 -0.0949
7 -15 4 0.5095 -0.0824
7 -15 5 0.9750 -0.0380
7 -15 6 -1.1029 0.0019
7 -15 7 -0.6897 -0.0121
7 -15 8 0.6336 -0.0258
7 -15 9 0.6619 -0.0308
7 -15 10 1.6271 -0.0291
7 -15 11 1.2698 0.0234
7 -15 12 0.2604 0.0464
7 -15 13 -1.4564 -0.0345
7 -15 14 -2.0084 -0.0307
7 -15 15 1.1759 0.0440
7 -15 16 2.1910 -0.0041
7 -15 17 -0.4098 0.0053
7 -15 18 -1.5971 0.0223
7 -15 19 -0.0493 -0.0881
7 -15 20 -0.6477 0.0363
7 -15 21 -2.5372 0.1970
7 -14 0 2.2668 0.2284
7 -14 1 -0.2762 0.1615
7 -14 2 1.3160 0.1380
7 -14 3 0.8692 -0.0947
7 -14 4 -1.1571 -0.1761
7 -14 5 -2.0432 0.0603
7 -14 6 -0.1917 0.1048
7 -14 7 3.2880 -0.0448
7 -14 8 0.9450 -0.0483
7 -14 9 -2.0028 -0.0171
7 -14 10 -0.8576 -0.0511
7 -14 11 0.7021 -0.0052
7 -14 12 2.5596 0.0507
7 -14 13 0.5804 -0.0310
7 -14 14 -2.5861 -0.0433
7 -14 15 -0.9872 0.0499
7 -14 16 0.8048 0.0055
7 -14 17 -0.3087 -0.0448
7 -14 18 -1.7762 -0.0245
7 -14 19 -0.4359 -0.0630
7 -14 20 0.0934 0.0157
7 -14 21 -2.1610 0.1432
7 -14 22 -2.6942 -0.0363
7 -13 0 -0.9146 -0.1407
7 -13 1 0.2480 0.0651
7 -13 2 2.6526 0.2634
7 -13 3 -0.3958 0.0458
7 -13 4 -0.2691 -0.0281
7 -13 5 2.2846 0.1144
7 -13 6 0.7465 0.0270
7 -13 7 -1.7637 -0.0646
7 -13 8 -0.6469 0.0398
7 -13 9 2.2453 0.0490
7 -13 10 -0.7448 -0.0607
7 -13 11 -1.9577 -0.0382
7 -13 12 1.9909 0.0628
7 -13 13 -1.4647 0.0122
7 -13 14 -3.5557 -0.0530
7 -13 15 2.5125 0.0195
7 -13 16 3.2375 0.0365
7 -13 17 -1.5274 -0.0445
7 -13 18 -1.8980 -0.0554
7 -13 19 0.4390 -0.0180
7 -13 20 -1.8266 0.0213
7 -13 21 -4.3996 0.0864
7 -13 22 -3.0306 -0.0372
7 -13 23 -0.8498 -0.1891
7 -12 0 -1.5116 -0.4671
7 -12 1 0.1230 -0.1075
7 -12 2 1.5969 0.1721
7 -12 3 0.1478 0.1491
7 -12 5 0.7037 0.0073
7 -12 6 1.3112 -0.0496
7 -12 7 0.3047 0.0127
7 -12 8 0.5529 0.0582
7 -12 9 1.7834 0.0452
7 -12 10 -2.9962 0.0202
7 -12 11 -3.3474 -0.0214
7 -12 12 1.9158 -0.0112
7 -12 13 0.2482 0.0307
7 -12 14 -1.6940 0.0162
7 -12 15 -0.5263 -0.0015
7 -12 16 0.2895 0.0157
7 -12 17 2.8795 -0.0065
7 -12 18 3.0465 -0.0110
7 -12 19 -2.4412 0.0062
7 -12 20 -5.5769 -0.0162
7 -12 21 -1.0704 0.0380
7 -12 22 0.6135 -0.0022
7 -12 23 -1.7485 -0.1214
7 -12 24 0.8452 0.0741
7 -11 0 -4.8829 -0.2230
7 -11 1 -2.8286 -0.2215
7 -11 2 1.5242 -0.1514
7 -11 3 0.1110 0.0954
7 -11 4 -2.5835 0.0858
7 -11 5 0.7472 -0.1275
7 -11 6 3.4576 -0.0609
7 -11 7 -2.6952 0.0733
7 -11 8 -1.9264 -0.0041
7 -11 9 5.6110 -0.0013
7 -11 10 1.2638 0.0789
7 -11 11 -3.5138 -0.0062
7 -11 12 -1.2840 -0.0817
7 -11 13 -1.3244 0.0161
7 -11 14 -0.9803 0.0707
7 -11 15 0.9858 0.0076
7 -11 16 2.1059 -0.0124
7 -11 17 1.7497 -0.0064
7 -11 18 0.1492 0.0160
7 -11 19 -1.3300 0.0240
7 -11 20 -0.7566 -0.0325
7 -11 21 1.5561 0.0105
7 -11 22 -0.5867 0.0477
7 -11 23 -2.4071 -0.0349
7 -11 24 1.3891 0.0104
7 -10 0 -2.2057 0.4397
7 -10 1 0.0919 -0.1523
7 -10 2 -1.2137 -0.4154
7 -10 3 -3.4909 -0.0504
7 -10 4 -3.0712 0.0430
7 -10 5 0.9480 -0.1168
7 -10 6 2.4524 -0.0211
7 -10 7 -2.0890 0.0614
7 -10 8 0.3262 -0.0498
7 -10 9 4.4579 -0.0666
7 -10 10 -0.7200 0.0268
7 -10 11 -2.7476 0.0234
7 -10 12 0.6866 -0.0556
7 -10 13 2.1167 -0.0240
7 -10 14 0.5085 0.0528
7 -10 15 -2.0454 0.0143
7 -10 16 -0.6055 -0.0422
7 -10 17 3.2420 -0.0257
7 -10 18 4.4148 0.0284
7 -10 19 0.7071 0.0422
7 -10 20 -3.2660 -0.0064
7 -10 21 -1.3212 -0.0285
7 -10 22 1.4130 -0.0086
7 -10 23 1.7155 -0.0119
7 -10 24 0.8809 -0.0120
7 -10 25 -0.8288 0.0994
7 -9 0 -2.9818 0.6452
7 -9 1 -0.9895 0.0707
7 -9 2 0.3960 -0.2445
7 -9 3 -0.1815 -0.1164
7 -9 4 -3.0782 0.0301
7 -9 5 -1.3689 0.0655
7 -9 6 2.5599 -0.0030
7 -9 7 0.1403 -0.0590
7 -9 8 -0.3172 -0.0115
7 -9 9 1.9818 -0.0251
7 -9 10 0.8165 -0.0565
7 -9 11 -0.6044 0.0279
7 -9 12 0.4097 0.0407
7 -9 13 2.3929 -0.0382
7 -9 14 1.1769 -0.0384
7 -9 15 0.4292 -0.0013
7 -9 16 3.1601 0.0051
7 -9 17 2.3033 0.0006
7 -9 18 -0.1518 -0.0074
7 -9 19 0.8480 0.0106
7 -9 20 1.9357 0.0096
7 -9 21 1.1376 -0.0737
7 -9 22 0.4919 -0.0380
7 -9 23 0.3911 0.0688
7 -9 24 -1.5860 -0.0325
7 -9 25 -1.6738 -0.0151
7 -9 26 2.2293 0.1506
7 -8 0 0.8502 0.0174
7 -8 1 3.2803 0.2967
7 -8 2 -0.6384 0.2941
7 -8 3 -1.9758 -0.0722
7 -8 4 -0.8823 -0.0538
7 -8 5 1.0163 0.1741
7 -8 6 1.9334 0.0209
7 -8 7 0.4048 -0.1002
7 -8 8 0.2511 0.0593
7 -8 9 1.0835 0.0429
7 -8 10 1.4884 -0.0758
7 -8 11 0.6758 0.0149
7 -8 12 0.7928 0.0835
7 -8 13 2.7657 -0.0082
7 -8 14 1.5633 -0.0479
7 -8 15 0.4573 -0.0050
7 -8 16 2.2305 0.0209
7 -8 17 1.7009 0.0222
7 -8 18 1.7245 -0.0271
7 -8 19 5.0795 -0.0310
7 -8 20 4.2920 0.0298
7 -8 21 -0.2408 -0.0240
7 -8 22 0.8902 -0.0278
7 -8 23 1.8127 0.0272
7 -8 24 -4.2929 -0.0929
7 -8 25 -4.2156 -0.0425
7 -8 26 2.7732 0.1590
7 -7 0 1.8866 -0.7013
7 -7 1 -1.4980 0.2546
7 -7 2 -1.7179 0.5534
7 -7 3 3.7018 -0.0027
7 -7 4 1.7668 -0.1415
7 -7 5 -4.3249 0.0741
7 -7 6 -1.8233 0.0382
7 -7 7 4.6645 -0.0138
7 -7 8 3.0071 0.0447
7 -7 9 -1.0898 0.0342
7 -7 10 2.0172 0.0036
7 -7 11 3.0606 0.0190
7 -7 12 -0.7561 0.0218
7 -7 13 -0.6783 0.0001
7 -7 14 1.1352 0.0120
7 -7 15 1.2029 0.0183
7 -7 16 1.6050 0.0034
7 -7 17 0.9383 0.0255
7 -7 18 1.4626 -0.0021
7 -7 19 6.5482 -0.0337
7 -7 20 6.4328 0.0107
7 -7 21 0.4813 -0.0065
7 -7 22 1.3568 -0.0100
7 -7 23 1.9893 0.0155
7 -7 24 -3.2526 -0.0554
7 -7 25 -2.3681 -0.0270
7 -7 26 0.5770 0.0782
7 -6 0 4.1513 -0.5560
7 -6 1 1.6967 -0.0702
7 -6 2 -1.4522 0.1404
7 -6 3 0.5019 0.0263
7 -6 4 -0.7283 -0.0770
7 -6 5 -4.1565 -0.1191
7 -6 6 -0.6243 -0.0052
7 -6 7 4.8236 0.0949
7 -6 8 0.5183 -0.0032
7 -6 9 -2.8486 -0.0267
7 -6 10 3.5607 0.0382
7 -6 11 3.7739 -0.0034
7 -6 12 -3.2553 -0.0459
7 -6 13 -1.9038 -0.0077
7 -6 14 2.1420 0.0538
7 -6 15 -0.6968 0.0418
7 -6 16 -1.8782 -0.0197
7 -6 17 -0.0341 -0.0018
7 -6 18 1.9392 0.0171
7 -6 19 5.6481 -0.0181
7 -6 20 2.7622 -0.0186
7 -6 21 -1.1223 0.0001
7 -6 22 5.3473 0.0089
7 -6 23 6.4730 0.0105
7 -6 24 -1.8370 0.0171
7 -6 25 -4.1621 0.0146
7 -6 26 -2.2526 -0.0279
7 -6 27 -0.1986 -0.0423
7 -5 0 7.3069 0.2659
7 -5 1 -1.7926 -0.3762
7 -5 2 -4.3193 -0.4726
7 -5 3 1.7515 0.0447
7 -5 4 2.4316 0.1249
7 -5 5 -4.2619 -0.1542
7 -5 6 -4.1086 -0.0578
7 -5 7 3.2881 0.0829
7 -5 8 1.4039 -0.0322
7 -5 9 -3.7233 -0.0486
7 -5 10 1.0316 -0.0034
7 -5 11 3.4139 -0.0335
7 -5 12 -2.0089 -0.0373
7 -5 13 -1.8165 -0.0135
7 -5 14 0.4602 0.0226
7 -5 15 -2.5468 0.0273
7 -5 16 -2.7472 -0.0139
7 -5 17 -1.5541 -0.0180
7 -5 18 0.0796 0.0037
7 -5 19 3.4745 -0.0064
7 -5 20 0.4087 -0.0181
7 -5 21 -0.8764 0.0027
7 -5 22 4.4839 0.0033
7 -5 23 3.2958 -0.0051
7 -5 24 0.3821 0.0399
7 -5 25 0.9234 0.0198
7 -5 26 -2.3868 -0.0606
7 -5 27 -2.7506 -0.0068
7 -4 0 1.5225 0.6906
7 -4 1 0.2225 -0.3003
7 -4 2 0.9053 -0.4709
7 -4 3 2.6241 0.0993
7 -4 4 1.5271 0.1951
7 -4 5 -4.3733 -0.0265
7 -4 6 -4.7083 -0.0270
7 -4 7 2.5063 -0.0227
7 -4 8 1.9326 -0.0339
7 -4 9 -2.9399 0.0085
7 -4 10 0.8634 -0.0324
7 -4 11 2.9150 -0.0369
7 -4 12 -2.5691 0.0249
7 -4 13 -2.4309 0.0145
7 -4 14 -0.1918 -0.0317
7 -4 15 -2.0667 -0.0286
7 -4 16 -1.7800 0.0106
7 -4 17 -1.6761 0.0116
7 -4 18 -0.4152 -0.0115
7 -4 19 1.3939 -0.0110
7 -4 20 -2.0653 -0.0061
7 -4 21 -2.2947 0.0005
7 -4 22 1.3301 -0.0120
7 -4 23 2.1439 -0.0174
7 -4 24 3.4633 0.0363
7 -4 25 1.6550 0.0330
7 -4 26 -2.9420 -0.0446
7 -4 27 -0.7889 -0.0172
7 -3 0 4.5399 0.2837
7 -3 1 5.8388 0.1120
7 -3 2 0.8674 0.1231
7 -3 3 -1.8078 0.0844
7 -3 4 0.9071 0.0034
7 -3 5 -0.6612 0.0799
7 -3 6 -3.7939 0.0545
7 -3 7 0.4014 -0.0765
7 -3 8 3.7345 -0.0034
7 -3 9 0.3557 0.0614
7 -3 10 -1.1083 0.0030
7 -3 11 0.1247 0.0259
7 -3 12 0.0919 0.0448
7 -3 13 0.5169 -0.0057
7 -3 14 -1.3860 -0.0382
7 -3 15 -2.2395 -0.0080
7 -3 16 0.2322 0.0360
7 -3 17 -0.3706 0.0018
7 -3 18 -0.9299 -0.0298
7 -3 19 -1.1778 0.0101
7 -3 20 -2.4219 0.0237
7 -3 21 -0.3795 0.0001
7 -3 22 0.3843 -0.0032
7 -3 23 -0.6311 -0.0036
7 -3 24 1.7703 -0.0053
7 -3 25 2.8430 -0.0084
7 -3 26 0.6351 -0.0343
7 -3 27 -0.5636 -0.0162
7 -2 0 1.8060 -0.3554
7 -2 1 3.9626 0.4075
7 -2 2 -1.1665 0.4905
7 -2 3 -3.1604 -0.0733
7 -2 4 3.3169 -0.2089
7 -2 5 2.4996 0.0757
7 -2 6 -5.4075 0.0887
7 -2 7 -3.2149 -0.0262
7 -2 8 4.4958 0.0235
7 -2 9 3.0580 0.0417
7 -2 10 -1.1626 0.0470
7 -2 11 -0.4630 0.0526
7 -2 12 1.4912 -0.0161
7 -2 13 1.6788 -0.0206
7 -2 14 -0.6343 0.0198
7 -2 15 -1.0175 0.0211
7 -2 16 0.4528 0.0163
7 -2 17 -0.0441 0.0069
7 -2 18 -1.0167 0.0008
7 -2 19 -1.3419 0.0124
7 -2 20 -0.1532 0.0097
7 -2 21 -0.6497 -0.0056
7 -2 22 -3.2818 0.0137
7 -2 23 -0.9442 0.0127
7 -2 24 3.6984 -0.0312
7 -2 25 2.7815 -0.0321
7 -2 26 -0.1052 -0.0079
7 -2 27 0.4559 -0.0033
7 -1 0 0.4180 -0.4405
7 -1 1 7.0318 0.2319
7 -1 2 -0.0709 0.1655
7 -1 3 -6.0145 -0.2049
7 -1 4 -0.1089 -0.1528
7 -1 5 2.8285 0.0217
7 -1 6 -3.4611 0.0295
7 -1 7 -4.2706 0.0420
7 -1 8 2.6397 0.0206
7 -1 9 3.2985 -0.0414
7 -1 10 -1.2868 0.0050
7 -1 11 -1.5269 0.0096
7 -1 12 1.8127 -0.0388
7 -1 13 2.4144 0.0034
7 -1 14 -0.1199 0.0481
7 -1 15 -0.1967 0.0288
7 -1 16 1.5654 -0.0001
7 -1 17 1.1773 0.0034
7 -1 18 -1.3031 -0.0073
7 -1 19 -2.1829 -0.0228
7 -1 20 -1.6057 0.0024
7 -1 21 -2.6617 0.0178
7 -1 22 -1.2748 0.0133
7 -1 23 1.6599 -0.0057
7 -1 24 1.2152 -0.0170
7 -1 25 0.2842 0.0097
7 -1 26 0.6994 0.0151
7 -1 27 1.2871 -0.0365
7 0 0 4.0721 -0.0261
7 0 1 3.9983 -0.2386
7 0 2 -5.3399 -0.3751
7 0 3 -8.0077 -0.0722
7 0 4 1.3322 0.1322
7 0 5 4.7157 -0.0356
7 0 6 -3.7003 -0.0907
7 0 7 -6.0361 0.0320
7 0 8 1.2961 -0.0074
7 0 9 2.0630 -0.0755
7 0 10 -2.3473 -0.0383
7 0 11 -1.1491 -0.0267
7 0 12 1.6682 0.0048
7 0 13 0.7995 0.0342
7 0 14 0.0563 0.0217
7 0 15 1.2040 -0.0089
7 0 16 2.0389 -0.0394
7 0 17 0.5183 -0.0019
7 0 18 -2.7942 0.0100
7 0 19 -2.1971 -0.0287
7 0 20 0.1892 -0.0136
7 0 21 -0.4101 0.0140
7 0 22 -1.8731 0.0073
7 0 23 -3.2296 0.0034
7 0 24 -0.1789 0.0112
7 0 25 3.7388 -0.0141
7 0 26 0.2759 -0.0221
7 0 27 -2.1083 0.0111
7 1 0 2.0029 0.2615
7 1 1 4.3163 -0.4140
7 1 2 -2.3043 -0.3466
7 1 3 -5.5905 0.2011
7 1 4 -0.5907 0.2131
7 1 5 1.5631 -0.1028
7 1 6 -3.3718 -0.1189
7 1 7 -4.0910 -0.0011
7 1 8 0.9082 -0.0028
7 1 9 0.2597 -0.0054
7 1 10 -2.3393 -0.0321
7 1 11 0.2412 -0.0225
7 1 12 1.2966 0.0546
7 1 13 -1.2303 0.0050
7 1 14 -1.7207 -0.0377
7 1 15 0.2673 -0.0100
7 1 16 1.8855 -0.0270
7 1 17 -0.0569 -0.0039
7 1 18 -1.0781 0.0307
7 1 19 2.1334 0.0014
7 1 20 0.0217 -0.0322
7 1 21 -3.9764 -0.0168
7 1 22 -2.5357 0.0062
7 1 23 -1.1389 0.0034
7 1 24 1.0940 -0.0094
7 1 25 1.8850 -0.0287
7 1 26 -1.1689 0.0202
7 1 27 -0.5615 0.0773
7 2 0 7.1198 0.1831
7 2 1 5.3948 -0.0133
7 2 2 -3.3133 0.1551
7 2 3 -3.9824 0.1835
7 2 4 1.5854 -0.0229
7 2 5 1.0205 -0.0611
7 2 6 -4.9172 -0.0011
7 2 7 -2.7599 -0.0215
7 2 8 3.7290 0.0201
7 2 9 0.3969 0.0860
7 2 10 -3.6291 0.0004
7 2 11 0.0625 -0.0167
7 2 12 1.3173 0.0291
7 2 13 -1.2302 -0.0422
7 2 14 -2.1511 -0.0269
7 2 15 -1.0693 0.0462
7 2 16 0.5786 0.0208
7 2 17 0.3484 -0.0121
7 2 18 1.8830 0.0016
7 2 19 1.8195 0.0127
7 2 20 -3.9704 -0.0132
7 2 21 -2.1747 -0.0316
7 2 22 2.9973 -0.0315
7 2 23 -0.4859 0.0122
7 2 24 -2.0838 0.0552
7 2 25 0.9130 -0.0095
7 2 26 1.9421 -0.0392
7 3 0 4.3790 -0.0569
7 3 1 4.2634 0.3538
7 3 2 1.7039 0.4075
7 3 3 0.6088 -0.0894
7 3 4 -0.4601 -0.2353
7 3 5 -1.4469 0.0738
7 3 6 -1.6869 0.1544
7 3 7 1.5735 -0.0060
7 3 8 2.7448 -0.0137
7 3 9 -2.1429 0.0553
7 3 10 -2.0197 0.0125
7 3 11 1.5450 -0.0068
7 3 12 0.0485 -0.0084
7 3 13 -1.1402 -0.0152
7 3 14 -0.6662 0.0209
7 3 15 0.5027 0.0298
7 3 16 0.5812 0.0287
7 3 17 -3.3836 0.0049
7 3 18 -1.8971 -0.0199
7 3 19 3.0937 -0.0035
7 3 20 2.2147 -0.0108
7 3 21 0.6711 -0.0217
7 3 22 -1.3879 0.0052
7 3 23 -2.4309 0.0564
7 3 24 1.4994 0.0250
7 3 25 2.8024 -0.0696
7 3 26 0.3543 -0.0219
7 4 0 4.1668 -0.2196
7 4 1 1.9972 0.1661
7 4 2 1.1944 0.1063
7 4 3 1.5675 -0.1871
7 4 4 0.8513 -0.0785
7 4 5 0.2497 0.1251
7 4 6 -1.2214 0.1098
7 4 7 0.6144 0.0063
7 4 8 2.2744 -0.0600
7 4 9 0.0505 -0.0348
7 4 10 0.2228 0.0408
7 4 11 -0.8174 0.0174
7 4 12 -2.2441 -0.0506
7 4 13 1.5685 0.0277
7 4 14 2.3889 0.0512
7 4 15 -0.4773 -0.0300
7 4 16 -3.4704 0.0102
7 4 17 -4.3710 0.0249
7 4 18 2.5513 -0.0379
7 4 19 6.1585 -0.0294
7 4 20 0.1431 0.0289
7 4 21 -3.2829 0.0496
7 4 22 -1.2249 0.0056
7 4 23 1.7393 -0.0289
7 4 24 2.3406 -0.0336
7 4 25 0.1017 0.0026
7 4 26 -1.0814 0.0678
7 5 0 -0.4819 -0.0867
7 5 1 -2.2522 -0.2631
7 5 2 5.0321 -0.3196
7 5 3 3.9703 0.0254
7 5 4 -3.2150 0.2084
7 5 5 -1.9626 -0.0249
7 5 6 2.7150 -0.0740
7 5 7 3.0998 0.0389
7 5 8 -1.5498 -0.0347
7 5 9 -1.9885 -0.0754
7 5 10 3.2656 0.0351
7 5 11 0.5095 0.0197
7 5 12 -3.3978 -0.0306
7 5 13 -0.0869 0.0591
7 5 14 0.3170 0.0193
7 5 15 -0.4335 -0.0684
7 5 16 0.6199 -0.0081
7 5 17 0.6451 0.0091
7 5 18 0.3570 0.0006
7 5 19 -1.3690 0.0351
7 5 20 -0.5195 0.0232
7 5 21 2.7220 -0.0240
7 5 22 1.3780 -0.0196
7 5 23 -1.5675 0.0052
7 5 24 0.4079 -0.0351
7 5 25 2.8866 -0.0108
7 6 0 -2.7371 0.1984
7 6 1 -1.7084 -0.2707
7 6 2 6.4105 -0.3463
7 6 3 2.8665 0.1816
7 6 4 -2.5384 0.2290
7 6 5 1.0453 -0.1690
7 6 6 3.0921 -0.1662
7 6 7 -1.0921 0.0534
7 6 8 -4.4193 0.0401
7 6 9 1.2855 -0.0525
7 6 10 5.2140 -0.0155
7 6 11 -2.7282 0.0361
7 6 12 -4.8681 0.0281
7 6 13 1.3063 -0.0112
7 6 14 1.8956 -0.0447
7 6 15 0.3794 0.0125
7 6 16 -0.0587 0.0233
7 6 17 -0.6327 -0.0281
7 6 18 -1.1962 0.0248
7 6 19 -1.2697 0.0452
7 6 20 1.4968 -0.0337
7 6 21 3.5504 -0.0488
7 6 22 1.2071 0.0257
7 6 23 -1.2452 0.0238
7 6 24 0.8852 -0.0602
7 6 25 1.4661 -0.0131
7 7 0 -2.0585 0.3284
7 7 1 -1.9491 0.1661
7 7 2 5.8243 0.0032
7 7 3 4.1875 0.0279
7 7 4 -0.4355 -0.0437
7 7 5 1.7002 -0.0623
7 7 6 3.4677 -0.0272
7 7 7 -1.6989 -0.0299
7 7 8 -5.2126 0.0325
7 7 9 1.0316 0.0355
7 7 10 2.6947 -0.0366
7 7 11 -3.0893 -0.0088
7 7 12 -0.6624 0.0233
7 7 13 2.5512 -0.0499
7 7 14 -0.7542 -0.0229
7 7 15 -1.7911 0.0866
7 7 16 -0.2205 0.0183
7 7 17 0.5933 -0.0562
7 7 18 -0.6421 -0.0003
7 7 19 -1.3125 0.0131
7 7 20 1.8387 -0.0104
7 7 21 4.6081 -0.0121
7 7 22 1.0663 0.0133
7 7 23 -3.9165 0.0151
7 7 24 -0.8300 -0.0419
7 8 0 -5.5433 0.0597
7 8 1 -2.1306 0.4237
7 8 2 6.2350 0.3186
7 8 3 5.1347 -0.1830
7 8 4 0.1274 -0.2278
7 8 5 1.5047 0.1530
7 8 6 3.6335 0.1109
7 8 7 -1.6434 -0.0983
7 8 8 -4.0766 0.0265
7 8 9 1.4130 0.0641
7 8 10 0.2052 -0.0812
7 8 11 -3.3700 -0.0436
7 8 12 0.7581 0.0368
7 8 13 1.3605 -0.0133
7 8 14 -1.7522 0.0102
7 8 15 -0.9574 0.0355
7 8 16 0.6205 -0.0338
7 8 17 -0.2710 -0.0061
7 8 18 -1.9252 0.0197
7 8 19 -0.1991 -0.0293
7 8 20 3.0532 -0.0161
7 8 21 2.8641 0.0013
7 8 22 -1.4701 0.0118
7 8 23 -2.7315 0.0174
7 9 0 -1.9256 -0.3199
7 9 1 1.0513 0.1307
7 9 2 2.9798 0.2600
7 9 3 0.6571 -0.1281
7 9 4 -1.3214 -0.1243
7 9 5 2.9316 0.1825
7 9 6 3.8658 0.1301
7 9 7 -3.5000 -0.0474
7 9 8 -3.1434 -0.0321
7 9 9 3.6128 0.0093
7 9 10 -0.4623 -0.0052
7 9 11 -4.8839 -0.0157
7 9 12 -0.2917 -0.0111
7 9 13 1.0845 0.0277
7 9 14 -1.0252 0.0419
7 9 15 -0.0864 -0.0398
7 9 16 0.2711 -0.0300
7 9 17 -3.6718 0.0545
7 9 18 -4.0199 -0.0317
7 9 19 2.2437 -0.0670
7 9 20 4.0933 0.0488
7 9 21 0.7311 0.0281
7 9 22 -1.1013 -0.0360
7 9 23 -0.0997 0.0035
7 10 0 -0.0546 -0.4162
7 10 1 -0.9871 -0.3354
7 10 2 1.0818 -0.0080
7 10 3 1.2102 0.1454
7 10 4 -1.6934 0.0831
7 10 5 -1.6151 -0.0540
7 10 6 -0.2570 0.0017
7 10 7 0.0702 0.0817
7 10 8 2.0253 -0.0251
7 10 9 0.9935 -0.0442
7 10 10 -3.7501 0.0411
7 10 11 -1.8961 0.0191
7 10 12 2.5688 0.0011
7 10 13 -0.2428 0.0443
7 10 14 -4.1133 0.0048
7 10 15 -1.5483 -0.0513
7 10 16 0.8937 0.0085
7 10 17 -3.0362 0.0185
7 10 18 -3.2387 -0.0439
7 10 19 1.8116 0.0371
7 10 20 1.5589 0.0839
7 10 21 -0.8616 -0.0510
7 10 22 -0.4782 -0.0744
7 11 0 -0.2759 0.0086
7 11 1 0.1038 -0.3541
7 11 2 1.2004 -0.2277
7 11 3 -0.4359 0.2365
7 11 4 -1.9314 0.1328
7 11 5 -0.2105 -0.2497
7 11 6 0.7477 -0.0839
7 11 7 -1.1581 0.1241
7 11 8 -1.2041 -0.0197
7 11 9 2.2468 -0.0239
7 11 10 2.7529 0.0733
7 11 11 -0.8836 0.0114
7 11 12 -2.6092 -0.0226
7 11 13 -1.5819 -0.0029
7 11 14 -0.9741 -0.0253
7 11 15 1.1022 0.0070
7 11 16 1.4022 0.0477
7 11 17 -3.5428 0.0010
7 11 18 -3.7147 -0.0026
7 11 19 0.5268 0.0557
7 11 20 0.2207 0.0264
7 11 21 -1.6676 -0.0445
7 12 0 1.5717 0.4890
7 12 1 1.4500 0.0271
7 12 2 -0.8047 -0.2296
7 12 3 -0.3509 0.0308
7 12 4 1.9132 0.0327
7 12 5 -1.0556 -0.1456
7 12 6 -3.2800 -0.0561
7 12 7 0.5296 0.0323
7 12 8 3.3667 0.0157
7 12 9 1.9632 0.0302
7 12 10 -1.0119 -0.0109
7 12 11 -1.6369 -0.0482
7 12 12 0.8772 -0.0132
7 12 13 1.9828 -0.0382
7 12 14 0.3866 -0.0214
7 12 15 -0.4354 0.0859
7 12 16 -1.3915 0.0301
7 12 17 -1.1352 -0.0595
7 12 18 1.3630 0.0275
7 12 19 -0.4182 0.0554
7 12 20 -2.8830 -0.0096
7 13 0 0.5661 0.4150
7 13 1 -0.2005 0.3337
7 13 2 -1.4929 -0.0423
7 13 3 -0.4398 -0.2253
7 13 4 -0.6931 -0.0332
7 13 5 -3.5490 0.1725
7 13 6 -0.4908 0.0269
7 13 7 2.6609 -0.1119
7 13 8 -0.0124 0.0115
7 13 9 -0.1019 0.0527
7 13 10 2.4743 -0.0539
7 13 11 1.1390 -0.0701
7 13 12 -2.2645 -0.0136
7 13 13 -1.2595 -0.0004
7 13 14 2.7495 0.0361
7 13 15 1.7852 0.0257
7 13 16 -1.9789 -0.0950
7 13 17 0.4870 -0.0321
7 13 18 2.6393 0.1205
7 14 0 0.0079 -0.1788
7 14 1 1.7262 0.2502
7 14 2 -2.2321 0.1877
7 14 3 -4.6878 -0.1951
7 14 4 -3.7108 -0.0142
7 14 5 -2.7510 0.2451
7 14 6 -0.1762 0.0235
7 14 7 1.2902 -0.0597
7 14 8 0.6070 0.0458
7 14 9 -1.1232 -0.0285
7 14 10 -1.4925 -0.0696
7 14 11 0.3805 0.0092
7 14 12 -0.7400 0.0532
7 14 13 -1.1593 0.0128
7 14 14 2.8939 -0.0267
7 14 15 1.7085 -0.0359
7 14 16 -3.0398 -0.0481
7 14 17 -0.2397 0.0127
7 15 0 0.3248 -0.5587
7 15 1 -0.5728 -0.0399
7 15 2 -2.4029 0.2461
7 15 3 -1.9623 0.0007
7 15 4 -2.6494 -0.0298
7 15 5 -3.4682 0.0560
7 15 6 -2.0618 0.0270
7 15 7 -1.8909 0.0543
7 15 8 -2.5000 -0.0237
7 15 9 -2.5063 -0.0593
7 15 10 0.4535 0.0571
7 15 11 2.3251 0.0464
7 15 12 -1.9171 0.0093
7 15 13 -2.6716 0.0165
7 15 14 1.6425 -0.0218
7 15 15 0.8249 -0.0376
7 15 16 -1.3135 -0.0163
7 16 0 0.2677 -0.2823
7 16 1 1.2267 -0.2068
7 16 2 0.1132 0.0633
7 16 3 -2.4224 0.1312
7 16 4 -3.0395 -0.0287
7 16 5 -1.4543 -0.1837
7 16 6 -3.0683 -0.0625
7 16 7 -4.8249 0.0979
7 16 8 -1.5395 0.0200
7 16 9 0.4262 0.0202
7 16 10 -0.3178 0.0360
7 16 11 -1.7285 -0.0419
7 16 12 -2.3921 0.0135
7 16 13 0.1148 0.0242
7 16 14 1.8161 -0.0430
7 17 0 1.3028 0.3230
7 17 1 -0.4239 -0.1592
7 17 2 -1.6661 -0.1542
7 17 3 -1.3595 0.0743
7 17 4 -1.0209 -0.0637
7 17 5 -0.2096 -0.1712
7 17 6 -0.4351 0.0158
7 17 7 -1.6775 0.0340
7 17 8 -2.9684 -0.0531
7 17 9 -2.4411 0.0451
7 17 10 -0.2755 -0.0049
7 17 11 -1.2654 -0.0868
7 17 12 -0.9283 0.0104
7 18 0 0.2258 0.4767
7 18 1 -0.7737 -0.0034
7 18 2 -0.5974 -0.1461
7 18 3 -0.6712 -0.0291
7 18 4 0.4309 0.0213
7 18 5 1.9369 0.0749
7 18 6 0.0344 0.0103
7 18 7 -2.6023 -0.1692
7 18 8 -2.7528 -0.0636
7 18 9 -0.0723 0.0767
7 19 0 1.9915 0.1796
7 19 1 1.3739 0.1020
7 19 2 -0.4510 0.0384
7 19 3 0.6237 0.0500
7 19 4 1.6965 0.0934
7 19 5 -1.3030 0.0648
7 19 6 -2.4232 -0.0561
7 20 0 0.9805 -0.1446
7 20 1 1.0020 0.2221
8 -22 0 -1.4664 -0.1302
8 -22 1 -0.4334 0.0591
8 -22 2 -0.0942 0.0440
8 -22 3 -1.8164 -0.0298
8 -22 4 0.8076 -0.0119
8 -22 5 0.4450 0.0050
8 -21 0 -0.8661 0.0203
8 -21 1 3.4658 0.0051
8 -21 2 0.0340 -0.0824
8 -21 3 -3.6613 -0.0021
8 -21 4 0.3189 0.0457
8 -21 5 0.3274 -0.0520
8 -21 6 -2.1836 -0.0104
8 -21 7 0.4674 0.0788
8 -21 8 -0.2594 -0.0376
8 -21 9 -3.4068 0.0083
8 -20 0 -2.0903 0.2220
8 -20 1 1.0910 -0.0275
8 -20 2 -0.8250 -0.1090
8 -20 3 -2.7135 -0.0067
8 -20 4 2.3740 -0.0100
8 -20 5 1.5001 -0.0682
8 -20 6 -3.8898 0.0201
8 -20 7 -1.4006 0.0656
8 -20 8 1.6069 -0.0321
8 -20 9 -1.1053 -0.0241
8 -20 10 -2.4248 0.0045
8 -20 11 -0.9803 0.0264
8 -19 0 -3.3292 0.2075
8 -19 1 0.7294 0.0181
8 -19 2 2.0078 -0.0271
8 -19 3 0.4538 -0.0484
8 -19 4 0.3380 0.0004
8 -19 5 -2.6920 0.0898
8 -19 6 -4.0406 0.0443
8 -19 7 1.1125 -0.0847
8 -19 8 2.8760 -0.0449
8 -19 9 0.0234 0.0395
8 -19 10 0.3185 -0.0183
8 -19 11 -0.2463 0.0334
8 -19 12 -3.1414 0.0049
8 -19 13 -2.4222 -0.1570
8 -19 14 -0.1904 0.0257
8 -18 0 -2.0566 -0.1896
8 -18 1 4.2300 0.1091
8 -18 2 6.4120 0.2755
8 -18 3 -1.1423 -0.0034
8 -18 4 -5.4522 -0.0961
8 -18 5 -3.1432 0.1000
8 -18 6 -0.7873 0.0844
8 -18 7 2.7174 -0.0903
8 -18 8 4.2446 -0.0045
8 -18 9 -0.3234 0.0727
8 -18 10 -3.1460 -0.0515
8 -18 11 0.0814 -0.0023
8 -18 12 3.3661 0.0251
8 -18 13 0.6023 -0.0672
8 -18 14 -4.2043 0.0346
8 -18 15 -2.2336 0.0380
8 -18 16 2.0510 -0.0524
8 -17 0 -0.2224 -0.4262
8 -17 1 2.5254 0.0577
8 -17 2 3.7984 0.2792
8 -17 3 -0.4591 0.0410
8 -17 4 -1.7876 -0.0955
8 -17 5 -0.2591 0.0138
8 -17 6 -0.9493 0.0789
8 -17 7 0.3821 -0.0037
8 -17 8 0.6182 -0.0128
8 -17 9 -1.2532 0.0159
8 -17 10 2.3260 0.0074
8 -17 11 5.1508 0.0392
8 -17 12 0.3847 -0.0118
8 -17 13 -4.7413 -0.0380
8 -17 14 -2.4173 0.0545
8 -17 15 3.4596 -0.0164
8 -17 16 3.3545 -0.0414
8 -17 17 -0.0802 0.1829
8 -16 0 -1.8622 -0.1937
8 -16 1 2.2456 -0.1665
8 -16 2 6.2217 -0.0658
8 -16 3 0.8702 0.1091
8 -16 4 -2.8967 0.0233
8 -16 5 -1.3409 -0.1415
8 -16 6 -1.9044 -0.0107
8 -16 7 0.5846 0.0950
8 -16 8 4.4950 -0.0057
8 -16 9 2.4972 -0.0419
8 -16 10 -1.8540 0.0327
8 -16 11 -2.0301 0.0265
8 -16 12 2.2651 -0.0450
8 -16 13 2.1900 0.0094
8 -16 14 -1.6716 0.0805
8 -16 15 -0.7299 -0.0671
8 -16 16 2.5663 -0.1063
8 -16 17 3.5460 0.1806
8 -16 18 1.1944 0.1621
8 -16 19 -1.3007 -0.1625
8 -15 0 -0.0889 0.3541
8 -15 1 0.1295 -0.2549
8 -15 2 1.3585 -0.4426
8 -15 3 -1.1973 0.0459
8 -15 4 0.1984 0.1614
8 -15 5 0.8457 -0.1159
8 -15 6 -1.9822 -0.0828
8 -15 7 1.0787 0.0772
8 -15 8 2.5995 0.0112
8 -15 9 -0.7238 -0.0740
8 -15 10 -0.1273 -0.0287
8 -15 11 2.6226 0.0293
8 -15 12 0.8788 0.0241
8 -15 13 -3.7036 -0.0035
8 -15 14 -1.6552 0.0096
8 -15 15 3.4298 -0.0565
8 -15 16 3.1841 -0.0976
8 -15 17 1.6569 0.1178
8 -15 18 0.2787 0.1179
8 -15 19 -0.7397 -0.1845
8 -15 20 -1.4873 -0.0721
8 -14 0 -1.1006 0.5015
8 -14 1 -0.0642 -0.0535
8 -14 2 1.9585 -0.3223
8 -14 3 -0.6817 -0.0545
8 -14 4 0.3546 0.1346
8 -14 5 0.8384 0.0550
8 -14 6 -1.5911 -0.0455
8 -14 7 -0.2954 -0.0473
8 -14 8 1.4892 -0.0192
8 -14 9 1.7582 -0.0197
8 -14 10 -0.4893 -0.0167
8 -14 11 -2.0827 0.0410
8 -14 12 0.0679 0.0358
8 -14 13 0.6430 -0.0658
8 -14 14 0.2338 -0.0159
8 -14 15 -0.4760 0.0354
8 -14 16 -0.3206 -0.0743
8 -14 17 1.9522 -0.0187
8 -14 18 2.4896 0.0414
8 -14 19 1.6777 -0.1185
8 -14 20 -2.2368 -0.0444
8 -14 21 -4.8315 0.1534
8 -13 0 -3.0494 0.0506
8 -13 1 0.5789 0.3310
8 -13 2 3.1654 0.2346
8 -13 3 0.9016 -0.1299
8 -13 4 2.0980 -0.0793
8 -13 5 0.0029 0.1658
8 -13 6 -3.0577 0.0461
8 -13 7 0.3678 -0.1065
8 -13 8 3.2728 -0.0047
8 -13 9 0.5751 0.0492
8 -13 10 -3.1425 -0.0172
8 -13 11 -0.0454 0.0315
8 -13 12 1.1054 0.0609
8 -13 13 -4.1185 -0.0690
8 -13 14 -1.8737 -0.0535
8 -13 15 3.3038 0.0569
8 -13 16 2.5916 -0.0095
8 -13 17 0.3399 -0.0500
8 -13 18 0.2374 -0.0017
8 -13 19 0.3580 -0.0656
8 -13 20 -3.8053 -0.0256
8 -13 21 -4.2426 0.1139
8 -13 22 1.1269 -0.1034
8 -12 0 -2.8323 -0.4313
8 -12 1 1.2150 0.4263
8 -12 2 2.6941 0.5029
8 -12 3 0.1570 -0.1522
8 -12 4 -0.0119 -0.2095
8 -12 5 0.4142 0.1461
8 -12 6 1.2415 0.1015
8 -12 7 1.0277 -0.0632
8 -12 8 1.8519 -0.0002
8 -12 9 1.9306 0.0591
8 -12 10 -2.3464 0.0014
8 -12 11 -2.0836 0.0017
8 -12 12 -0.6402 0.0346
8 -12 13 -1.7639 -0.0262
8 -12 14 0.0892 -0.0462
8 -12 15 0.6004 0.0474
8 -12 16 0.4726 0.0476
8 -12 17 1.1140 -0.0619
8 -12 18 0.6694 -0.0560
8 -12 19 -0.8644 -0.0067
8 -12 20 -3.4842 0.0405
8 -12 21 -1.4604 0.0882
8 -12 22 1.2644 -0.1130
8 -11 0 -5.5421 -0.4655
8 -11 1 -3.0581 0.0081
8 -11 2 1.6829 0.1898
8 -11 3 2.2518 -0.0317
8 -11 4 -0.2583 -0.1046
8 -11 5 -1.1382 0.0049
8 -11 6 -0.4282 0.0584
8 -11 7 0.2969 0.0139
8 -11 8 6.0003 -0.0258
8 -11 9 5.5242 0.0157
8 -11 10 -3.3472 0.0211
8 -11 11 -2.8709 -0.0393
8 -11 12 0.3525 -0.0102
8 -11 13 -0.6946 0.0480
8 -11 14 -0.1561 -0.0106
8 -11 15 0.4311 -0.0264
8 -11 16 0.4582 0.0173
8 -11 17 -0.5879 -0.0250
8 -11 18 -0.2730 -0.0241
8 -11 19 0.3503 0.0039
8 -11 20 -1.0339 0.0327
8 -11 21 -0.2751 0.0797
8 -11 22 -1.5235 -0.0580
8 -11 23 -2.9335 -0.1234
8 -10 0 -2.1863 -0.0174
8 -10 1 -0.9290 -0.5124
8 -10 2 0.2619 -0.3246
8 -10 3 -1.0646 0.1766
8 -10 4 -4.0057 0.1239
8 -10 5 -0.6341 -0.1549
8 -10 6 3.0776 -0.0570
8 -10 7 1.0581 0.0661
8 -10 8 3.0778 -0.0284
8 -10 9 2.8835 -0.0346
8 -10 10 -0.9745 0.0199
8 -10 11 0.9895 -0.0466
8 -10 12 2.3230 -0.0443
8 -10 13 1.3541 0.0609
8 -10 14 -0.0583 0.0214
8 -10 15 -1.4193 -0.0542
8 -10 16 -0.1732 -0.0272
8 -10 17 1.2290 -0.0071
8 -10 18 2.6315 0.0032
8 -10 19 0.1483 0.0040
8 -10 20 -4.1278 0.0238
8 -10 21 -1.8711 0.0246
8 -10 22 0.3226 -0.0611
8 -10 23 -0.4373 -0.0349
8 -10 24 0.1434 0.1090
8 -9 0 -0.5715 0.3890
8 -9 1 -1.6634 -0.5090
8 -9 2 -1.0405 -0.3905
8 -9 3 -0.0799 0.2730
8 -9 4 -1.7346 0.1799
8 -9 5 0.1890 -0.2000
8 -9 6 0.0944 -0.0992
8 -9 7 -2.3240 0.0719
8 -9 8 2.6285 -0.0109
8 -9 9 4.5232 -0.0641
8 -9 10 0.8440 0.0100
8 -9 11 0.5053 0.0222
8 -9 12 1.8503 -0.0304
8 -9 13 2.7101 -0.0245
8 -9 14 1.9006 0.0099
8 -9 15 1.6690 0.0053
8 -9 16 0.8516 -0.0317
8 -9 17 -1.1586 -0.0197
8 -9 18 1.7886 0.0261
8 -9 19 3.1957 0.0112
8 -9 20 -0.1819 -0.0284
8 -9 21 -1.0835 -0.0522
8 -9 22 -1.7220 -0.0088
8 -9 23 -3.2420 0.0557
8 -9 24 -1.4690 0.0469
8 -8 0 1.3731 0.4098
8 -8 1 0.7466 0.1391
8 -8 2 -0.6965 -0.0086
8 -8 3 -0.5446 0.0209
8 -8 4 -1.5053 0.0197
8 -8 5 0.3443 -0.0037
8 -8 6 -0.0977 -0.0367
8 -8 7 -1.7554 -0.0254
8 -8 8 1.7622 0.0310
8 -8 9 2.7811 0.0103
8 -8 10 0.6881 -0.0184
8 -8 11 0.7248 0.0286
8 -8 12 2.2061 0.0146
8 -8 13 2.2241 -0.0547
8 -8 14 0.2950 -0.0173
8 -8 15 0.9548 0.0395
8 -8 16 1.1747 0.0060
8 -8 17 0.7357 -0.0097
8 -8 18 5.7883 -0.0106
8 -8 19 7.1369 -0.0024
8 -8 20 -0.6292 0.0127
8 -8 21 -4.6154 -0.0454
8 -8 22 -0.3944 -0.0464
8 -8 23 0.7765 0.0055
8 -8 24 -2.5332 0.0143
8 -8 25 -0.9501 0.0651
8 -7 0 3.0724 0.0338
8 -7 1 0.3177 0.6486
8 -7 2 -1.6470 0.3166
8 -7 3 -0.4029 -0.3063
8 -7 4 -0.8696 -0.1487
8 -7 5 -0.4907 0.2172
8 -7 6 -0.3624 0.0690
8 -7 7 0.2207 -0.1050
8 -7 8 1.7825 0.0244
8 -7 9 1.1754 0.0781
8 -7 10 0.8936 -0.0177
8 -7 11 0.8284 -0.0105
8 -7 12 -0.4226 0.0263
8 -7 13 -1.3821 -0.0188
8 -7 14 -0.7983 -0.0078
8 -7 15 1.8533 0.0285
8 -7 16 1.8519 0.0139
8 -7 17 0.2374 0.0034
8 -7 18 4.4265 -0.0260
8 -7 19 7.4223 -0.0061
8 -7 20 0.9225 0.0327
8 -7 21 -2.9241 -0.0341
8 -7 22 2.2061 -0.0554
8 -7 23 1.6828 0.0036
8 -7 24 -3.1606 0.0200
8 -7 25 -0.2593 -0.0047
8 -6 0 5.7631 -0.3661
8 -6 1 -1.5600 0.3906
8 -6 2 -3.8901 0.2248
8 -6 3 0.0932 -0.2976
8 -6 4 0.9179 -0.1181
8 -6 5 -0.2584 0.1989
8 -6 6 -0.6199 0.0925
8 -6 7 -0.0036 -0.0680
8 -6 8 -0.0383 -0.0160
8 -6 9 0.6269 0.0574
8 -6 10 2.6352 -0.0010
8 -6 11 0.5743 -0.0442
8 -6 12 -2.4482 0.0109
8 -6 13 -1.5167 0.0487
8 -6 14 -1.2660 0.0230
8 -6 15 -1.0273 -0.0317
8 -6 16 0.2814 -0.0199
8 -6 17 -0.2428 0.0351
8 -6 18 2.7988 -0.0014
8 -6 19 6.0047 -0.0258
8 -6 20 -0.4298 0.0214
8 -6 21 -2.4474 0.0077
8 -6 22 6.5947 -0.0344
8 -6 23 5.0481 0.0057
8 -6 24 -4.7162 0.0351
8 -6 25 -3.6627 -0.0750
8 -5 0 3.5254 -0.3720
8 -5 1 -2.2425 -0.3224
8 -5 2 -0.6129 -0.1100
8 -5 3 2.9705 0.0999
8 -5 4 0.6458 0.0731
8 -5 5 -3.8399 -0.0905
8 -5 6 -2.4393 -0.0106
8 -5 7 3.0918 0.0832
8 -5 8 1.8922 -0.0196
8 -5 9 -2.0861 -0.0536
8 -5 10 0.3390 0.0033
8 -5 11 1.8690 0.0048
8 -5 12 0.0512 -0.0045
8 -5 13 -1.3754 0.0248
8 -5 14 -4.4155 0.0323
8 -5 15 -2.7950 -0.0152
8 -5 16 2.2148 -0.0307
8 -5 17 0.2969 0.0085
8 -5 18 -0.3557 0.0174
8 -5 19 2.4808 -0.0046
8 -5 20 -0.5465 -0.0005
8 -5 21 0.0414 0.0122
8 -5 22 5.9174 -0.0051
8 -5 23 2.2155 0.0218
8 -5 24 -3.3618 0.0444
8 -5 25 -0.6021 -0.0669
8 -5 26 0.5843 -0.0889
8 -4 0 3.4860 0.0149
8 -4 1 0.7314 -0.5642
8 -4 2 0.9733 -0.2378
8 -4 3 2.1620 0.3689
8 -4 4 -0.3763 0.1516
8 -4 5 -4.0579 -0.2697
8 -4 6 -0.9613 -0.0945
8 -4 7 3.8040 0.1202
8 -4 8 -0.0821 0.0039
8 -4 9 -1.8748 -0.0737
8 -4 10 3.2292 0.0013
8 -4 11 0.9561 0.0418
8 -4 12 -3.3137 0.0066
8 -4 13 -1.8253 -0.0224
8 -4 14 -2.4103 -0.0117
8 -4 15 -0.1030 0.0126
8 -4 16 3.2407 0.0071
8 -4 17 -1.7323 -0.0076
8 -4 18 -3.1279 0.0110
8 -4 19 1.8878 0.0027
8 -4 20 1.0770 -0.0209
8 -4 21 -1.0047 0.0119
8 -4 22 2.4826 0.0317
8 -4 23 4.4054 0.0325
8 -4 24 1.3220 0.0374
8 -4 25 -2.4012 -0.0169
8 -4 26 -2.7482 -0.0567
8 -3 0 1.6746 0.3623
8 -3 1 1.5615 -0.0589
8 -3 2 2.5511 -0.0293
8 -3 3 1.1462 0.1536
8 -3 4 -1.6523 -0.0059
8 -3 5 -3.7570 -0.1259
8 -3 6 -0.9710 -0.0517
8 -3 7 3.4762 0.0186
8 -3 8 1.6989 0.0532
8 -3 9 -0.1048 0.0217
8 -3 10 0.3515 -0.0171
8 -3 11 -2.1018 0.0050
8 -3 12 -0.1046 0.0005
8 -3 13 1.9279 -0.0466
8 -3 14 -3.5132 -0.0251
8 -3 15 -2.7135 0.0507
8 -3 16 2.8601 0.0260
8 -3 17 0.5713 -0.0396
8 -3 18 -3.6322 -0.0036
8 -3 19 -2.4148 0.0168
8 -3 20 1.0699 -0.0114
8 -3 21 2.4259 0.0364
8 -3 22 2.4564 0.0488
8 -3 23 2.3700 -0.0519
8 -3 24 0.6236 -0.0535
8 -3 25 -1.5738 0.0732
8 -3 26 -1.1875 0.0771
8 -2 0 -0.4279 0.2903
8 -2 1 2.2345 0.4509
8 -2 2 1.2661 0.1492
8 -2 3 -1.0723 -0.2775
8 -2 4 -0.6790 -0.1501
8 -2 5 -1.2924 0.2141
8 -2 6 -1.4675 0.0906
8 -2 7 -0.1858 -0.1083
8 -2 8 -0.3313 0.0156
8 -2 9 1.8720 0.0825
8 -2 10 2.7112 -0.0031
8 -2 11 -1.0741 -0.0405
8 -2 12 -0.0877 -0.0151
8 -2 13 0.9321 -0.0005
8 -2 14 -3.0036 -0.0009
8 -2 15 -1.4595 0.0113
8 -2 16 3.3728 0.0114
8 -2 17 0.1737 0.0023
8 -2 18 -7.3935 0.0052
8 -2 19 -4.4719 -0.0040
8 -2 20 4.2612 -0.0120
8 -2 21 2.0985 0.0171
8 -2 22 -2.5477 0.0064
8 -2 23 1.0196 -0.0610
8 -2 24 2.8065 -0.0141
8 -2 25 -0.5562 0.0931
8 -2 26 -0.7909 0.0308
8 -1 0 -1.1030 -0.1707
8 -1 1 3.5572 0.2509
8 -1 2 1.6167 0.0926
8 -1 3 -2.8748 -0.2975
8 -1 4 -1.8465 -0.0479
8 -1 5 -0.0099 0.2859
8 -1 6 -1.6538 0.0836
8 -1 7 -3.1801 -0.1107
8 -1 8 -0.4304 -0.0358
8 -1 9 3.9295 0.0388
8 -1 10 1.3540 0.0318
8 -1 11 -2.5156 -0.0139
8 -1 12 1.1748 -0.0114
8 -1 13 3.2558 0.0323
8 -1 14 -0.1349 0.0242
8 -1 15 -1.4527 -0.0123
8 -1 16 1.5810 -0.0010
8 -1 17 1.2168 0.0121
8 -1 18 -5.4179 -0.0152
8 -1 19 -5.6304 -0.0094
8 -1 20 -0.4135 0.0121
8 -1 21 0.0302 0.0095
8 -1 22 0.3798 0.0001
8 -1 23 1.0909 -0.0158
8 -1 24 -1.4901 -0.0037
8 -1 25 -2.7455 -0.0042
8 -1 26 -0.2566 -0.0378
8 0 0 -0.2566 -0.4337
8 0 1 2.5374 -0.2529
8 0 2 -1.9614 -0.0586
8 0 3 -5.5363 0.0684
8 0 4 -0.2344 0.1005
8 0 5 3.6510 -0.0461
8 0 6 -0.8158 -0.0522
8 0 7 -5.5970 0.0541
8 0 8 -2.4389 -0.0334
8 0 9 2.7012 -0.0642
8 0 10 1.4361 0.0452
8 0 11 -0.3016 0.0493
8 0 12 1.0888 0.0127
8 0 13 1.8223 0.0278
8 0 14 0.8915 0.0083
8 0 15 -0.2120 -0.0410
8 0 16 2.8821 -0.0065
8 0 17 2.6840 0.0294
8 0 18 -4.8272 -0.0137
8 0 19 -4.9679 0.0039
8 0 20 1.4088 0.0495
8 0 21 2.3569 0.0005
8 0 22 -2.2053 -0.0556
8 0 23 -4.9254 0.0017
8 0 24 -1.5053 0.0564
8 0 25 0.5579 -0.0469
8 0 26 -1.2813 -0.0926
8 1 0 -0.2101 -0.0758
8 1 1 2.1633 -0.3509
8 1 2 -1.9850 -0.1464
8 1 3 -3.2381 0.2654
8 1 4 0.8985 0.0611
8 1 5 2.1250 -0.3175
8 1 6 -2.2480 -0.0755
8 1 7 -4.7814 0.1584
8 1 8 -0.1867 -0.0358
8 1 9 2.8925 -0.0874
8 1 10 0.7891 0.0302
8 1 11 0.0442 0.0462
8 1 12 -0.9017 0.0072
8 1 13 -1.1579 -0.0180
8 1 14 1.0554 -0.0105
8 1 15 2.2803 -0.0105
8 1 16 2.7637 -0.0086
8 1 17 0.6117 0.0116
8 1 18 -0.7231 0.0289
8 1 19 0.7919 0.0235
8 1 20 -0.0816 -0.0216
8 1 21 -0.4932 -0.0497
8 1 22 -1.2687 -0.0191
8 1 23 -1.9896 0.0504
8 1 24 1.2595 0.0370
8 1 25 0.6930 -0.0741
8 2 0 3.4717 0.4569
8 2 1 1.4618 0.0240
8 2 2 -1.8025 -0.1170
8 2 3 -0.9545 0.0894
8 2 4 -0.3023 -0.0278
8 2 5 -0.5537 -0.1867
8 2 6 -0.5398 -0.0216
8 2 7 0.1782 0.0541
8 2 8 1.5296 0.0136
8 2 9 -0.3243 0.0098
8 2 10 -1.1125 -0.0585
8 2 11 0.6891 -0.0427
8 2 12 -0.5090 0.0046
8 2 13 -0.2993 -0.0262
8 2 14 1.0710 0.0132
8 2 15 0.0107 0.0329
8 2 16 -0.4873 -0.0366
8 2 17 0.9142 -0.0233
8 2 18 2.6286 0.0406
8 2 19 -1.4501 -0.0196
8 2 20 -3.0193 -0.0724
8 2 21 4.8058 -0.0017
8 2 22 3.8537 0.0298
8 2 23 -3.6744 0.0174
8 2 24 -1.2556 -0.0104
8 2 25 2.8629 -0.0576
8 3 0 3.9785 0.4201
8 3 1 1.2547 0.3253
8 3 2 -0.6704 0.0372
8 3 3 -0.7484 -0.1598
8 3 4 -1.7105 -0.0564
8 3 5 1.0029 0.1651
8 3 6 2.8132 0.0762
8 3 7 0.5689 -0.1086
8 3 8 -1.1506 0.0273
8 3 9 -1.7543 0.0675
8 3 10 0.5565 -0.1080
8 3 11 2.0538 -0.0501
8 3 12 0.1009 0.0430
8 3 13 -0.5498 -0.0084
8 3 14 0.2122 0.0148
8 3 15 1.3669 0.0286
8 3 16 -1.6862 -0.0486
8 3 17 -4.5259 -0.0435
8 3 18 0.8928 0.0191
8 3 19 3.2506 -0.0150
8 3 20 1.4173 -0.0358
8 3 21 0.7206 0.0089
8 3 22 -3.0158 0.0362
8 3 23 -2.2777 0.0376
8 3 24 4.0288 -0.0587
8 3 25 4.2839 -0.0976
8 4 0 2.0908 -0.2321
8 4 1 -3.0872 0.1950
8 4 2 1.2864 0.1946
8 4 3 3.0590 -0.1485
8 4 4 -1.9100 0.0103
8 4 5 -0.5106 0.3048
8 4 6 1.9812 0.0589
8 4 7 0.4953 -0.1668
8 4 8 -0.2940 0.0239
8 4 9 0.3312 0.0638
8 4 10 0.4683 -0.0428
8 4 11 -2.1331 0.0261
8 4 12 -1.5309 0.0550
8 4 13 2.3543 -0.0000
8 4 14 2.9722 -0.0136
8 4 15 0.4963 -0.0113
8 4 16 -5.2145 0.0030
8 4 17 -3.1701 0.0087
8 4 18 6.4945 -0.0280
8 4 19 3.8074 -0.0177
8 4 20 -5.0453 0.0623
8 4 21 -4.7210 0.0319
8 4 22 1.1250 -0.0264
8 4 23 3.9230 0.0119
8 4 24 0.6792 -0.0161
8 5 0 -1.2257 -0.6562
8 5 1 -0.4108 -0.1458
8 5 2 7.4643 0.1945
8 5 3 0.4185 0.0598
8 5 4 -7.4277 0.0029
8 5 5 1.2583 0.0470
8 5 6 5.9289 -0.0110
8 5 7 -0.0124 -0.0305
8 5 8 -2.5093 -0.0018
8 5 9 0.6343 0.0058
8 5 10 -0.2446 0.0730
8 5 11 -4.2327 0.0635
8 5 12 -0.7325 -0.0108
8 5 13 2.2588 0.0098
8 5 14 0.7438 -0.0149
8 5 15 1.5291 -0.0356
8 5 16 -0.3992 0.0594
8 5 17 -1.8735 0.0542
8 5 18 0.2082 -0.0455
8 5 19 1.1060 0.0192
8 5 20 2.0024 0.0800
8 5 21 1.4394 -0.0706
8 5 22 -0.8683 -0.0527
8 5 23 -2.0020 0.1341
8 5 24 -0.5370 0.0693
8 6 0 -1.8000 -0.2364
8 6 1 -0.9573 -0.2600
8 6 2 8.1791 -0.0324
8 6 3 2.3531 0.1372
8 6 4 -3.5799 -0.0716
8 6 5 2.3284 -0.2459
8 6 6 2.4252 -0.0254
8 6 7 -3.2670 0.1358
8 6 8 -1.9249 -0.0319
8 6 9 3.1792 -0.0729
8 6 10 -0.3139 0.0811
8 6 11 -4.6527 0.0213
8 6 12 0.2657 -0.0707
8 6 13 1.2798 0.0176
8 6 14 -1.0731 0.0312
8 6 15 0.0835 -0.0092
8 6 16 -1.3601 0.0251
8 6 17 -2.0655 0.0222
8 6 18 1.0193 -0.0052
8 6 19 4.2137 0.0292
8 6 20 3.9261 -0.0199
8 6 21 0.8229 -0.1009
8 6 22 -0.8831 0.0495
8 6 23 -1.0993 0.1441
8 7 0 -5.6193 0.5566
8 7 1 0.6604 -0.1009
8 7 2 11.7931 -0.2966
8 7 3 4.0290 0.0255
8 7 4 -3.0506 -0.0232
8 7 5 1.8870 -0.1676
8 7 6 1.5283 0.0011
8 7 7 -3.9909 0.0770
8 7 8 -1.3343 -0.0598
8 7 9 3.8638 -0.0660
8 7 10 -0.8552 0.0110
8 7 11 -3.2537 -0.0339
8 7 12 0.9827 -0.0526
8 7 13 -1.0816 0.0205
8 7 14 -2.0880 0.0431
8 7 15 0.3255 -0.0038
8 7 16 -1.5989 -0.0323
8 7 17 -2.7108 -0.0148
8 7 18 0.4960 0.0055
8 7 19 3.9122 0.0152
8 7 20 4.0429 -0.0308
8 7 21 2.8597 -0.0601
8 7 22 -0.8526 0.0345
8 7 23 -4.2774 0.0396
8 8 0 -4.2163 0.6452
8 8 1 0.4777 0.1029
8 8 2 7.4101 -0.2058
8 8 3 3.8395 -0.0292
8 8 4 -0.2867 0.1126
8 8 5 0.9701 0.0815
8 8 6 0.2915 -0.0441
8 8 7 -1.7574 -0.0642
8 8 8 0.7366 0.0407
8 8 9 0.6722 -0.0006
8 8 10 -5.3842 -0.0927
8 8 11 -2.2765 -0.0123
8 8 12 4.5888 0.0333
8 8 13 1.7703 -0.0197
8 8 14 -2.4195 0.0041
8 8 15 -4.5830 0.0077
8 8 16 -4.4673 -0.0363
8 8 17 -0.0616 -0.0249
8 8 18 3.7070 -0.0056
8 8 19 2.4149 0.0155
8 8 20 0.0213 -0.0058
8 8 21 1.5598 -0.0421
8 8 22 0.3186 0.0060
8 9 0 -2.5356 -0.0211
8 9 1 -2.7387 0.2159
8 9 2 1.9111 0.1560
8 9 3 1.5731 -0.0451
8 9 4 -0.2219 0.0748
8 9 5 1.3902 0.2105
8 9 6 0.4410 -0.0149
8 9 7 -2.5614 -0.0931
8 9 8 -0.2590 0.0942
8 9 9 0.2783 0.0326
8 9 10 -2.9855 -0.0776
8 9 11 0.7894 0.0440
8 9 12 2.4906 0.0599
8 9 13 -3.2325 -0.0143
8 9 14 -4.2799 -0.0087
8 9 15 -0.4849 -0.0314
8 9 16 0.0607 0.0101
8 9 17 -2.9499 0.0395
8 9 18 -1.5369 -0.0626
8 9 19 2.0959 -0.0222
8 9 20 2.6616 0.0718
8 9 21 2.9933 0.0090
8 10 0 -0.1336 -0.6117
8 10 1 -2.3664 0.1224
8 10 2 -0.8875 0.3183
8 10 3 -0.6425 -0.0432
8 10 4 -2.1400 -0.0610
8 10 5 -2.1258 0.1096
8 10 6 -0.3503 0.0200
8 10 7 1.6203 -0.0344
8 10 8 3.0206 0.0505
8 10 9 0.6951 0.0237
8 10 10 -2.7541 0.0270
8 10 11 -2.6100 0.0760
8 10 12 -1.2567 -0.0002
8 10 13 1.0941 -0.0213
8 10 14 1.2250 0.0027
8 10 15 -2.2386 -0.0146
8 10 16 -4.7834 0.0625
8 10 17 -3.5846 0.0273
8 10 18 2.0858 -0.0901
8 10 19 3.3961 0.0423
8 10 20 -0.3571 0.0844
8 11 0 1.2301 -0.4143
8 11 1 -1.7002 -0.0706
8 11 2 -2.2977 0.1022
8 11 3 -2.1034 -0.0057
8 11 4 -1.2213 -0.1407
8 11 5 0.3220 -0.1084
8 11 6 1.2383 0.0293
8 11 7 -0.4562 0.0513
8 11 8 -0.5539 -0.0180
8 11 9 2.0891 0.0000
8 11 10 1.1884 0.0619
8 11 11 -1.8664 -0.0177
8 11 12 0.8145 -0.0830
8 11 13 2.9963 0.0331
8 11 14 -2.8699 0.0606
8 11 15 -3.0406 -0.0069
8 11 16 2.3249 0.0410
8 11 17 -0.1990 0.0089
8 11 18 -3.3784 -0.0614
8 11 19 -1.7302 0.0335
8 12 0 2.5747 0.2390
8 12 1 0.7263 -0.2218
8 12 2 -2.8666 -0.2175
8 12 3 -1.0372 0.0686
8 12 4 0.9084 -0.0406
8 12 5 -1.5634 -0.1468
8 12 6 -0.9640 0.0268
8 12 7 0.1846 0.0467
8 12 8 0.0769 -0.0726
8 12 9 3.0737 -0.0427
8 12 10 3.0022 0.0127
8 12 11 -2.1304 -0.0504
8 12 12 -0.9580 -0.0636
8 12 13 3.1980 0.0210
8 12 14 1.1147 0.0567
8 12 15 0.3707 0.0326
8 12 16 0.7873 -0.0074
8 12 17 -1.8255 -0.0484
8 12 18 -1.9334 -0.0108
8 13 0 1.3150 0.5040
8 13 1 -0.1548 -0.1765
8 13 2 -4.1399 -0.2448
8 13 3 -2.6640 0.1294
8 13 4 -1.8583 0.1377
8 13 5 -1.3967 -0.0110
8 13 6 2.8404 -0.0448
8 13 7 1.1466 -0.0276
8 13 8 -1.8194 0.0144
8 13 9 1.9965 0.0028
8 13 10 1.1136 -0.0723
8 13 11 -4.3399 -0.0649
8 13 12 -0.0118 0.0172
8 13 13 5.7330 0.0399
8 13 14 0.9835 0.0219
8 13 15 -2.5977 -0.0335
8 13 16 1.3143 -0.0645
8 13 17 3.3788 0.0471
8 14 0 3.3183 0.1679
8 14 1 1.1575 0.0650
8 14 2 -7.2761 0.0277
8 14 3 -6.4503 0.0417
8 14 4 -2.4790 0.0946
8 14 5 0.3428 0.1004
8 14 6 2.6777 0.0056
8 14 7 -0.0748 0.0139
8 14 8 -2.9216 0.0308
8 14 9 -1.4497 -0.0612
8 14 10 0.3496 -0.0412
8 14 11 -0.1916 0.1035
8 14 12 -1.3022 0.0730
8 14 13 -0.4810 -0.0831
8 14 14 1.5888 -0.0535
8 14 15 1.5824 0.0183
8 15 0 2.0312 -0.2595
8 15 1 -2.5459 0.2121
8 15 2 -4.6239 0.1850
8 15 3 -1.9318 -0.1317
8 15 4 -4.3297 -0.0060
8 15 5 -5.7795 0.1474
8 15 6 -1.9387 -0.0106
8 15 7 1.0169 -0.0628
8 15 8 0.8122 0.0204
8 15 9 -1.1404 0.0724
8 15 10 -1.3570 0.0755
8 15 11 -1.5032 0.0292
8 15 12 -2.4296 -0.0305
8 15 13 0.1214 -0.0324
8 16 0 0.1219 -0.3068
8 16 1 0.3557 0.1378
8 16 2 -0.7974 0.1422
8 16 3 -3.4643 -0.1278
8 16 4 -6.8423 -0.1275
8 16 5 -5.7627 -0.0830
8 16 6 -1.5806 -0.0255
8 16 7 2.4344 0.0983
8 16 8 0.9957 0.0709
8 16 9 -4.4309 -0.0106
8 16 10 -2.9353 -0.0429
8 16 11 1.5993 -0.0254
8 17 0 1.1126 0.0793
8 17 1 -1.0123 -0.0920
8 17 2 -1.5981 -0.1193
8 17 3 -1.1654 -0.0695
8 17 4 -2.4638 -0.0346
8 17 5 -3.6326 -0.0028
8 17 6 -2.8029 0.0473
8 17 7 -0.2449 -0.0431
8 17 8 -0.4952 -0.1134
8 17 9 -1.8684 0.0031
8 18 0 -1.0830 0.2266
8 18 1 -0.2990 -0.2684
8 18 2 0.5655 -0.1263
8 18 3 -0.4897 0.2369
8 18 4 -1.4670 0.1844
8 18 5 -1.9719 -0.0735
8 18 6 -1.8472 -0.1698
8 19 0 2.4024 0.2204
8 19 1 2.4158 -0.0256
8 19 2 -0.7764 0.0958
9 -22 0 1.5899 -0.3996
9 -22 1 0.4182 0.1051
9 -21 0 3.0246 -0.1513
9 -21 1 1.0007 -0.0258
9 -21 2 -3.9309 -0.0977
9 -21 3 0.0995 -0.0951
9 -21 4 2.2612 0.0968
9 -21 5 -0.7966 0.0294
9 -21 6 0.6172 0.0037
9 -20 0 1.2698 0.0351
9 -20 1 -0.2408 -0.2743
9 -20 2 -3.7694 -0.2619
9 -20 3 2.3109 0.1005
9 -20 4 3.8222 0.1537
9 -20 5 -3.1291 -0.1336
9 -20 6 -2.3860 -0.0458
9 -20 7 2.3998 0.0626
9 -20 8 1.5994 0.0017
9 -20 9 -0.6254 0.0740
9 -19 0 0.2583 0.2345
9 -19 1 0.0578 -0.1869
9 -19 2 -0.4491 -0.2428
9 -19 3 1.6661 0.1086
9 -19 4 -2.6434 0.1255
9 -19 5 -5.3312 -0.1010
9 -19 6 3.1167 -0.0492
9 -19 7 6.7561 0.0057
9 -19 8 0.0491 0.0385
9 -19 9 -2.6358 0.0510
9 -19 10 -0.6308 -0.0608
9 -19 11 -1.0375 -0.0384
9 -19 12 -1.6981 -0.0474
9 -18 0 1.8314 0.1718
9 -18 1 4.3511 0.1742
9 -18 2 0.5401 0.0176
9 -18 3 -3.1965 -0.0484
9 -18 4 -3.7866 -0.0000
9 -18 5 -1.3756 0.0568
9 -18 6 2.6033 -0.0377
9 -18 7 4.2020 -0.1096
9 -18 8 1.9227 0.0995
9 -18 9 -1.2088 0.0881
9 -18 10 -1.7993 -0.0938
9 -18 11 0.3092 -0.0159
9 -18 12 1.1046 -0.0517
9 -18 13 -1.6416 -0.0571
9 -18 14 -1.5469 0.1806
9 -17 0 3.5617 -0.0827
9 -17 1 1.8518 0.4350
9 -17 2 -0.8253 0.2351
9 -17 3 -0.8778 -0.2190
9 -17 4 -0.3786 -0.1316
9 -17 5 -0.6375 0.1927
9 -17 6 0.6915 0.0462
9 -17 7 2.2081 -0.1466
9 -17 8 -0.1546 0.0734
9 -17 9 -1.6057 0.0880
9 -17 10 1.9967 -0.0829
9 -17 11 4.2368 -0.0456
9 -17 12 0.0056 -0.0337
9 -17 13 -4.7665 0.0277
9 -17 14 -0.5489 0.1450
9 -17 15 4.2826 0.0074
9 -16 0 0.2012 -0.3269
9 -16 1 2.9880 0.1495
9 -16 2 1.9589 0.1858
9 -16 3 -1.2944 -0.1123
9 -16 4 -0.8967 -0.1207
9 -16 5 -0.3229 0.1337
9 -16 6 -0.6864 0.0992
9 -16 7 2.1883 -0.0798
9 -16 8 2.8196 -0.0171
9 -16 9 -1.0972 0.0441
9 -16 10 -2.2359 -0.0134
9 -16 11 1.9156 -0.0465
9 -16 12 2.2342 -0.0209
9 -16 13 -2.4522 0.0555
9 -16 14 0.4340 0.0589
9 -16 15 4.2683 -0.0608
9 -16 16 1.7698 -0.0415
9 -16 17 2.0579 0.1245
9 -15 0 0.4724 -0.2854
9 -15 1 -0.4600 -0.4039
9 -15 2 -1.8781 -0.0486
9 -15 3 -0.0680 0.2247
9 -15 4 2.5633 0.0152
9 -15 5 -0.6098 -0.1401
9 -15 6 -1.7303 0.0192
9 -15 7 2.3538 0.0938
9 -15 8 1.1447 -0.0085
9 -15 9 -2.4597 -0.0371
9 -15 10 -1.3851 -0.0137
9 -15 11 1.8027 -0.0201
9 -15 12 0.3363 0.0198
9 -15 13 -1.9744 0.0446
9 -15 14 2.1222 -0.0005
9 -15 15 2.8195 -0.0696
9 -15 16 1.6481 -0.0364
9 -15 17 4.2690 0.0898
9 -15 18 1.1530 0.0147
9 -14 0 -0.9257 0.0949
9 -14 1 -0.4857 -0.4993
9 -14 2 -0.3874 -0.2082
9 -14 3 0.4369 0.3172
9 -14 4 1.9680 0.0928
9 -14 5 -0.7419 -0.2448
9 -14 6 -1.6060 -0.0467
9 -14 7 0.4631 0.1337
9 -14 8 0.1864 0.0042
9 -14 9 -0.8474 -0.0436
9 -14 10 -1.9872 -0.0037
9 -14 11 -0.5705 0.0080
9 -14 12 0.1837 0.0257
9 -14 13 -0.3985 -0.0042
9 -14 14 1.2134 -0.0114
9 -14 15 -0.1834 -0.0272
9 -14 16 1.0291 -0.0528
9 -14 17 5.1612 0.0344
9 -14 18 3.5156 0.0201
9 -14 19 0.3437 -0.1491
9 -13 0 -1.2814 0.4062
9 -13 1 0.5462 0.0095
9 -13 2 0.8080 -0.1160
9 -13 3 2.6977 0.0416
9 -13 4 2.7898 0.0444
9 -13 5 -2.7842 -0.0672
9 -13 6 -2.3797 -0.0423
9 -13 7 1.5326 0.0194
9 -13 8 1.6123 0.0167
9 -13 9 0.2803 0.0244
9 -13 10 -1.5590 0.0020
9 -13 11 -2.3654 0.0000
9 -13 12 -3.8773 0.0076
9 -13 13 -1.2667 -0.0393
9 -13 14 3.5804 -0.0214
9 -13 15 1.4543 0.0030
9 -13 16 1.0585 -0.0187
9 -13 17 2.3471 0.0313
9 -13 18 0.3689 0.0113
9 -13 19 -0.7546 -0.1430
9 -13 20 -1.7676 -0.0932
9 -12 0 -0.3631 0.2867
9 -12 1 1.8169 0.4967
9 -12 2 1.1379 0.0599
9 -12 3 1.1025 -0.2956
9 -12 4 0.3326 -0.0172
9 -12 5 -0.3919 0.2077
9 -12 6 3.0823 0.0135
9 -12 7 3.4668 -0.1139
9 -12 8 1.5843 0.0078
9 -12 9 -0.6833 0.0810
9 -12 10 -2.9805 0.0009
9 -12 11 -1.4232 -0.0320
9 -12 12 -0.9478 -0.0113
9 -12 13 0.0817 -0.0296
9 -12 14 1.0739 -0.0142
9 -12 15 -0.3090 0.0239
9 -12 16 0.3323 -0.0129
9 -12 17 -0.8495 -0.0315
9 -12 18 0.2660 0.0060
9 -12 19 2.9157 -0.0342
9 -12 20 -1.0605 -0.0182
9 -12 21 -2.6886 0.0063
9 -11 0 -3.4673 -0.2234
9 -11 1 -1.6007 0.3643
9 -11 2 2.0673 0.1395
9 -11 3 3.5504 -0.2740
9 -11 4 -0.1851 -0.0051
9 -11 5 -1.6024 0.2368
9 -11 6 2.3600 0.0289
9 -11 7 4.8489 -0.1010
9 -11 8 5.3583 -0.0114
9 -11 9 1.1831 0.0280
9 -11 10 -1.6701 -0.0015
9 -11 11 0.2167 0.0055
9 -11 12 -0.5233 0.0196
9 -11 13 0.3831 -0.0215
9 -11 14 0.9689 -0.0590
9 -11 15 -0.2221 -0.0051
9 -11 16 0.0211 0.0112
9 -11 17 -1.6506 -0.0250
9 -11 18 0.1285 -0.0032
9 -11 19 1.7879 0.0072
9 -11 20 -1.4512 0.0501
9 -11 21 -2.3156 0.0120
9 -11 22 -2.1349 -0.1577
9 -10 0 -2.1012 -0.5137
9 -10 1 -0.0268 -0.1278
9 -10 2 1.7696 0.0713
9 -10 3 -1.1552 0.0183
9 -10 4 -4.1027 0.0155
9 -10 5 0.9450 -0.0003
9 -10 6 4.8650 -0.0133
9 -10 7 3.3936 0.0098
9 -10 8 2.9466 -0.0095
9 -10 9 0.6537 -0.0244
9 -10 10 1.3229 -0.0013
9 -10 11 3.8639 0.0026
9 -10 12 2.3219 0.0258
9 -10 13 1.3463 0.0170
9 -10 14 -0.3918 -0.0566
9 -10 15 0.1600 -0.0328
9 -10 16 1.3063 0.0189
9 -10 17 -1.1022 -0.0007
9 -10 18 0.7370 -0.0185
9 -10 19 0.9345 0.0001
9 -10 20 -3.0943 0.0685
9 -10 21 -3.3653 0.0207
9 -10 22 -1.7615 -0.0938
9 -9 0 -0.6106 -0.2173
9 -9 1 -1.8754 -0.3918
9 -9 2 -0.5111 -0.0215
9 -9 3 -0.1937 0.2441
9 -9 4 -1.1688 -0.0383
9 -9 5 -0.2665 -0.2409
9 -9 6 -1.6810 -0.0185
9 -9 7 -0.0994 0.1082
9 -9 8 4.3300 -0.0252
9 -9 9 2.5836 -0.0642
9 -9 10 1.6272 0.0147
9 -9 11 1.8219 0.0142
9 -9 12 1.2645 -0.0090
9 -9 13 2.9387 -0.0096
9 -9 14 2.4325 -0.0202
9 -9 15 1.6070 -0.0049
9 -9 16 0.0346 0.0165
9 -9 17 -0.3009 0.0275
9 -9 18 3.0989 -0.0173
9 -9 19 0.6673 -0.0532
9 -9 20 -2.6896 0.0345
9 -9 21 -1.3701 0.0639
9 -9 22 -2.4339 -0.0247
9 -9 23 -2.8368 -0.0090
9 -8 0 0.4104 0.3460
9 -8 1 0.4345 -0.1636
9 -8 2 -0.2172 -0.0561
9 -8 3 -2.7077 0.1583
9 -8 4 -2.3608 -0.0813
9 -8 5 0.6412 -0.1840
9 -8 6 -1.1871 0.0190
9 -8 7 -0.5928 0.0670
9 -8 8 2.0393 -0.0208
9 -8 9 -0.3525 -0.0213
9 -8 10 -0.4475 0.0026
9 -8 11 1.3344 -0.0214
9 -8 12 1.3364 -0.0430
9 -8 13 0.0880 -0.0191
9 -8 14 -0.3127 0.0336
9 -8 15 2.6547 0.0181
9 -8 16 2.3847 -0.0254
9 -8 17 1.7757 0.0135
9 -8 18 4.0903 0.0165
9 -8 19 0.5592 -0.0264
9 -8 20 -3.6376 -0.0108
9 -8 21 -2.1903 0.0015
9 -8 22 -0.3461 -0.0210
9 -8 23 0.0537 0.0185
9 -7 0 3.9857 0.4876
9 -7 1 0.3244 0.1635
9 -7 2 -5.0815 -0.0485
9 -7 3 -3.6381 -0.0620
9 -7 4 2.9121 0.0177
9 -7 5 3.5896 0.0989
9 -7 6 -3.1099 0.0105
9 -7 7 -2.4197 -0.0682
9 -7 8 1.7692 0.0347
9 -7 9 0.0156 0.0540
9 -7 10 -0.8423 -0.0455
9 -7 11 -0.8486 -0.0274
9 -7 12 -2.3500 0.0097
9 -7 13 -2.4786 -0.0268
9 -7 14 0.5310 -0.0033
9 -7 15 3.0895 0.0163
9 -7 16 0.5214 -0.0098
9 -7 17 0.4124 0.0041
9 -7 18 3.3320 0.0072
9 -7 19 0.2108 -0.0115
9 -7 20 -3.0738 -0.0128
9 -7 21 0.0591 -0.0034
9 -7 22 2.5073 -0.0206
9 -7 23 -0.2980 -0.0216
9 -7 24 -1.1249 0.0430
9 -6 0 2.9685 -0.0123
9 -6 1 -3.5430 0.2160
9 -6 2 -4.1685 0.0177
9 -6 3 0.4665 -0.1515
9 -6 4 4.4159 0.1189
9 -6 5 2.2949 0.2535
9 -6 6 -3.7195 -0.0210
9 -6 7 -2.1890 -0.1284
9 -6 8 2.1875 0.0601
9 -6 9 1.7188 0.0840
9 -6 10 0.4016 -0.0326
9 -6 11 -1.5218 0.0028
9 -6 12 -3.0680 0.0499
9 -6 13 -2.8503 -0.0132
9 -6 14 -1.0848 -0.0363
9 -6 15 1.6274 -0.0062
9 -6 16 0.9204 0.0085
9 -6 17 -0.7835 -0.0018
9 -6 18 0.6922 0.0005
9 -6 19 0.8231 0.0425
9 -6 20 -1.3073 0.0279
9 -6 21 0.4065 -0.0544
9 -6 22 2.7701 -0.0718
9 -6 23 -1.2389 0.0206
9 -6 24 -2.7585 0.0379
9 -5 0 1.3595 -0.4943
9 -5 1 0.0179 0.0293
9 -5 2 -0.6234 0.0781
9 -5 3 -0.3886 -0.0478
9 -5 4 0.8965 0.0528
9 -5 5 0.0409 0.0702
9 -5 6 -1.2488 -0.0270
9 -5 7 1.9636 -0.0303
9 -5 8 2.0087 0.0194
9 -5 9 -0.6465 0.0414
9 -5 10 0.4820 0.0304
9 -5 11 0.1855 0.0060
9 -5 12 -1.6258 0.0165
9 -5 13 -2.7191 0.0352
9 -5 14 -2.0024 -0.0051
9 -5 15 2.3763 -0.0436
9 -5 16 2.5819 -0.0049
9 -5 17 -1.9021 0.0315
9 -5 18 -0.7826 0.0227
9 -5 19 2.3736 0.0160
9 -5 20 -0.0704 -0.0009
9 -5 21 -0.6025 -0.0219
9 -5 22 2.1976 0.0238
9 -5 23 -0.3671 0.0849
9 -5 24 -2.1362 -0.0336
9 -4 0 2.9185 -0.2629
9 -4 1 -0.9660 -0.1031
9 -4 2 -1.6441 0.0026
9 -4 3 -0.9098 0.0476
9 -4 4 -0.3373 -0.0992
9 -4 5 0.3880 -0.1919
9 -4 6 1.3218 0.0198
9 -4 7 0.7660 0.1067
9 -4 8 -1.8887 -0.0641
9 -4 9 0.9911 -0.0566
9 -4 10 3.3060 0.0658
9 -4 11 -2.5381 0.0184
9 -4 12 -3.8074 -0.0261
9 -4 13 -0.9610 0.0159
9 -4 14 0.0820 0.0018
9 -4 15 3.6443 -0.0247
9 -4 16 2.1333 0.0006
9 -4 17 -4.5696 0.0155
9 -4 18 -1.8858 0.0044
9 -4 19 5.1776 0.0008
9 -4 20 2.4694 0.0136
9 -4 21 -0.7982 0.0253
9 -4 22 3.0395 0.0513
9 -4 23 1.7542 0.0676
9 -4 24 -3.4612 -0.0224
9 -3 0 -2.4425 0.3667
9 -3 1 -0.4796 -0.0750
9 -3 2 2.3478 -0.1387
9 -3 3 -0.2837 0.0415
9 -3 4 -3.2320 -0.0993
9 -3 5 -2.5470 -0.1939
9 -3 6 0.4374 0.0337
9 -3 7 1.4281 0.1104
9 -3 8 0.2145 -0.0542
9 -3 9 2.0350 -0.0727
9 -3 10 -0.7319 0.0046
9 -3 11 -5.2290 -0.0160
9 -3 12 0.1728 -0.0381
9 -3 13 1.4522 -0.0162
9 -3 14 -3.5303 0.0160
9 -3 15 -0.4396 0.0168
9 -3 16 2.2656 -0.0306
9 -3 17 -2.8940 -0.0226
9 -3 18 -3.6004 0.0244
9 -3 19 3.0301 0.0001
9 -3 20 3.7280 -0.0111
9 -3 21 0.7394 0.0276
9 -3 22 2.8863 0.0084
9 -3 23 1.7377 -0.0118
9 -3 24 -2.9841 0.0606
9 -2 0 -0.6353 0.4728
9 -2 1 2.2949 0.0178
9 -2 2 2.0101 -0.1006
9 -2 3 -2.9975 0.0113
9 -2 4 -5.1336 0.0646
9 -2 5 -1.6941 0.0549
9 -2 6 2.1186 -0.0129
9 -2 7 -0.1686 -0.0240
9 -2 8 -1.7606 0.0356
9 -2 9 3.1220 -0.0000
9 -2 10 0.8450 -0.0845
9 -2 11 -3.6176 -0.0282
9 -2 12 0.3663 0.0411
9 -2 13 -0.2397 -0.0149
9 -2 14 -3.7188 -0.0257
9 -2 15 0.1682 0.0146
9 -2 16 2.4771 -0.0005
9 -2 17 -4.4825 0.0027
9 -2 18 -7.8570 0.0082
9 -2 19 0.7006 -0.0405
9 -2 20 4.3699 -0.0341
9 -2 21 0.5646 0.0173
9 -2 22 0.9333 -0.0137
9 -2 23 -0.4295 -0.0093
9 -2 24 -3.2762 0.1067
9 -1 0 -0.0323 -0.1406
9 -1 1 2.2179 0.0842
9 -1 2 1.1522 0.1641
9 -1 3 -3.6493 -0.0007
9 -1 4 -3.2136 0.1088
9 -1 5 0.9009 0.2028
9 -1 6 0.4615 -0.0424
9 -1 7 -4.1960 -0.1059
9 -1 8 -1.2043 0.0867
9 -1 9 5.5369 0.0610
9 -1 10 1.4570 -0.0635
9 -1 11 -2.2695 0.0272
9 -1 12 1.0099 0.0804
9 -1 13 1.3127 -0.0217
9 -1 14 -0.8902 -0.0360
9 -1 15 -0.9696 0.0165
9 -1 16 1.3966 0.0256
9 -1 17 -1.1832 0.0149
9 -1 18 -5.7526 -0.0066
9 -1 19 -2.8098 -0.0247
9 -1 20 -0.1073 0.0004
9 -1 21 0.8457 0.0306
9 -1 22 1.2830 -0.0152
9 -1 23 -3.7608 -0.0372
9 -1 24 -5.0157 0.0267
9 0 0 -0.6579 -0.5951
9 0 1 2.7006 0.0547
9 0 2 0.7711 0.2475
9 0 3 -3.1481 -0.0323
9 0 4 -1.0489 -0.0130
9 0 5 1.7729 0.0888
9 0 6 -1.3877 -0.0124
9 0 7 -4.8436 -0.0545
9 0 8 0.9254 0.0217
9 0 9 5.4844 0.0583
9 0 10 1.1509 0.0596
9 0 11 -1.1464 0.0468
9 0 12 -0.2358 -0.0133
9 0 13 1.9125 -0.0248
9 0 14 2.0017 0.0045
9 0 15 -0.3686 0.0148
9 0 16 2.5613 0.0420
9 0 17 2.4961 0.0110
9 0 18 -2.6592 -0.0150
9 0 19 -3.3111 0.0546
9 0 20 -0.7678 0.0423
9 0 21 2.8471 -0.0701
9 0 22 0.5476 -0.0678
9 0 23 -6.7953 0.0619
9 0 24 -5.3092 0.0602
9 1 0 0.7961 -0.2546
9 1 1 3.9415 -0.0696
9 1 2 1.0572 -0.0261
9 1 3 -2.6008 -0.0580
9 1 4 -1.5597 -0.1121
9 1 5 0.8280 -0.1022
9 1 6 -0.4437 0.0435
9 1 7 -0.9845 0.0368
9 1 8 2.6015 -0.0702
9 1 9 1.4633 0.0046
9 1 10 -0.2319 0.0778
9 1 11 0.8278 -0.0298
9 1 12 -1.3887 -0.0816
9 1 13 0.7836 0.0234
9 1 14 3.2770 0.0309
9 1 15 0.6113 -0.0196
9 1 16 0.8985 0.0146
9 1 17 1.5859 -0.0010
9 1 18 1.3035 0.0084
9 1 19 0.5305 0.0576
9 1 20 0.3777 -0.0354
9 1 21 2.4862 -0.1053
9 1 22 -0.5647 0.0181
9 1 23 -3.9747 0.1094
9 1 24 -0.4321 -0.0187
9 2 0 1.3438 0.4493
9 2 1 1.7206 -0.1422
9 2 2 0.4221 -0.3298
9 2 3 -1.5248 0.0011
9 2 4 -1.0769 -0.0190
9 2 5 1.6725 -0.1507
9 2 6 0.7184 0.0372
9 2 7 -0.1030 0.0689
9 2 8 1.1798 -0.0821
9 2 9 -0.7745 -0.0678
9 2 10 1.1222 -0.0093
9 2 11 2.2918 -0.0462
9 2 12 -1.0421 -0.0355
9 2 13 1.3508 0.0303
9 2 14 1.2503 -0.0101
9 2 15 -2.9807 -0.0452
9 2 16 -1.3964 -0.0007
9 2 17 2.6746 -0.0094
9 2 18 2.6127 -0.0257
9 2 19 -1.5719 -0.0175
9 2 20 0.1900 -0.0128
9 2 21 4.7760 0.0064
9 2 22 0.8303 0.0021
9 2 23 -2.3231 -0.0254
9 2 24 0.5236 -0.0586
9 3 0 1.4981 0.5953
9 3 1 0.5458 -0.0623
9 3 2 0.2970 -0.2340
9 3 3 0.2975 0.1119
9 3 4 0.5289 0.1264
9 3 5 1.3368 -0.0287
9 3 6 -1.1662 -0.0262
9 3 7 -0.2633 -0.0082
9 3 8 1.7824 -0.0003
9 3 9 -0.6818 -0.0294
9 3 10 0.8811 -0.0564
9 3 11 1.5161 -0.0068
9 3 12 -0.3808 0.0266
9 3 13 1.0331 0.0018
9 3 14 0.8756 -0.0250
9 3 15 -0.2592 -0.0264
9 3 16 -1.8053 -0.0366
9 3 17 -2.5535 -0.0261
9 3 18 -0.7525 0.0037
9 3 19 1.3898 -0.0124
9 3 20 3.6405 0.0085
9 3 21 0.1379 0.0511
9 3 22 -4.6696 0.0034
9 3 23 -0.6092 -0.0776
9 4 0 1.3814 0.0085
9 4 1 -0.9652 0.1608
9 4 2 2.3742 0.1810
9 4 3 1.3362 0.0943
9 4 4 -1.0821 0.0830
9 4 5 0.8267 0.0675
9 4 6 0.5984 -0.0664
9 4 7 1.9435 -0.0256
9 4 8 1.3597 0.1069
9 4 9 -3.2741 -0.0020
9 4 10 -3.4513 -0.0478
9 4 11 -0.8212 0.0857
9 4 12 3.2597 0.0551
9 4 13 4.5264 -0.0582
9 4 14 0.8169 -0.0243
9 4 15 -2.5240 0.0233
9 4 16 -3.6580 -0.0072
9 4 17 0.7497 0.0024
9 4 18 4.1785 0.0075
9 4 19 0.6068 -0.0072
9 4 20 -3.3685 0.0570
9 4 21 -3.4508 0.0649
9 4 22 1.1369 -0.0123
9 4 23 2.7487 -0.0378
9 5 0 1.9424 -0.4985
9 5 1 1.5741 0.2660
9 5 2 3.1301 0.3248
9 5 3 -2.2276 -0.1081
9 5 4 -1.1898 -0.0730
9 5 5 4.8813 0.0968
9 5 6 2.5075 -0.0268
9 5 7 -0.2935 -0.0229
9 5 8 -1.7177 0.0849
9 5 9 -3.1765 0.0333
9 5 10 -1.7574 0.0235
9 5 11 1.0928 0.0438
9 5 12 1.6901 -0.0209
9 5 13 -2.6368 -0.0343
9 5 14 -1.7537 0.0194
9 5 15 3.7404 0.0463
9 5 16 2.1344 0.0410
9 5 17 -2.0867 0.0100
9 5 18 -1.8815 -0.0227
9 5 19 3.2154 0.0171
9 5 20 5.0463 0.0274
9 5 21 0.3667 -0.0304
9 5 22 -2.7377 0.0729
9 6 0 -0.3942 -0.3832
9 6 1 2.4672 0.0372
9 6 2 7.0069 0.0429
9 6 3 0.3599 -0.2009
9 6 4 -1.2471 -0.1248
9 6 5 1.1720 0.0302
9 6 6 -1.3219 0.0356
9 6 7 0.2232 0.0160
9 6 8 3.8378 -0.0182
9 6 9 1.6232 -0.0073
9 6 10 -4.2315 0.0161
9 6 11 -3.6989 -0.0510
9 6 12 -0.1487 -0.0318
9 6 13 -1.3723 0.0515
9 6 14 0.4074 0.0143
9 6 15 1.0683 -0.0060
9 6 16 -4.0039 0.0389
9 6 17 -3.7594 0.0061
9 6 18 4.8634 -0.0312
9 6 19 10.4258 -0.0057
9 6 20 3.2326 -0.0426
9 6 21 -4.4437 -0.0236
9 6 22 -3.1122 0.1488
9 7 0 -1.3597 0.0922
9 7 1 6.1679 -0.2718
9 7 2 8.6997 -0.2403
9 7 3 -1.4049 -0.0197
9 7 4 -2.9575 -0.0074
9 7 5 0.5326 -0.0453
9 7 6 0.0384 0.0397
9 7 7 1.2360 -0.0032
9 7 8 2.2438 -0.1061
9 7 9 -1.7144 -0.0044
9 7 10 -4.1791 0.0257
9 7 11 2.0279 -0.0987
9 7 12 2.7531 -0.0203
9 7 13 -4.6336 0.0840
9 7 14 -4.5531 -0.0236
9 7 15 -1.6990 -0.0564
9 7 16 -1.7420 0.0160
9 7 17 0.1699 -0.0071
9 7 18 4.2972 -0.0160
9 7 19 4.2905 0.0181
9 7 20 0.1533 -0.0439
9 7 21 0.2281 -0.0537
9 8 0 -2.7205 0.3328
9 8 1 3.2787 -0.2827
9 8 2 6.4353 -0.1327
9 8 3 1.1180 0.2343
9 8 4 -0.5021 0.0707
9 8 5 -0.4680 -0.1104
9 8 6 -2.4797 -0.0024
9 8 7 -2.3659 0.0162
9 8 8 0.9302 -0.0417
9 8 9 0.6044 0.0102
9 8 10 -1.7853 0.0137
9 8 11 0.8784 -0.0376
9 8 12 0.3296 0.0025
9 8 13 -2.8320 0.0163
9 8 14 -2.6355 -0.0310
9 8 15 -3.1168 -0.0156
9 8 16 -2.6524 -0.0137
9 8 17 0.2571 -0.0397
9 8 18 3.2271 0.0344
9 8 19 2.1492 0.0700
9 8 20 0.4459 -0.0534
9 9 0 -3.4640 0.1829
9 9 1 -0.5962 0.0368
9 9 2 2.7328 0.1253
9 9 3 0.8989 0.1635
9 9 4 -0.8024 0.0194
9 9 5 -1.7957 -0.0357
9 9 6 -2.0143 -0.0104
9 9 7 0.2229 0.0310
9 9 8 2.3438 0.0506
9 9 9 -1.8246 0.0030
9 9 10 -3.8153 0.0147
9 9 11 1.1386 0.0594
9 9 12 0.5642 0.0088
9 9 13 -3.0536 -0.0451
9 9 14 -2.7780 -0.0325
9 9 15 -1.2431 0.0105
9 9 16 -1.3780 0.0423
9 9 17 -1.1776 -0.0056
9 9 18 2.7519 -0.0428
9 9 19 3.0353 0.0246
9 10 0 -2.3226 -0.1078
9 10 1 -3.1360 0.2541
9 10 2 -1.2582 0.1530
9 10 3 -0.9466 -0.1009
9 10 4 -1.6259 -0.0169
9 10 5 -0.1015 0.0785
9 10 6 2.2452 -0.0501
9 10 7 1.3763 -0.0067
9 10 8 -0.5992 0.0884
9 10 9 -1.6718 0.0108
9 10 10 -0.6283 0.0381
9 10 11 -0.6877 0.0585
9 10 12 -1.4446 -0.0563
9 10 13 0.6924 -0.0458
9 10 14 -0.1861 0.0216
9 10 15 -2.6856 0.0492
9 10 16 -2.5997 0.0749
9 10 17 0.0067 -0.0568
9 10 18 3.1851 -0.1270
9 11 0 -2.1881 -0.1817
9 11 1 -4.2602 0.1752
9 11 2 -1.9976 -0.0299
9 11 3 0.8721 -0.2424
9 11 4 0.5184 -0.0108
9 11 5 -1.0209 0.0920
9 11 6 -1.1546 -0.0636
9 11 7 -0.2135 -0.0045
9 11 8 1.8773 0.0570
9 11 9 2.1469 -0.0365
9 11 10 0.0172 -0.0173
9 11 11 -0.7595 -0.0132
9 11 12 2.1935 -0.0131
9 11 13 1.1296 0.0780
9 11 14 -3.7303 0.0000
9 11 15 -0.4735 -0.0605
9 11 16 2.2207 0.0718
9 11 17 -1.7155 0.0024
9 12 0 -0.5211 -0.0725
9 12 1 -1.1156 -0.0928
9 12 2 -0.8517 -0.1144
9 12 3 -0.4130 -0.0671
9 12 4 -2.8490 0.0215
9 12 5 -2.1740 0.0172
9 12 6 1.9651 -0.0247
9 12 7 0.9599 -0.0195
9 12 8 -1.2060 -0.0617
9 12 9 1.8560 -0.0386
9 12 10 3.3445 0.0451
9 12 11 0.0737 -0.0132
9 12 12 -0.2177 -0.0253
9 12 13 0.3802 0.0444
9 12 14 0.4971 -0.0266
9 12 15 2.7949 -0.0208
9 12 16 0.4999 0.0841
9 13 0 -0.0321 0.0698
9 13 1 -2.4297 -0.1720
9 13 2 -3.8717 0.0046
9 13 3 -1.4779 0.1338
9 13 4 -0.2630 -0.0041
9 13 5 1.4015 -0.0540
9 13 6 0.7798 0.0210
9 13 7 -2.6407 0.0103
9 13 8 -0.0970 -0.0375
9 13 9 3.4315 0.0035
9 13 10 -1.3908 0.0067
9 13 11 -4.0141 -0.0266
9 13 12 2.6456 0.0345
9 13 13 4.6546 0.0447
9 13 14 0.4736 -0.0385
9 14 0 1.2754 0.0730
9 14 1 -3.9501 -0.0828
9 14 2 -5.1502 0.1419
9 14 3 -2.2732 0.1507
9 14 4 -1.3739 -0.0564
9 14 5 1.3170 -0.0249
9 14 6 1.9154 0.0702
9 14 7 -0.8027 -0.0137
9 14 8 -1.5591 -0.0609
9 14 9 -1.9830 0.0367
9 14 10 -1.6429 0.0957
9 14 11 1.3832 0.0763
9 14 12 2.0940 -0.0177
9 14 13 -0.4932 -0.1001
9 15 0 -0.7969 -0.0167
9 15 1 -3.8199 0.0968
9 15 2 -2.2048 0.1413
9 15 3 -2.9604 -0.0234
9 15 4 -5.1627 -0.0542
9 15 5 -1.5318 0.0089
9 15 6 0.6659 -0.0528
9 15 7 1.1669 -0.0513
9 15 8 1.6771 0.1027
9 15 9 -1.1197 0.1342
9 15 10 -2.5135 -0.0051
9 15 11 -1.3289 -0.0514
9 16 0 0.8188 -0.0396
9 16 1 -1.4218 0.0821
9 16 2 -0.8890 -0.0088
9 16 3 -5.0827 -0.1128
9 16 4 -7.9821 -0.0183
9 16 5 -2.6638 0.0024
9 16 6 2.8472 -0.0171
9 16 7 4.8299 0.0428
9 16 8 -0.1162 0.0223
9 16 9 -6.5860 -0.0736
9 17 0 0.2679 -0.1106
9 17 1 -2.0916 -0.0851
9 17 2 0.0246 -0.0546
9 17 3 -2.3474 0.0592
9 17 4 -4.9783 0.1696
9 17 5 -2.5769 0.0193
9 17 6 0.4460 -0.1369
9 18 0 -0.3617 -0.0428
9 18 1 -1.5978 -0.0237
9 18 2 0.8241 0.1201
10 -21 0 3.1672 -0.3484
10 -21 1 -1.9215 0.0307
10 -21 2 -2.3957 -0.0106
10 -21 3 1.8826 -0.0437
10 -20 0 -0.8674 -0.3421
10 -20 1 -4.1010 -0.2152
10 -20 2 -1.5021 -0.0876
10 -20 3 5.0821 0.1100
10 -20 4 2.7179 0.0322
10 -20 5 -1.6252 -0.0859
10 -20 6 0.1754 0.0759
10 -20 7 0.8020 0.0106
10 -19 0 3.4235 -0.0502
10 -19 1 -0.9806 -0.3170
10 -19 2 -1.9253 -0.1075
10 -19 3 1.1404 0.2288
10 -19 4 -1.8299 -0.0660
10 -19 5 -1.2680 -0.2208
10 -19 6 5.2443 0.0654
10 -19 7 4.5604 0.0817
10 -19 8 -0.6550 0.0411
10 -19 9 -2.0987 0.0055
10 -19 10 -2.1369 -0.1304
10 -18 0 4.2915 0.2971
10 -18 1 -3.3361 -0.1218
10 -18 2 -4.9974 -0.1094
10 -18 3 0.5395 0.0803
10 -18 4 1.6245 -0.1051
10 -18 5 1.8074 -0.0921
10 -18 6 3.8889 0.0826
10 -18 7 1.4191 0.0548
10 -18 8 -2.5190 0.0059
10 -18 9 -1.5367 -0.0887
10 -18 10 1.3809 -0.0623
10 -18 11 2.5324 0.0347
10 -18 12 0.8392 -0.0183
10 -17 0 1.5369 0.3434
10 -17 1 -4.0836 0.1025
10 -17 2 -1.7900 -0.0891
10 -17 3 4.6802 -0.0481
10 -17 4 3.1641 0.0547
10 -17 5 -1.0606 0.1010
10 -17 6 -1.5239 -0.0650
10 -17 7 -0.5887 -0.0653
10 -17 8 1.0622 0.0802
10 -17 9 2.3830 -0.0223
10 -17 10 1.3119 -0.0551
10 -17 11 1.1505 -0.0158
10 -17 12 0.0679 -0.0406
10 -17 13 -2.7039 0.1140
10 -17 14 0.3676 0.1560
10 -16 0 1.5938 0.0043
10 -16 1 -0.7304 0.2675
10 -16 2 -0.4019 0.0416
10 -16 3 0.6949 -0.1712
10 -16 4 -0.6009 0.0696
10 -16 5 -0.4216 0.2166
10 -16 6 2.0548 -0.0626
10 -16 7 2.2669 -0.0971
10 -16 8 -0.9846 0.0688
10 -16 9 -3.7188 0.0088
10 -16 10 -1.1620 -0.0304
10 -16 11 4.9032 -0.0197
10 -16 12 2.2196 -0.0221
10 -16 13 -3.2175 0.0777
10 -16 14 2.1486 0.0972
10 -16 15 4.0959 -0.0470
10 -15 0 -2.1311 -0.3328
10 -15 1 -5.0704 0.0891
10 -15 2 -1.4374 0.0939
10 -15 3 2.9541 -0.0816
10 -15 4 2.3836 0.0084
10 -15 5 0.1376 0.0985
10 -15 6 -1.1271 -0.0044
10 -15 7 -2.6607 -0.0286
10 -15 8 -2.6104 0.0094
10 -15 9 -1.4309 0.0140
10 -15 10 0.1880 0.0039
10 -15 11 3.5963 -0.0211
10 -15 12 0.7900 -0.0000
10 -15 13 -2.6965 0.0559
10 -15 14 1.2939 0.0605
10 -15 15 2.3699 -0.0210
10 -15 16 3.1039 -0.0982
10 -14 0 -1.9236 -0.2720
10 -14 1 -0.7886 -0.1524
10 -14 2 1.6749 0.0816
10 -14 3 0.9999 0.0842
10 -14 4 -1.6276 -0.1249
10 -14 5 -2.0492 -0.1378
10 -14 6 -0.4833 0.0738
10 -14 7 -1.2260 0.0898
10 -14 8 -2.4139 -0.0467
10 -14 9 -2.8054 -0.0265
10 -14 10 -0.6661 0.0126
10 -14 11 2.7139 0.0042
10 -14 12 -1.6670 0.0096
10 -14 13 -3.2199 0.0018
10 -14 14 2.3790 0.0244
10 -14 15 2.9558 0.0126
10 -14 16 3.2535 -0.0596
10 -14 17 3.1176 -0.0615
10 -14 18 0.6792 -0.0064
10 -13 0 0.7796 0.1713
10 -13 1 -2.1075 -0.2302
10 -13 2 -0.9307 -0.0468
10 -13 3 2.2768 0.1543
10 -13 4 1.7158 -0.1125
10 -13 5 -0.8692 -0.2056
10 -13 6 -1.6314 0.0817
10 -13 7 -2.3883 0.1132
10 -13 8 -0.4097 -0.0478
10 -13 9 0.7114 -0.0403
10 -13 10 -1.6568 -0.0221
10 -13 11 -3.9066 -0.0094
10 -13 12 -3.8136 0.0191
10 -13 13 2.8639 -0.0102
10 -13 14 4.5277 -0.0187
10 -13 15 -0.6830 0.0092
10 -13 16 0.7554 0.0153
10 -13 17 1.8320 -0.0118
10 -13 18 1.0557 -0.0736
10 -13 19 1.4620 -0.1276
10 -12 0 -0.2805 0.3291
10 -12 1 0.2386 -0.0838
10 -12 2 1.7782 -0.0590
10 -12 3 2.1666 0.1002
10 -12 4 0.3413 0.0113
10 -12 5 1.3665 -0.0472
10 -12 6 3.9519 0.0346
10 -12 7 1.6205 0.0156
10 -12 8 -2.0476 -0.0092
10 -12 9 -3.7671 0.0055
10 -12 10 0.0193 -0.0472
10 -12 11 2.8492 -0.0419
10 -12 12 -0.8281 0.0239
10 -12 13 -1.2123 0.0252
10 -12 14 -0.4075 -0.0239
10 -12 15 1.0238 -0.0517
10 -12 16 2.3233 -0.0170
10 -12 17 -1.1399 0.0546
10 -12 18 1.1331 0.0102
10 -12 19 3.4683 -0.1239
10 -11 0 0.9801 0.0264
10 -11 1 0.6394 0.1071
10 -11 2 0.5717 0.0241
10 -11 3 1.4270 -0.0021
10 -11 4 2.3389 0.1222
10 -11 5 3.9459 0.1168
10 -11 6 2.9046 -0.0278
10 -11 7 0.5532 -0.0711
10 -11 8 1.3112 0.0056
10 -11 9 2.5777 0.0420
10 -11 10 3.8734 0.0214
10 -11 11 -0.0136 -0.0065
10 -11 12 -3.1867 -0.0145
10 -11 14 3.0619 -0.0252
10 -11 15 2.2674 -0.0561
10 -11 16 -0.1177 0.0061
10 -11 17 -4.0208 0.1036
10 -11 18 1.4890 0.0144
10 -11 19 4.2836 -0.1222
10 -11 20 -2.2165 -0.0243
10 -10 0 -1.6233 -0.2965
10 -10 1 -0.1633 0.1685
10 -10 2 0.7556 0.0602
10 -10 3 -0.3001 -0.0845
10 -10 4 0.3798 0.0781
10 -10 5 2.3207 0.0774
10 -10 6 2.2904 -0.0576
10 -10 7 3.9837 -0.0202
10 -10 8 3.1560 0.0364
10 -10 9 -1.2102 0.0168
10 -10 10 1.3632 0.0255
10 -10 11 4.7054 0.0056
10 -10 12 5.0555 -0.0177
10 -10 13 2.6542 0.0101
10 -10 14 -2.0967 0.0141
10 -10 15 1.0859 -0.0155
10 -10 16 2.6054 -0.0189
10 -10 17 -0.5281 0.0331
10 -10 18 2.1114 0.0303
10 -10 19 0.3369 0.0062
10 -10 20 -4.9674 0.0551
10 -10 21 -3.2526 -0.0007
10 -9 0 -1.2241 -0.1152
10 -9 1 0.6629 0.0779
10 -9 2 -0.7349 -0.0960
10 -9 3 -2.4595 -0.1318
10 -9 4 -0.0379 -0.0064
10 -9 5 1.3523 -0.0241
10 -9 6 -0.3702 -0.0247
10 -9 7 0.7976 0.0433
10 -9 8 0.1140 -0.0149
10 -9 9 -0.2322 -0.0528
10 -9 10 3.7128 0.0316
10 -9 11 2.4589 0.0341
10 -9 12 1.3752 -0.0195
10 -9 13 1.8780 -0.0180
10 -9 14 1.0022 0.0041
10 -9 15 4.3968 0.0181
10 -9 16 3.0890 0.0239
10 -9 17 -1.1744 0.0266
10 -9 18 -0.6547 -0.0082
10 -9 19 -1.0185 -0.0059
10 -9 20 -0.3203 0.0828
10 -9 21 -0.1038 0.0844
10 -8 0 0.8999 0.2389
10 -8 1 0.2194 -0.0669
10 -8 2 -4.2062 -0.1480
10 -8 3 -3.4055 -0.0366
10 -8 4 2.5250 -0.0652
10 -8 5 1.7115 -0.0764
10 -8 6 -2.7296 0.0353
10 -8 7 -0.9417 0.0407
10 -8 8 -0.5752 -0.0503
10 -8 9 -1.7789 -0.0407
10 -8 10 -1.5058 -0.0050
10 -8 11 -2.4099 -0.0303
10 -8 12 1.1810 -0.0112
10 -8 13 3.2253 0.0148
10 -8 14 1.5952 -0.0016
10 -8 15 2.2156 0.0092
10 -8 16 -0.0241 0.0264
10 -8 17 -0.2655 -0.0010
10 -8 18 1.3208 -0.0374
10 -8 19 -1.8004 -0.0196
10 -8 20 -2.3845 0.0722
10 -8 21 -0.2820 0.1327
10 -8 22 0.4020 0.0098
10 -7 0 2.2254 0.2213
10 -7 1 -2.8790 -0.1030
10 -7 2 -6.0056 0.0481
10 -7 3 1.1699 0.1238
10 -7 4 6.0836 -0.0420
10 -7 5 0.5563 -0.0253
10 -7 6 -2.9214 0.0514
10 -7 7 -0.1318 -0.0052
10 -7 8 -1.8554 -0.0236
10 -7 9 -3.5665 0.0030
10 -7 10 -2.2278 -0.0229
10 -7 11 -1.7720 -0.0248
10 -7 12 0.3914 0.0078
10 -7 13 -0.4847 -0.0044
10 -7 14 -1.7254 -0.0101
10 -7 15 0.9575 0.0050
10 -7 16 1.4529 -0.0151
10 -7 17 0.7964 -0.0178
10 -7 18 -2.5393 0.0140
10 -7 19 -5.5540 -0.0063
10 -7 20 -0.3805 0.0040
10 -7 21 3.7272 0.0715
10 -7 22 0.1637 -0.0195
10 -6 0 1.8040 -0.1774
10 -6 1 -1.9956 -0.0102
10 -6 2 -3.3644 0.2886
10 -6 3 1.6585 0.1714
10 -6 4 4.6264 -0.0226
10 -6 5 1.3185 0.0242
10 -6 6 -1.6558 0.0276
10 -6 7 -1.0730 -0.0191
10 -6 8 -0.1665 0.0250
10 -6 9 1.9749 0.0411
10 -6 10 0.2407 0.0174
10 -6 11 -4.5788 0.0244
10 -6 12 -3.7692 -0.0035
10 -6 13 -1.2392 -0.0423
10 -6 14 2.0101 -0.0069
10 -6 15 3.8195 0.0155
10 -6 16 -0.9847 -0.0143
10 -6 17 -4.2196 0.0076
10 -6 18 -2.6855 0.0495
10 -6 19 -0.2829 -0.0092
10 -6 20 1.0444 -0.0655
10 -6 21 -0.8613 -0.0204
10 -6 22 -3.2078 0.0044
10 -5 0 4.2008 -0.3679
10 -5 1 -2.9041 0.0942
10 -5 2 -6.0469 0.1850
10 -5 3 0.5220 -0.0186
10 -5 4 4.8025 -0.0138
10 -5 5 1.4911 0.0429
10 -5 6 -1.0402 -0.0254
10 -5 7 0.4159 -0.0125
10 -5 8 1.2847 0.0569
10 -5 9 1.4493 0.0507
10 -5 10 -2.0445 0.0274
10 -5 11 -4.0460 0.0141
10 -5 12 0.7127 -0.0181
10 -5 13 2.0922 -0.0209
10 -5 14 1.0515 0.0146
10 -5 15 0.8874 0.0210
10 -5 16 -1.7429 0.0058
10 -5 17 -1.1421 -0.0070
10 -5 18 2.1938 -0.0089
10 -5 19 1.0166 0.0201
10 -5 20 -2.7475 0.0238
10 -5 21 -2.2728 -0.0176
10 -5 22 0.5780 0.0005
10 -4 0 -0.3153 -0.0567
10 -4 1 -4.2812 0.0045
10 -4 2 -2.2658 -0.2225
10 -4 3 0.9474 -0.1846
10 -4 4 1.0567 0.0363
10 -4 5 0.1168 0.0202
10 -4 6 -0.2905 -0.0436
10 -4 7 -1.7829 -0.0121
10 -4 8 -1.2843 -0.0132
10 -4 9 2.9252 0.0095
10 -4 10 -0.0544 0.0276
10 -4 11 -4.4283 -0.0226
10 -4 12 -1.2048 -0.0259
10 -4 13 0.3879 0.0200
10 -4 14 1.8718 0.0010
10 -4 15 2.7608 -0.0348
10 -4 16 -1.7576 0.0002
10 -4 17 -2.4039 0.0073
10 -4 18 2.2248 -0.0056
10 -4 19 2.9578 0.0615
10 -4 20 0.1368 0.0422
10 -4 21 0.7568 -0.0649
10 -4 22 1.1771 0.0109
10 -4 23 -2.4836 0.0856
10 -3 0 0.3825 0.3285
10 -3 1 -0.2497 -0.1493
10 -3 2 -1.7743 -0.3776
10 -3 3 -3.0281 -0.0802
10 -3 4 -2.1209 0.0718
10 -3 5 -0.8166 -0.0459
10 -3 6 0.3081 -0.0226
10 -3 7 -0.4727 0.0039
10 -3 8 0.0286 -0.0654
10 -3 9 1.4045 -0.0326
10 -3 10 -4.4045 -0.0113
10 -3 11 -5.0226 -0.0473
10 -3 12 1.4137 -0.0081
10 -3 13 0.1883 0.0317
10 -3 14 -1.1540 -0.0225
10 -3 15 0.1246 -0.0592
10 -3 16 -2.3679 0.0049
10 -3 17 -3.0172 0.0257
10 -3 18 1.4887 -0.0156
10 -3 19 4.1864 0.0081
10 -3 20 0.5346 0.0014
10 -3 21 -1.2102 -0.0474
10 -3 22 0.9109 0.0390
10 -3 23 0.0678 0.1316
10 -2 0 -0.6117 0.3152
10 -2 1 -1.9609 -0.0797
10 -2 2 -1.6633 -0.0499
10 -2 3 -2.1480 0.1313
10 -2 4 -2.0653 0.0259
10 -2 5 -0.5873 -0.0669
10 -2 6 1.3743 0.0232
10 -2 7 -1.3185 0.0169
10 -2 8 -1.5409 -0.0467
10 -2 9 1.5642 -0.0401
10 -2 10 -1.8024 -0.0271
10 -2 11 -1.9822 0.0143
10 -2 12 0.2230 0.0254
10 -2 13 -2.2548 -0.0161
10 -2 14 -1.4998 -0.0225
10 -2 15 -0.0765 -0.0097
10 -2 16 -1.7577 0.0003
10 -2 17 -2.9574 -0.0011
10 -2 18 -1.2676 -0.0159
10 -2 19 0.3310 -0.0249
10 -2 20 -1.1024 -0.0251
10 -2 21 0.3369 0.0016
10 -2 22 1.1257 0.0651
10 -2 23 -2.8107 0.1080
10 -1 0 -1.6513 -0.0450
10 -1 1 0.7592 0.1959
10 -1 2 1.0110 0.3497
10 -1 3 -1.0802 0.1195
10 -1 4 -2.2110 -0.0699
10 -1 5 -1.7981 0.0011
10 -1 6 -0.1490 0.0380
10 -1 7 -1.0603 0.0146
10 -1 8 1.6547 0.0416
10 -1 9 3.6930 -0.0089
10 -1 10 -1.0519 -0.0180
10 -1 11 -1.3316 0.0789
10 -1 12 0.3053 0.0237
10 -1 13 -0.8012 -0.0559
10 -1 14 -1.0750 0.0068
10 -1 15 0.7045 0.0307
10 -1 16 2.9907 -0.0029
10 -1 17 -1.2327 0.0041
10 -1 18 -5.1473 0.0060
10 -1 19 -2.1230 -0.0210
10 -1 20 0.7586 0.0105
10 -1 21 1.1933 0.0387
10 -1 22 -2.8186 -0.0199
10 -1 23 -5.6299 -0.0080
10 0 0 -0.0407 -0.3438
10 0 1 2.7081 0.2735
10 0 2 0.2401 0.3344
10 0 3 -2.2203 -0.0658
10 0 4 -2.5299 -0.1004
10 0 5 -0.7074 0.0678
10 0 6 2.1993 0.0187
10 0 7 1.3683 0.0062
10 0 8 1.4275 0.0843
10 0 9 0.8505 0.0196
10 0 10 -0.5252 -0.0058
10 0 11 0.2226 0.0268
10 0 12 0.2742 -0.0314
10 0 13 1.8466 -0.0128
10 0 14 1.0477 0.0447
10 0 15 -0.1019 0.0253
10 0 16 2.6161 0.0064
10 0 17 2.1325 0.0045
10 0 18 0.5798 0.0211
10 0 19 -1.7131 0.0179
10 0 20 -2.5116 -0.0281
10 0 21 1.6778 -0.0486
10 0 22 -0.8166 0.0080
10 1 0 1.0893 -0.2368
10 1 1 3.4239 0.0038
10 1 2 -0.3818 -0.0945
10 1 3 -1.8371 -0.1737
10 1 4 -1.3093 0.0212
10 1 5 0.5788 0.0954
10 1 6 2.3608 -0.0246
10 1 7 1.2525 -0.0295
10 1 8 0.0823 0.0301
10 1 9 -0.2961 0.0069
10 1 10 2.0763 -0.0134
10 1 11 1.5115 -0.0583
10 1 12 -0.7954 -0.0407
10 1 13 0.8762 0.0585
10 1 14 -0.9843 0.0198
10 1 15 -0.5336 -0.0214
10 1 16 3.8695 0.0108
10 1 17 3.5352 -0.0156
10 1 18 1.5546 -0.0008
10 1 19 -1.6689 0.0065
10 1 20 -0.8427 -0.0586
10 1 21 3.4767 -0.0235
10 1 22 0.0531 0.0676
10 2 0 0.2811 0.0795
10 2 1 4.1571 -0.3316
10 2 2 1.4147 -0.3539
10 2 3 -0.9273 0.0253
10 2 4 -2.1389 0.1320
10 2 5 -1.0918 -0.0331
10 2 6 1.3208 -0.0583
10 2 7 3.0454 -0.0113
10 2 8 1.1588 -0.0378
10 2 9 -0.6421 -0.0169
10 2 10 2.2068 -0.0001
10 2 11 0.2435 -0.0715
10 2 12 -1.1879 -0.0063
10 2 13 1.7454 0.0576
10 2 14 -0.3346 -0.0594
10 2 15 -1.8297 -0.0330
10 2 16 -1.5461 0.0399
10 2 17 0.6547 -0.0531
10 2 18 4.3357 -0.0483
10 2 19 1.1858 0.0381
10 2 20 -1.2992 0.0227
10 2 21 0.8989 -0.0248
10 2 22 0.6635 -0.0615
10 3 0 3.3153 0.2832
10 3 1 2.7583 -0.2215
10 3 2 -0.2039 -0.1333
10 3 3 0.5258 0.1795
10 3 4 0.3782 0.0311
10 3 5 -0.6409 -0.1154
10 3 6 0.3324 -0.0043
10 3 7 2.7346 0.0062
10 3 8 -0.1939 -0.0489
10 3 9 -1.8565 0.0149
10 3 10 1.3630 0.0264
10 3 11 0.6722 -0.0341
10 3 12 1.8914 0.0055
10 3 13 1.8476 -0.0071
10 3 14 -2.5559 -0.0584
10 3 15 -1.9977 0.0196
10 3 16 -0.7861 0.0134
10 3 17 0.0262 -0.0550
10 3 18 1.5245 0.0036
10 3 19 0.8628 0.0512
10 3 20 -0.2712 0.0487
10 3 21 -1.9393 0.0014
10 4 0 1.8605 0.2181
10 4 1 -1.3236 0.1623
10 4 2 1.4175 0.1917
10 4 3 5.0709 0.0620
10 4 4 3.0270 -0.1319
10 4 5 -1.5987 -0.0330
10 4 6 -1.3077 0.0840
10 4 7 2.4765 0.0113
10 4 8 -0.4446 -0.0226
10 4 9 -2.2784 0.0234
10 4 10 -0.3309 0.0303
10 4 11 0.2298 0.0127
10 4 12 2.3194 -0.0140
10 4 13 0.3075 -0.0372
10 4 14 -1.5014 0.0129
10 4 15 1.0327 0.0198
10 4 16 0.1105 -0.0285
10 4 17 -1.1078 0.0411
10 4 18 0.0625 0.0404
10 4 19 1.2430 -0.0408
10 4 20 0.4540 0.0725
10 4 21 -0.3787 0.0990
10 5 0 4.1254 -0.0632
10 5 1 -0.7350 0.2773
10 5 2 0.2539 0.2141
10 5 3 2.7465 -0.1076
10 5 4 2.7430 -0.1008
10 5 5 0.7429 0.0877
10 5 6 1.7752 0.0456
10 5 7 2.2639 -0.0083
10 5 8 -2.0389 0.0485
10 5 9 -1.3781 0.0130
10 5 10 -0.0110 -0.0287
10 5 11 -0.9814 0.0073
10 5 12 -0.7862 -0.0200
10 5 13 -2.5050 -0.0264
10 5 14 -0.1269 0.0607
10 5 15 3.2508 0.0241
10 5 16 -0.0964 -0.0301
10 5 17 -3.2148 0.0510
10 5 18 1.0711 -0.0172
10 5 19 7.0784 -0.0945
10 5 20 3.6191 0.0875
10 6 0 2.7691 -0.2614
10 6 1 -0.5370 0.0312
10 6 2 0.6274 -0.0231
10 6 3 1.4616 -0.1281
10 6 4 1.9479 0.0440
10 6 5 0.0121 0.1008
10 6 6 0.4706 -0.0148
10 6 7 2.5478 0.0123
10 6 8 2.3403 0.0382
10 6 9 0.6468 -0.0619
10 6 10 -3.4331 -0.0538
10 6 11 -2.2524 0.0304
10 6 13 -3.8754 -0.0053
10 6 14 -1.9135 0.0514
10 6 15 1.6683 -0.0124
10 6 16 -0.9079 -0.0594
10 6 17 -1.6043 0.0305
10 6 18 5.2271 -0.0084
10 6 19 6.4173 -0.0787
10 6 20 -1.9398 0.0388
10 7 0 3.1046 -0.1583
10 7 1 3.3519 -0.2157
10 7 2 1.8806 -0.2095
10 7 3 -1.0060 0.0208
10 7 4 -1.8853 0.1471
10 7 5 -2.4407 -0.0078
10 7 6 0.6833 -0.0762
10 7 7 2.9983 0.0087
10 7 8 1.7333 0.0136
10 7 9 -1.3702 -0.0307
10 7 10 -2.6774 -0.0300
10 7 11 1.7580 0.0117
10 7 12 -0.1008 0.0485
10 7 13 -6.7537 0.0029
10 7 14 -3.6736 -0.0510
10 7 15 2.3707 -0.0395
10 7 16 0.1706 0.0020
10 7 17 -2.6983 0.0477
10 7 18 2.3645 0.0126
10 7 19 3.6727 -0.0591
10 8 0 2.1726 0.0952
10 8 1 4.7761 -0.1570
10 8 2 1.7351 -0.0976
10 8 3 -2.6798 0.1201
10 8 4 -1.8632 0.0227
10 8 5 -0.8329 -0.1014
10 8 6 -2.1708 -0.0168
10 8 7 -2.3462 -0.0071
10 8 8 2.1150 -0.0279
10 8 9 1.3533 0.0548
10 8 10 -2.7695 0.0357
10 8 11 -0.0901 -0.0212
10 8 12 -0.2022 0.0030
10 8 13 -4.3541 -0.0390
10 8 14 -2.9224 -0.0292
10 8 15 1.1225 0.0385
10 8 16 -0.4898 -0.0254
10 8 17 -1.3222 -0.0187
10 8 18 3.1890 0.0857
10 9 0 -0.1316 0.2317
10 9 1 1.1804 0.0914
10 9 2 -0.3655 0.0915
10 9 3 -0.0471 0.0221
10 9 4 1.3449 -0.1470
10 9 5 -0.9038 -0.0501
10 9 6 -3.6661 0.0862
10 9 7 -1.1406 -0.0103
10 9 8 3.1026 -0.0302
10 9 9 -1.0931 0.0701
10 9 10 -4.3334 0.0087
10 9 11 -0.9629 -0.0483
10 9 12 -0.9138 0.0049
10 9 13 -2.1524 -0.0227
10 9 14 0.5402 -0.0088
10 9 15 2.4151 0.0377
10 9 16 -1.4268 -0.0378
10 9 17 -1.7499 -0.0259
10 10 0 -2.2413 0.0505
10 10 1 -0.4070 0.1070
10 10 2 -0.2513 0.1210
10 10 3 -0.9032 -0.0605
10 10 4 0.0362 -0.0948
10 10 5 2.3885 0.0752
10 10 6 1.4105 0.0638
10 10 7 -1.3210 -0.0484
10 10 8 -1.8319 -0.0146
10 10 9 -1.9718 0.0393
10 10 10 -0.3976 -0.0043
10 10 11 -0.0356 -0.0177
10 10 12 -0.7412 -0.0110
10 10 13 0.3694 -0.0463
10 10 14 0.5163 0.0092
10 10 15 -0.9052 0.0775
10 10 16 -1.8213 -0.0135
10 11 0 -2.7727 -0.1736
10 11 1 -1.5784 -0.0010
10 11 2 -0.9961 0.0187
10 11 3 0.2085 -0.0624
10 11 4 0.7588 0.0501
10 11 5 -0.0328 0.0679
10 11 6 -1.6032 -0.0371
10 11 7 -0.9941 0.0231
10 11 8 0.9474 0.0378
10 11 9 2.4247 -0.0667
10 11 10 2.6681 -0.0404
10 11 11 -1.1653 0.0627
10 11 12 -3.4566 0.0522
10 11 13 -1.6365 -0.0447
10 11 14 1.3765 -0.0715
10 11 15 3.2005 0.0280
10 12 0 -0.7158 -0.1742
10 12 1 0.4122 -0.0877
10 12 2 -0.0342 -0.0948
10 12 3 -2.1428 -0.0105
10 12 4 -4.3742 0.1297
10 12 5 -1.3990 -0.0005
10 12 6 3.1216 -0.0909
10 12 7 2.5123 0.0317
10 12 8 -0.6457 0.0230
10 12 9 0.4427 -0.0145
10 12 10 1.2349 0.0564
10 12 11 -2.3098 0.0442
10 12 12 -1.6551 -0.0182
10 12 13 2.6870 -0.0503
10 12 14 3.7684 -0.0541
10 13 0 -0.6736 0.0618
10 13 1 -1.4151 0.0042
10 13 2 -1.5365 -0.1102
10 13 3 -0.7281 -0.0163
10 13 4 -0.1980 0.0409
10 13 5 0.9695 -0.0720
10 13 6 0.3507 -0.0297
10 13 7 -1.1950 0.0672
10 13 8 -0.6266 0.0163
10 13 9 0.9845 0.0105
10 13 10 -0.0609 0.0368
10 13 11 -0.5104 0.0220
10 13 12 2.2246 0.0363
10 14 0 -2.0527 0.2109
10 14 1 -2.8614 0.0634
10 14 2 0.1895 -0.0320
10 14 3 0.7631 -0.0164
10 14 4 -0.9065 -0.0709
10 14 5 -0.9285 -0.0527
10 14 6 -0.5528 0.0328
10 14 7 1.1241 -0.0387
10 14 8 1.7954 -0.0302
10 14 9 -0.3245 0.1354
10 14 10 -1.0590 0.1127
10 15 0 -1.6560 0.1241
10 15 1 0.5282 0.0503
10 15 2 0.4929 0.0513
10 15 3 -4.3669 0.0109
10 15 4 -3.6713 -0.0947
10 15 5 0.9340 -0.0711
10 15 6 2.0358 -0.0143
10 15 7 3.1876 -0.0092
10 15 8 1.6763 0.1008
10 16 0 1.3810 -0.1251
10 16 1 -1.1864 -0.0360
10 16 2 -3.1201 0.1364
10 16 3 -5.6074 0.0977
10 16 4 -0.6440 -0.0399
10 16 5 3.1194 -0.0494
10 17 0 -2.4545 -0.2213
10 17 1 -0.1369 0.0427
11 -20 0 -1.2364 -0.2283
11 -20 1 -1.6636 0.1473
11 -20 2 0.2870 0.0231
11 -20 3 3.7193 -0.1229
11 -19 0 1.6819 0.0019
11 -19 1 -1.3391 -0.0597
11 -19 2 -1.1212 -0.1075
11 -19 3 2.4676 -0.0739
11 -19 4 0.8423 -0.1024
11 -19 5 0.3132 0.0725
11 -19 6 3.6977 0.1160
11 -19 7 2.1925 -0.0649
11 -18 0 1.3614 0.0852
11 -18 1 -3.6733 -0.1582
11 -18 2 -1.0341 -0.0097
11 -18 3 5.6196 0.0160
11 -18 4 2.8186 -0.1554
11 -18 5 0.0030 0.0378
11 -18 6 1.8795 0.1498
11 -18 7 -0.6075 -0.0347
11 -18 8 -2.3282 -0.1442
11 -18 9 1.7564 -0.0695
11 -17 0 -0.4718 0.1305
11 -17 1 -4.7418 -0.1469
11 -17 2 2.2283 0.0780
11 -17 3 9.1574 0.0913
11 -17 4 1.3186 -0.0884
11 -17 5 -5.2511 0.0103
11 -17 6 -1.3199 0.0813
11 -17 7 2.4673 0.0030
11 -17 8 3.3708 -0.1138
11 -17 9 1.7378 -0.0567
11 -17 10 -1.6663 0.1129
11 -17 11 0.0060 0.0241
11 -16 0 -0.4649 -0.0370
11 -16 1 -1.4113 -0.0317
11 -16 2 2.7282 0.1305
11 -16 3 3.0345 0.0699
11 -16 4 -3.6635 0.0204
11 -16 5 -1.5552 0.0206
11 -16 6 5.3359 -0.0223
11 -16 7 1.7317 0.0046
11 -16 8 -4.6093 -0.0462
11 -16 9 -4.0638 -0.0012
11 -16 10 1.4746 0.1182
11 -16 11 6.5611 -0.0278
11 -16 12 1.6469 -0.0799
11 -16 13 -4.0013 0.1011
11 -15 0 -1.1770 -0.0745
11 -15 1 -4.0221 0.1175
11 -15 2 -0.0381 -0.0011
11 -15 3 3.1204 -0.0726
11 -15 4 0.5749 0.1079
11 -15 5 -0.7450 0.0438
11 -15 6 -2.8631 -0.1122
11 -15 7 -5.7413 -0.0048
11 -15 8 -1.5810 0.0495
11 -15 9 2.3999 0.0323
11 -15 10 2.2014 0.0295
11 -15 11 1.8369 -0.0575
11 -15 12 -3.2323 -0.0291
11 -15 13 -3.5894 0.1187
11 -15 14 3.6744 0.0482
11 -14 0 -2.1240 0.0479
11 -14 1 -1.0324 0.0711
11 -14 2 2.3776 -0.2044
11 -14 3 0.2584 -0.1559
11 -14 4 -5.3113 0.1177
11 -14 5 -4.2421 0.0436
11 -14 6 0.0865 -0.0962
11 -14 7 0.0560 -0.0154
11 -14 8 -1.8164 0.0254
11 -14 9 -4.0717 0.0062
11 -14 10 -1.7084 0.0214
11 -14 11 2.0977 -0.0181
11 -14 12 -1.0861 -0.0461
11 -14 13 -1.2106 0.0642
11 -14 14 1.8181 0.0795
11 -14 15 1.8358 -0.0716
11 -14 16 2.6164 -0.1218
11 -13 0 -0.2822 0.1412
11 -13 1 -1.2877 -0.0790
11 -13 2 -1.1456 -0.1937
11 -13 3 -0.0439 -0.0572
11 -13 4 0.5391 0.0359
11 -13 5 0.5490 -0.0031
11 -13 6 -2.1429 -0.0089
11 -13 7 -4.9423 -0.0137
11 -13 8 -2.2942 -0.0401
11 -13 9 0.2448 -0.0340
11 -13 10 0.5082 0.0188
11 -13 11 -1.7034 0.0325
11 -13 12 -3.5537 -0.0254
11 -13 13 0.2654 -0.0116
11 -13 14 2.5925 0.0321
11 -13 15 3.3166 0.0146
11 -13 16 2.2504 -0.0351
11 -13 17 -1.8257 -0.0994
11 -12 0 1.3151 0.0543
11 -12 1 0.3942 -0.0789
11 -12 2 0.0281 0.0818
11 -12 3 2.9275 0.0856
11 -12 4 3.0179 -0.0777
11 -12 5 -0.0565 -0.0321
11 -12 6 -1.8935 0.0625
11 -12 7 -1.3515 -0.0004
11 -12 8 -0.0047 -0.0431
11 -12 9 0.7433 -0.0380
11 -12 10 1.4458 -0.0038
11 -12 11 -1.9275 0.0308
11 -12 12 -2.4875 0.0006
11 -12 13 2.3933 0.0034
11 -12 14 2.0761 0.0267
11 -12 15 0.9472 -0.0124
11 -12 16 0.0007 -0.0339
11 -11 0 2.7567 -0.1457
11 -11 1 0.6668 0.0624
11 -11 2 -0.7353 0.3090
11 -11 3 2.6456 0.0958
11 -11 4 4.1672 -0.1164
11 -11 5 1.8732 0.0217
11 -11 6 0.1900 0.0804
11 -11 7 0.6108 -0.0290
11 -11 8 0.6095 -0.0245
11 -11 9 2.1965 0.0210
11 -11 10 4.2536 0.0132
11 -11 11 0.2933 0.0060
11 -11 12 -0.8139 0.0254
11 -11 13 1.0244 0.0283
11 -11 14 1.1852 -0.0321
11 -11 15 5.0332 -0.0465
11 -11 16 2.4263 0.0804
11 -11 17 -2.6674 0.1267
11 -11 18 0.5022 -0.0858
11 -10 0 -0.0759 -0.2485
11 -10 1 1.0095 0.1150
11 -10 2 -0.2268 0.2166
11 -10 3 1.6674 -0.0024
11 -10 4 3.1094 -0.0499
11 -10 5 0.6998 0.0396
11 -10 6 0.2738 0.0134
11 -10 7 2.0756 -0.0034
11 -10 8 -0.2961 0.0402
11 -10 9 1.0551 0.0394
11 -10 10 5.7385 0.0067
11 -10 11 2.8351 -0.0265
11 -10 12 0.8768 -0.0054
11 -10 13 1.3716 0.0615
11 -10 14 2.6907 0.0561
11 -10 15 5.2245 -0.0396
11 -10 16 0.0449 -0.0274
11 -10 17 -1.5845 0.1203
11 -10 18 3.3742 0.1020
11 -10 19 0.4382 -0.0294
11 -9 0 0.3806 -0.0402
11 -9 1 -0.0237 -0.0787
11 -9 2 -1.8714 -0.1949
11 -9 3 0.3628 -0.0491
11 -9 4 1.8357 0.1186
11 -9 5 -1.3553 0.0024
11 -9 6 -1.0857 -0.0683
11 -9 7 1.6256 0.0321
11 -9 8 -1.2824 0.0264
11 -9 9 -1.3626 -0.0058
11 -9 10 1.0138 0.0257
11 -9 11 1.5679 -0.0141
11 -9 12 5.3167 -0.0266
11 -9 13 2.9448 0.0505
11 -9 14 -0.8038 0.0635
11 -9 15 2.9788 -0.0304
11 -9 16 3.0173 -0.0444
11 -9 17 0.8125 0.0983
11 -9 18 -0.8824 0.1394
11 -9 19 -2.3616 0.0220
11 -8 0 -2.0574 0.2214
11 -8 1 -1.3072 -0.2276
11 -8 2 -1.5123 -0.3755
11 -8 3 1.4319 0.0143
11 -8 4 2.3584 0.1720
11 -8 5 -1.0596 -0.0573
11 -8 6 -1.2787 -0.0892
11 -8 7 -1.3982 0.0461
11 -8 8 -5.0159 0.0031
11 -8 9 -3.1174 -0.0570
11 -8 10 -0.8164 -0.0162
11 -8 11 0.0294 0.0273
11 -8 12 4.0463 0.0441
11 -8 13 1.9780 -0.0059
11 -8 14 -0.2529 -0.0152
11 -8 15 1.4607 0.0258
11 -8 16 -0.6151 -0.0430
11 -8 17 -1.1743 -0.0473
11 -8 18 -0.8091 0.0993
11 -8 19 -0.9168 0.1218
11 -8 20 0.9612 0.0946
11 -7 0 0.9951 0.2733
11 -7 1 -1.3528 -0.0237
11 -7 2 -1.1059 -0.1002
11 -7 3 3.0561 0.0472
11 -7 4 2.4692 0.0425
11 -7 5 -0.5548 -0.0419
11 -7 6 -0.2581 -0.0268
11 -7 7 -1.9133 -0.0018
11 -7 8 -4.2886 -0.0208
11 -7 9 -2.1080 -0.0131
11 -7 10 -2.9452 -0.0048
11 -7 11 -1.5520 0.0273
11 -7 12 4.2203 0.0521
11 -7 13 0.8558 -0.0330
11 -7 14 -3.1627 -0.0467
11 -7 15 -0.8531 0.0229
11 -7 16 0.6476 -0.0377
11 -7 17 0.1947 -0.0428
11 -7 18 -3.2422 0.0624
11 -7 19 -3.8224 0.0182
11 -7 20 0.2074 0.0169
11 -6 0 1.2025 0.0322
11 -6 1 -1.6595 0.3142
11 -6 2 -0.8728 0.3249
11 -6 3 2.2421 -0.0492
11 -6 4 1.8405 -0.1812
11 -6 5 1.2925 0.0493
11 -6 6 1.2910 0.0955
11 -6 7 -1.4697 -0.0427
11 -6 8 -1.5923 -0.0237
11 -6 9 0.9318 0.0560
11 -6 10 -2.7450 0.0042
11 -6 11 -3.3353 -0.0179
11 -6 12 1.2952 0.0274
11 -6 13 0.6585 -0.0046
11 -6 14 1.4528 -0.0190
11 -6 15 2.3675 0.0153
11 -6 16 -1.9624 0.0058
11 -6 17 -4.1251 -0.0033
11 -6 18 -2.6059 -0.0440
11 -6 19 -0.0304 -0.1020
11 -6 20 0.1058 0.0017
11 -6 21 -2.0290 0.1093
11 -5 0 1.5379 -0.2483
11 -5 1 -3.7154 0.2822
11 -5 2 -1.9483 0.3203
11 -5 3 2.5831 -0.1316
11 -5 4 1.6888 -0.1627
11 -5 5 0.0481 0.1080
11 -5 6 0.4943 0.0962
11 -5 7 0.0791 -0.0311
11 -5 8 0.2424 -0.0130
11 -5 9 -0.8386 0.0345
11 -5 10 -4.7801 0.0138
11 -5 11 -0.3531 -0.0205
11 -5 12 5.2431 -0.0328
11 -5 13 0.9972 0.0183
11 -5 14 -0.5779 0.0656
11 -5 15 -0.1660 0.0075
11 -5 16 -2.2471 -0.0311
11 -5 17 0.0310 -0.0277
11 -5 18 2.7984 -0.0427
11 -5 19 0.0794 0.0179
11 -5 20 -3.9436 0.0426
11 -5 21 -2.4819 -0.0734
11 -4 0 0.4409 -0.3248
11 -4 1 -2.3727 -0.1700
11 -4 2 -1.1740 -0.0475
11 -4 3 -0.2517 0.0006
11 -4 4 -0.7638 0.0709
11 -4 5 -0.3461 0.0136
11 -4 6 -0.3594 -0.0383
11 -4 7 -2.3125 0.0072
11 -4 8 -1.0111 -0.0001
11 -4 9 0.9224 -0.0196
11 -4 10 -2.0139 0.0156
11 -4 11 -1.0322 -0.0065
11 -4 12 0.1019 -0.0553
11 -4 13 -1.3140 0.0149
11 -4 14 2.0269 0.0351
11 -4 15 0.7989 -0.0337
11 -4 16 -2.8041 0.0150
11 -4 17 0.8333 0.0217
11 -4 18 2.5639 -0.0148
11 -4 19 -1.1870 0.0624
11 -4 20 -1.9880 -0.0229
11 -4 21 1.1387 -0.1625
11 -3 0 0.8444 -0.0630
11 -3 1 -3.7193 -0.4031
11 -3 2 -3.5591 -0.3017
11 -3 3 -0.0155 0.1454
11 -3 4 0.9038 0.1857
11 -3 5 -1.6505 -0.1246
11 -3 6 -2.3844 -0.1124
11 -3 7 -1.4351 0.0520
11 -3 8 0.8970 0.0045
11 -3 9 -0.9266 -0.0609
11 -3 10 -5.1925 -0.0081
11 -3 11 -0.8383 0.0096
11 -3 12 0.7186 -0.0253
11 -3 13 -1.8808 -0.0073
11 -3 14 1.1606 -0.0224
11 -3 15 -0.1505 -0.0056
11 -3 16 -3.5761 0.0645
11 -3 17 -1.2173 -0.0323
11 -3 18 1.2355 -0.0628
11 -3 19 0.4424 0.0762
11 -3 20 -1.2762 0.0124
11 -3 21 -0.9838 -0.0666
11 -2 0 -2.3098 0.2987
11 -2 1 -1.5648 -0.1595
11 -2 2 0.3650 -0.1952
11 -2 3 0.8930 0.1240
11 -2 4 -1.3172 0.0723
11 -2 5 -2.3826 -0.1191
11 -2 6 -0.0636 -0.0559
11 -2 7 -0.6693 0.0058
11 -2 8 -0.6636 0.0013
11 -2 9 -0.9623 0.0058
11 -2 10 -1.5192 -0.0101
11 -2 11 0.6155 -0.0188
11 -2 12 -2.3872 0.0030
11 -2 13 -1.8298 0.0155
11 -2 14 2.8134 -0.0278
11 -2 15 -1.3683 -0.0232
11 -2 16 -3.7351 -0.0034
11 -2 17 0.1799 -0.0336
11 -2 18 0.8454 0.0340
11 -2 19 -2.1670 0.0614
11 -2 20 -3.2869 -0.0343
11 -2 21 -0.9695 0.0110
11 -1 0 -0.6846 0.3845
11 -1 1 0.5224 0.2820
11 -1 2 0.0351 0.0911
11 -1 3 0.7333 -0.0746
11 -1 4 -1.1807 -0.1280
11 -1 5 -2.0334 0.0410
11 -1 6 0.2238 0.0851
11 -1 7 0.3731 -0.0455
11 -1 8 1.9737 -0.0142
11 -1 9 0.3178 0.0421
11 -1 10 -1.5705 0.0007
11 -1 11 0.7882 -0.0134
11 -1 12 -0.9220 0.0052
11 -1 13 -1.6674 0.0047
11 -1 14 0.3577 -0.0223
11 -1 15 2.7640 -0.0233
11 -1 16 3.9203 -0.0148
11 -1 17 -2.0303 0.0295
11 -1 18 -5.1958 0.0635
11 -1 19 -0.8206 -0.0299
11 -1 20 0.6517 -0.0408
11 -1 21 -2.0179 0.0608
11 0 0 -2.2636 0.0437
11 0 1 0.3943 0.3403
11 0 2 1.3152 0.2308
11 0 3 1.4154 -0.1614
11 0 4 -2.9302 -0.1428
11 0 5 -1.2373 0.1698
11 0 6 3.7538 0.1086
11 0 7 1.8760 -0.0647
11 0 8 -0.3540 0.0054
11 0 9 -1.3778 0.0341
11 0 10 0.5588 -0.0172
11 0 11 1.4494 -0.0292
11 0 12 -0.9359 0.0011
11 0 13 0.5070 0.0335
11 0 14 1.7547 0.0120
11 0 15 2.3499 -0.0226
11 0 16 1.6608 -0.0301
11 0 17 -0.9759 0.0270
11 0 18 0.3876 0.0294
11 0 19 0.2293 -0.0657
11 0 20 -2.1208 -0.0222
11 0 21 -1.2104 0.0681
11 1 0 1.0390 -0.3589
11 1 1 1.3876 0.0050
11 1 2 0.3394 0.1160
11 1 3 0.1474 -0.0374
11 1 4 -2.9322 0.0231
11 1 5 0.9062 0.1001
11 1 6 3.7563 -0.0031
11 1 7 -0.0530 0.0097
11 1 8 -0.9743 0.0201
11 1 9 0.4663 -0.0582
11 1 10 1.6395 -0.0112
11 1 11 0.5975 0.0280
11 1 12 0.6609 0.0200
11 1 13 -0.1090 0.0274
11 1 14 -2.8049 -0.0094
11 1 15 1.3880 -0.0318
11 1 16 4.0797 -0.0164
11 1 17 1.4087 0.0051
11 1 18 0.2649 -0.0212
11 1 19 -1.5940 -0.0416
11 1 20 -1.2812 0.0347
11 2 0 1.3084 -0.3629
11 2 1 1.2449 -0.2702
11 2 2 1.1050 -0.0492
11 2 3 0.0415 0.1194
11 2 4 -3.4704 0.0959
11 2 5 0.5239 -0.0958
11 2 6 3.4101 -0.0846
11 2 7 1.1905 0.0923
11 2 8 -0.1334 0.0092
11 2 9 0.6651 -0.0788
11 2 10 0.7934 0.0281
11 2 11 -1.2018 0.0360
11 2 12 0.1157 0.0137
11 2 13 0.4315 0.0032
11 2 14 -0.5687 -0.0418
11 2 15 0.0880 0.0036
11 2 16 -1.4535 0.0301
11 2 17 2.0833 -0.0272
11 2 18 4.5437 -0.0261
11 2 19 -2.5307 0.0359
11 2 20 -4.4257 0.0248
11 3 0 3.4641 0.0966
11 3 1 0.9492 -0.1610
11 3 2 1.7909 -0.1632
11 3 3 1.7303 0.0630
11 3 4 -1.0147 0.0510
11 3 5 0.4052 -0.1352
11 3 6 0.9471 -0.0746
11 3 7 0.8266 0.0640
11 3 8 1.5231 -0.0054
11 3 9 1.1190 -0.0125
11 3 10 -2.2062 0.0459
11 3 11 -2.1548 -0.0147
11 3 12 2.6573 -0.0414
11 3 13 0.9205 -0.0236
11 3 14 -1.3193 0.0148
11 3 15 -0.6760 0.0650
11 3 16 -1.3368 0.0081
11 3 17 1.7445 -0.0415
11 3 18 1.9750 0.0136
11 3 19 -1.1894 0.0561
11 3 20 -0.1304 0.0205
11 4 0 0.0691 0.4195
11 4 1 -1.2028 0.0897
11 4 2 4.4817 -0.1127
11 4 3 5.7460 -0.0775
11 4 4 1.1233 -0.0192
11 4 5 -1.8858 0.0220
11 4 6 -0.9587 0.0104
11 4 7 2.3637 -0.0484
11 4 8 3.2287 -0.0197
11 4 9 0.7265 0.0602
11 4 10 -3.6259 -0.0027
11 4 11 -2.0697 -0.0847
11 4 12 1.3587 -0.0245
11 4 13 -0.4254 0.0342
11 4 14 0.5226 0.0191
11 4 15 -0.4709 -0.0170
11 4 16 -2.6950 0.0030
11 4 17 1.5926 0.0464
11 4 18 3.3412 -0.0119
11 4 19 1.2231 -0.0055
11 5 0 0.3512 0.1661
11 5 1 -3.1780 0.1748
11 5 2 1.9534 0.1026
11 5 3 5.5930 -0.0837
11 5 4 3.4553 -0.0449
11 5 5 -0.5278 0.1396
11 5 6 -1.0292 0.0503
11 5 7 1.5399 -0.0738
11 5 8 4.5647 0.0158
11 5 9 2.6806 0.0280
11 5 11 -4.3476 -0.0271
11 5 12 -0.7376 0.0181
11 5 13 -1.2766 0.0162
11 5 14 0.6808 -0.0007
11 5 15 0.8636 -0.0496
11 5 16 -0.4558 0.0115
11 5 17 0.0104 0.0624
11 5 18 0.8009 -0.0851
11 6 0 -0.4808 -0.2818
11 6 1 -4.0773 0.0153
11 6 2 0.5193 0.1819
11 6 3 4.3967 -0.0039
11 6 4 1.8339 -0.0035
11 6 5 -2.6369 0.1385
11 6 6 -0.3407 0.0462
11 6 7 4.1555 -0.0401
11 6 8 5.0129 -0.0120
11 6 9 -0.8437 -0.0163
11 6 10 -6.1797 0.0345
11 6 11 -1.7203 0.0532
11 6 12 -0.5513 -0.0276
11 6 13 -2.8381 0.0101
11 6 14 0.5862 0.0276
11 6 15 1.0915 -0.0942
11 6 16 -2.3808 -0.0099
11 6 17 -1.1815 0.0915
11 6 18 3.4048 -0.0864
11 7 0 2.3726 -0.3592
11 7 1 -0.8832 -0.1620
11 7 2 -1.2058 0.0798
11 7 3 -0.5992 0.1030
11 7 4 -2.1990 0.0100
11 7 5 -1.7580 -0.0730
11 7 6 2.0412 -0.0343
11 7 7 1.7816 0.0795
11 7 8 0.3644 0.0220
11 7 9 -1.9434 -0.0546
11 7 10 -1.9413 0.0548
11 7 11 1.8711 0.0847
11 7 12 -1.9479 -0.0199
11 7 13 -6.6213 -0.0194
11 7 14 -1.2596 -0.0125
11 7 15 3.9448 -0.0672
11 7 16 0.1218 0.0374
11 7 17 -2.7412 0.1025
11 8 0 3.7120 0.0878
11 8 1 1.3322 -0.1285
11 8 2 -1.9641 -0.1619
11 8 3 -2.0588 0.0342
11 8 4 -1.3183 0.0216
11 8 5 -0.8477 -0.1389
11 8 6 -0.9119 -0.0710
11 8 7 -0.3569 0.0539
11 8 8 1.8781 -0.0043
11 8 9 -1.6889 -0.0068
11 8 10 -3.6757 0.0671
11 8 11 0.3315 0.0150
11 8 12 -1.1697 -0.0732
11 8 13 -3.7614 -0.0310
11 8 14 1.4985 0.0394
11 8 15 4.1114 -0.0192
11 8 16 -2.9543 -0.0231
11 9 0 0.5270 0.4304
11 9 1 0.2862 0.0279
11 9 2 -0.4901 -0.2006
11 9 3 1.2944 -0.0575
11 9 4 1.5961 -0.0121
11 9 5 0.0702 -0.0526
11 9 6 -2.2613 0.0018
11 9 7 -1.5818 0.0048
11 9 8 0.5072 -0.0300
11 9 9 -3.0210 -0.0258
11 9 10 -3.6938 -0.0581
11 9 11 1.2849 -0.0148
11 9 12 2.4499 0.0420
11 9 13 -0.4539 -0.0058
11 9 14 -0.1316 -0.0223
11 9 15 1.1426 -0.0497
11 10 0 -0.3895 0.1895
11 10 1 1.9736 0.0906
11 10 2 0.0913 -0.0125
11 10 3 -0.4951 -0.0502
11 10 4 2.2424 0.0532
11 10 5 3.1055 0.1502
11 10 6 -2.6404 -0.0018
11 10 7 -4.8432 -0.1636
11 10 8 -0.8315 -0.0343
11 10 9 0.8824 0.0582
11 10 10 0.5095 -0.0337
11 10 11 -0.3700 0.0052
11 10 12 -0.8439 0.0081
11 10 13 0.0325 -0.0744
11 10 14 2.3961 0.0195
11 11 0 0.5696 -0.2752
11 11 1 0.5375 0.0589
11 11 2 -3.1985 0.2460
11 11 3 -2.1295 0.0313
11 11 4 2.7442 -0.0364
11 11 5 2.5149 0.0721
11 11 6 -3.2863 0.0319
11 11 7 -2.9917 -0.0118
11 11 8 1.9210 0.0472
11 11 9 2.5646 -0.0166
11 11 10 -1.9954 -0.0618
11 11 11 -5.1358 0.0649
11 11 12 -1.0436 0.0320
11 12 0 1.8766 -0.4007
11 12 1 -1.6913 -0.0564
11 12 2 -4.2029 0.1675
11 12 3 -1.9786 0.0011
11 12 4 1.5994 -0.0584
11 12 5 2.2795 0.0303
11 12 6 0.3191 0.0534
11 12 7 -0.4667 0.0396
11 12 8 -1.2326 0.0214
11 12 9 -1.7298 -0.0069
11 12 10 -1.6997 0.0409
11 12 11 -0.6965 0.0711
11 13 0 0.1216 -0.0673
11 13 1 -0.3813 -0.1632
11 13 2 0.2323 -0.0872
11 13 3 0.5680 0.0292
11 13 4 -0.0573 -0.0238
11 13 5 -0.4861 -0.0967
11 13 6 -0.1509 0.0143
11 13 7 0.9651 0.0902
11 13 8 1.2036 0.0227
11 13 9 0.2151 0.0073
11 14 0 2.8986 0.2411
11 14 1 -0.1723 -0.1495
11 14 2 -0.6325 -0.1646
11 14 3 -0.4482 0.0521
11 14 4 -0.8192 -0.0434
11 14 5 -0.4399 -0.1223
11 14 6 1.7759 0.0127
11 14 7 4.1919 0.0424
11 15 0 0.5671 0.2444
11 15 1 -0.7285 -0.0819
11 15 2 0.0215 -0.0514
11 15 3 -0.5522 0.0932
11 15 4 -0.6134 -0.0710
11 16 0 1.1883 -0.0188
12 -19 0 2.5854 0.2142
12 -19 1 0.2526 0.0315
12 -19 2 -0.3379 -0.2032
12 -19 3 1.3931 -0.1210
12 -18 0 0.3628 0.2300
12 -18 1 1.4402 -0.0756
12 -18 2 4.8787 -0.1732
12 -18 3 4.0404 -0.0266
12 -18 4 -1.4221 0.0814
12 -18 5 -1.1605 0.0920
12 -18 6 1.2698 -0.0356
12 -17 0 1.6896 0.0941
12 -17 1 1.8337 0.0245
12 -17 2 5.1793 0.0732
12 -17 3 3.0762 -0.0039
12 -17 4 -3.6743 -0.0482
12 -17 5 -1.6808 0.0193
12 -17 6 3.4570 0.0183
12 -17 7 2.6510 -0.0310
12 -17 8 0.2880 -0.0708
12 -17 9 -0.9337 0.0294
12 -16 0 0.1292 -0.0726
12 -16 1 -0.0679 0.1875
12 -16 2 5.3147 0.2577
12 -16 3 1.7454 -0.0900
12 -16 4 -5.6067 -0.1792
12 -16 5 -0.1107 0.0256
12 -16 6 5.1364 0.1112
12 -16 7 0.0111 -0.0010
12 -16 8 -3.4447 -0.0958
12 -16 9 -1.9324 0.0423
12 -16 10 1.2045 0.0880
12 -15 0 -0.3889 -0.1716
12 -15 1 -1.8950 0.1090
12 -15 2 2.9725 0.1635
12 -15 3 0.5981 -0.0622
12 -15 4 -4.0287 -0.0768
12 -15 5 -0.7702 -0.0045
12 -15 6 -0.4316 0.0505
12 -15 7 -2.7203 0.0518
12 -15 8 -0.0114 -0.0543
12 -15 9 0.6575 -0.0426
12 -15 10 0.0959 0.0389
12 -15 11 -0.3102 0.0041
12 -15 12 -3.3932 -0.0004
12 -14 0 -1.9719 -0.1253
12 -14 1 -2.6305 -0.1407
12 -14 2 2.2657 -0.0972
12 -14 3 -0.9735 0.0749
12 -14 4 -6.0266 0.1230
12 -14 5 -1.9832 -0.1036
12 -14 6 0.9806 -0.0973
12 -14 7 0.0482 0.0861
12 -14 8 -0.7831 0.0219
12 -14 9 -3.9439 -0.0280
12 -14 10 -3.3397 0.0562
12 -14 11 -0.2237 -0.0398
12 -14 12 0.0007 -0.0767
12 -14 13 1.1306 0.0978
12 -13 0 -0.5696 0.1134
12 -13 1 -0.8675 -0.2458
12 -13 2 0.6116 -0.3170
12 -13 3 -0.8502 0.0999
12 -13 4 -2.4328 0.2214
12 -13 5 -0.9614 -0.1150
12 -13 6 -1.5193 -0.1532
12 -13 7 -1.2725 0.0888
12 -13 8 -0.2121 0.0519
12 -13 9 -2.8790 -0.0690
12 -13 10 -2.5416 0.0201
12 -13 11 -0.1509 0.0267
12 -13 12 -0.2679 -0.0124
12 -13 13 -0.8716 0.0675
12 -13 14 0.3985 0.0088
12 -12 0 2.7866 0.2544
12 -12 1 -1.5714 -0.0753
12 -12 2 -0.7516 -0.2098
12 -12 3 2.8205 0.0410
12 -12 4 0.8646 0.1243
12 -12 5 -2.4504 -0.0543
12 -12 6 -2.5515 -0.0922
12 -12 7 0.5273 0.0180
12 -12 8 2.3872 -0.0035
12 -12 9 0.7711 -0.0337
12 -12 10 -2.0149 0.0730
12 -12 11 -3.9352 0.0333
12 -12 12 -0.3304 -0.0650
12 -12 13 2.9441 0.0625
12 -12 14 2.0651 0.1291
12 -12 15 2.1085 -0.0375
12 -11 0 2.1529 0.1727
12 -11 1 -0.7887 0.2828
12 -11 2 1.2450 0.1083
12 -11 3 3.7820 -0.1375
12 -11 4 -0.0668 -0.0829
12 -11 5 -2.3598 0.1011
12 -11 6 0.6050 0.0292
12 -11 7 2.9932 -0.0759
12 -11 8 1.9433 -0.0092
12 -11 9 1.1687 0.0307
12 -11 10 -0.4472 0.0241
12 -11 11 -1.9871 0.0272
12 -11 12 1.4561 0.0008
12 -11 13 2.2919 0.0055
12 -11 14 2.1892 0.0655
12 -11 15 4.4535 0.0699
12 -11 16 1.1329 0.0359
12 -10 0 2.2271 -0.1318
12 -10 1 1.1285 0.3299
12 -10 2 0.6855 0.2640
12 -10 3 0.8831 -0.1796
12 -10 4 -0.6021 -0.1326
12 -10 5 0.3687 0.1591
12 -10 6 2.3971 0.0736
12 -10 7 -0.3936 -0.0530
12 -10 8 -2.1153 0.0250
12 -10 9 4.2515 0.0216
12 -10 10 4.9461 -0.0216
12 -10 11 -2.0348 0.0106
12 -10 12 -1.7478 -0.0046
12 -10 13 2.4773 0.0239
12 -10 14 5.7869 0.1252
12 -10 15 4.6401 0.0485
12 -10 16 -1.1585 -0.0225
12 -10 17 -0.7259 0.1197
12 -9 0 -0.5702 -0.4192
12 -9 1 -0.5239 -0.0535
12 -9 2 1.3006 0.1611
12 -9 3 1.2524 0.0204
12 -9 4 -1.7554 -0.0246
12 -9 5 -2.3592 0.0422
12 -9 6 0.8446 0.0223
12 -9 7 0.6825 0.0031
12 -9 8 -1.5914 0.0208
12 -9 9 0.3939 0.0118
12 -9 10 0.1904 -0.0025
12 -9 11 0.5066 0.0019
12 -9 12 4.0805 0.0135
12 -9 13 1.9436 0.0457
12 -9 14 0.6241 0.0445
12 -9 15 1.9430 -0.0493
12 -9 16 0.5725 0.0013
12 -9 17 0.5401 0.2337
12 -8 0 -2.6671 -0.2905
12 -8 1 3.0660 -0.3727
12 -8 2 3.5806 -0.0673
12 -8 3 -1.0698 0.2121
12 -8 4 -3.2254 0.0771
12 -8 5 -0.7104 -0.1586
12 -8 6 1.2739 -0.0614
12 -8 7 -2.6637 0.0873
12 -8 8 -5.1908 0.0025
12 -8 9 -0.4908 -0.0350
12 -8 10 1.9443 0.0517
12 -8 11 2.6697 0.0574
12 -8 12 2.6801 -0.0216
12 -8 13 -1.1385 -0.0379
12 -8 14 -0.6858 0.0349
12 -8 15 0.9003 -0.0164
12 -8 16 -0.1738 -0.0994
12 -8 17 0.5949 0.1151
12 -8 18 -0.1320 0.2912
12 -7 0 1.8812 0.2417
12 -7 1 2.9638 -0.2614
12 -7 2 0.2927 -0.2231
12 -7 3 -1.1798 0.1703
12 -7 4 0.3501 0.0729
12 -7 5 0.0753 -0.2083
12 -7 6 -1.8294 -0.0654
12 -7 7 -2.5161 0.0961
12 -7 8 -0.7896 -0.0119
12 -7 9 -0.0751 -0.0323
12 -7 10 -2.2562 0.0354
12 -7 11 0.7942 0.0419
12 -7 12 3.7276 0.0088
12 -7 13 0.0076 -0.0405
12 -7 14 -0.5513 -0.0076
12 -7 15 0.6058 -0.0090
12 -7 16 -0.1633 -0.0889
12 -7 17 -0.7362 0.0135
12 -7 18 -2.2941 0.1245
12 -6 0 1.3229 0.5593
12 -6 1 2.5631 0.1440
12 -6 2 0.7019 -0.1728
12 -6 3 -1.2448 -0.0858
12 -6 4 -0.5449 0.0269
12 -6 5 0.8392 0.0101
12 -6 6 1.3831 -0.0065
12 -6 7 -0.3899 -0.0179
12 -6 8 -2.1336 -0.0065
12 -6 9 -2.2132 0.0028
12 -6 10 -2.2063 -0.0380
12 -6 11 1.3022 0.0347
12 -6 12 3.5445 0.0856
12 -6 13 1.8209 -0.0455
12 -6 14 1.6218 -0.0605
12 -6 15 -0.7325 0.0385
12 -6 16 -2.9980 0.0028
12 -6 17 -0.4633 -0.0823
12 -6 18 1.4494 -0.0957
12 -6 19 -0.3128 -0.0209
12 -5 0 2.9043 0.2031
12 -5 1 2.1708 0.3543
12 -5 2 -1.1476 0.0642
12 -5 3 -1.6719 -0.1975
12 -5 4 0.1637 -0.0086
12 -5 5 0.6939 0.1805
12 -5 6 0.7563 0.0374
12 -5 7 -1.1525 -0.0881
12 -5 8 -3.1256 0.0111
12 -5 9 -2.0454 0.0306
12 -5 10 0.4149 -0.0650
12 -5 11 3.7168 -0.0028
12 -5 12 1.4862 0.0758
12 -5 13 -2.7624 0.0238
12 -5 14 -0.1636 -0.0327
12 -5 15 1.5426 -0.0125
12 -5 16 0.0977 0.0429
12 -5 17 0.6287 -0.0308
12 -5 18 0.8774 -0.1223
12 -5 19 -1.7542 -0.0243
12 -4 0 3.3542 -0.4232
12 -4 1 0.6521 0.1761
12 -4 2 -1.9620 0.2427
12 -4 3 -1.7353 -0.0824
12 -4 4 -1.7443 -0.0301
12 -4 5 -1.3867 0.1391
12 -4 6 0.9197 0.0379
12 -4 7 -1.1577 -0.0706
12 -4 8 -2.4150 -0.0098
12 -4 9 0.7043 0.0208
12 -4 10 0.4114 0.0062
12 -4 11 -1.7370 -0.0052
12 -4 12 -2.7022 -0.0163
12 -4 13 0.8784 0.0379
12 -4 14 4.5387 0.0117
12 -4 15 -0.6567 -0.0124
12 -4 16 -4.7424 0.0760
12 -4 17 -0.6756 -0.0107
12 -4 18 2.2776 -0.0927
12 -4 19 -0.7440 0.0214
12 -3 0 -0.4011 -0.5299
12 -3 1 -2.1057 -0.1396
12 -3 2 -0.8938 0.1420
12 -3 3 1.3870 0.0884
12 -3 4 -0.3314 -0.0466
12 -3 5 -2.6558 -0.0815
12 -3 6 -1.2490 0.0079
12 -3 7 -1.4077 0.0545
12 -3 8 -0.7903 -0.0280
12 -3 9 -0.8793 -0.0566
12 -3 10 -1.7221 0.0599
12 -3 11 1.0548 0.0258
12 -3 12 0.4796 -0.0783
12 -3 13 -0.4425 0.0173
12 -3 14 0.8069 0.0478
12 -3 15 -1.5450 0.0130
12 -3 16 -2.7354 0.0117
12 -3 17 -0.3799 -0.0644
12 -3 18 0.4628 0.0069
12 -3 19 -2.0440 0.1132
12 -2 0 0.0713 -0.0113
12 -2 1 1.9530 -0.2670
12 -2 2 1.7551 -0.1295
12 -2 3 0.8624 0.1199
12 -2 4 -2.3383 -0.0194
12 -2 5 -3.1548 -0.1845
12 -2 6 -0.6399 -0.0340
12 -2 7 -0.7898 0.0953
12 -2 8 0.0674 -0.0064
12 -2 9 0.4559 -0.0677
12 -2 10 0.6237 0.0348
12 -2 11 -0.4233 0.0051
12 -2 12 -3.5681 -0.0697
12 -2 13 1.3085 0.0006
12 -2 14 4.9672 0.0306
12 -2 15 -1.0880 0.0071
12 -2 16 -3.7742 -0.0451
12 -2 17 -0.1281 -0.0230
12 -2 18 1.0480 0.1061
12 -2 19 -2.7153 0.0504
12 -1 0 -0.1019 0.4960
12 -1 1 0.9311 -0.1241
12 -1 2 0.4091 -0.2635
12 -1 3 1.0964 0.0272
12 -1 4 -0.5080 0.0550
12 -1 5 -1.7503 -0.0455
12 -1 6 -1.4476 -0.0469
12 -1 7 0.5775 0.0061
12 -1 8 2.9288 0.0257
12 -1 9 -0.8352 -0.0138
12 -1 10 -1.7949 -0.0354
12 -1 11 0.2094 -0.0345
12 -1 12 -0.5085 -0.0012
12 -1 13 1.3830 -0.0012
12 -1 14 2.1248 -0.0199
12 -1 15 1.4684 -0.0119
12 -1 16 0.3149 -0.0322
12 -1 17 -2.4707 0.0584
12 -1 18 -1.8390 0.0794
12 -1 19 -0.2350 -0.0961
12 0 0 -1.5599 0.3175
12 0 1 2.4220 0.0934
12 0 2 2.2550 -0.0219
12 0 3 0.6828 -0.0214
12 0 4 -1.9615 0.0579
12 0 5 -0.7797 0.1140
12 0 6 0.8360 -0.0360
12 0 7 1.5084 -0.0738
12 0 8 0.0389 0.0604
12 0 9 -2.2985 0.0420
12 0 10 1.7312 -0.0623
12 0 11 2.1466 -0.0253
12 0 12 -0.8968 0.0543
12 0 13 0.7324 -0.0050
12 0 14 1.1559 -0.0317
12 0 15 0.3944 -0.0163
12 0 16 -1.5100 -0.0358
12 0 17 -1.7026 0.0565
12 0 18 1.9912 0.0212
12 1 0 0.5281 -0.2118
12 1 1 0.0485 0.2008
12 1 2 0.6039 0.2413
12 1 3 0.1131 -0.0614
12 1 4 -1.1329 -0.0246
12 1 5 0.9902 0.1483
12 1 6 0.3049 0.0291
12 1 7 -0.2320 -0.0603
12 1 8 0.0763 -0.0022
12 1 9 0.7952 0.0464
12 1 10 2.5276 0.0466
12 1 11 0.1595 0.0306
12 1 12 -0.1382 0.0204
12 1 13 -0.0797 -0.0158
12 1 14 -1.7882 -0.0126
12 1 15 1.4853 -0.0193
12 1 16 2.1898 -0.0134
12 1 17 -1.0528 0.0532
12 1 18 -1.9271 -0.0079
12 2 0 -1.0592 -0.4227
12 2 1 -0.7123 0.0763
12 2 2 2.5710 0.1871
12 2 3 0.2064 -0.0659
12 2 4 -1.9267 -0.0787
12 2 5 1.1430 0.0176
12 2 6 1.7727 0.0456
12 2 7 1.8382 0.0276
12 2 8 0.3286 -0.0511
12 2 9 -0.7783 0.0101
12 2 10 -1.0849 0.1012
12 2 11 -1.4152 0.0424
12 2 12 2.5445 -0.0186
12 2 13 2.8338 -0.0320
12 2 14 -0.5180 0.0040
12 2 15 -0.9468 0.0515
12 2 16 -0.6374 0.0488
12 2 17 0.6197 -0.0097
12 2 18 0.3847 -0.0512
12 3 0 1.6708 -0.1005
12 3 1 -0.2142 -0.1267
12 3 2 2.2085 -0.0947
12 3 3 0.2029 0.0062
12 3 4 0.2707 -0.0312
12 3 5 1.9828 -0.1558
12 3 6 1.4034 0.0028
12 3 7 2.3930 0.1081
12 3 8 0.8475 -0.0572
12 3 9 -1.8454 -0.0275
12 3 10 -2.7609 0.0672
12 3 11 -0.0414 -0.0330
12 3 12 3.1995 -0.0706
12 3 13 0.4823 0.0222
12 3 14 -1.9526 0.0882
12 3 15 -1.1107 0.0451
12 3 16 1.3177 -0.0342
12 3 17 2.7854 -0.0331
12 4 0 -2.2591 0.3357
12 4 1 0.1882 -0.1673
12 4 2 4.8667 -0.2611
12 4 3 2.4407 0.0533
12 4 4 0.6251 0.0724
12 4 5 -1.1074 -0.1014
12 4 6 -0.1193 -0.0113
12 4 7 5.4106 0.0404
12 4 8 5.6136 -0.0555
12 4 9 -0.8676 -0.0269
12 4 10 -6.1217 -0.0125
12 4 11 -3.5307 -0.0344
12 4 12 0.8095 0.0173
12 4 13 2.1078 0.0123
12 4 14 0.9798 -0.0249
12 4 15 -2.6369 0.0012
12 4 16 -0.9704 0.0244
12 4 17 2.6907 0.0042
12 5 0 -2.6813 0.2607
12 5 1 0.5400 -0.0223
12 5 2 3.5443 -0.0346
12 5 3 2.1549 0.1077
12 5 4 0.7133 0.0964
12 5 5 -2.6603 -0.0065
12 5 6 -0.1278 -0.0522
12 5 7 7.7839 -0.0164
12 5 8 6.6786 0.0455
12 5 9 -4.6684 0.0151
12 5 10 -8.8661 -0.0467
12 5 11 -0.7088 0.0091
12 5 12 3.1394 0.0344
12 5 13 0.8055 -0.0320
12 5 14 -1.7272 -0.0156
12 5 15 -2.6193 0.0231
12 5 16 0.8143 -0.0180
12 6 0 -2.7855 -0.1153
12 6 1 0.0742 0.1781
12 6 2 1.7597 0.2169
12 6 3 0.8429 -0.0306
12 6 4 -0.9607 -0.0080
12 6 5 -2.4674 0.1259
12 6 6 1.0159 0.0045
12 6 7 4.0372 -0.0587
12 6 8 1.3089 0.0472
12 6 9 -3.7047 0.0547
12 6 10 -2.9799 0.0075
12 6 11 -0.3761 0.0312
12 6 12 -2.0208 0.0410
12 6 13 -0.3832 0.0032
12 6 14 1.4418 -0.0476
12 6 15 -0.6942 -0.0449
12 7 0 0.0497 -0.3429
12 7 1 -0.6069 0.1711
12 7 2 -1.8060 0.2198
12 7 3 -1.2328 -0.1489
12 7 4 -0.6826 -0.1114
12 7 5 0.1432 0.0648
12 7 6 0.8683 0.0126
12 7 7 -0.2412 0.0094
12 7 8 -0.5120 0.0494
12 7 9 -2.0488 0.0202
12 7 10 -2.8452 0.0058
12 7 11 -1.9151 0.0122
12 7 12 -1.2268 0.0184
12 7 13 0.0129 0.0098
12 7 14 0.1537 -0.0425
12 8 0 0.2448 -0.1144
12 8 1 0.6978 -0.0486
12 8 2 -0.2163 -0.0802
12 8 3 -0.5110 -0.0966
12 8 4 -1.0936 -0.0343
12 8 5 1.9660 -0.0672
12 8 6 2.9655 -0.0115
12 8 7 -1.8787 0.0571
12 8 8 -4.5315 -0.0367
12 8 9 -2.9302 -0.0339
12 8 10 0.6388 0.0297
12 8 11 1.6347 -0.0248
12 8 12 -0.9644 -0.0324
12 8 13 -2.7021 0.0254
12 9 0 0.8872 0.2119
12 9 1 2.8353 -0.1354
12 9 2 1.6702 -0.1924
12 9 3 0.6681 0.0367
12 9 4 0.2445 0.0260
12 9 5 2.0426 -0.1005
12 9 6 -0.9645 0.0279
12 9 7 -4.7524 0.0280
12 9 8 -1.3977 -0.1180
12 9 9 1.9671 -0.0587
12 9 10 1.1086 0.0205
12 9 11 0.9316 0.0174
12 9 12 1.0964 0.0162
12 10 0 2.0264 0.2819
12 10 1 1.3442 -0.0357
12 10 2 -0.3677 -0.1120
12 10 3 0.1027 0.1600
12 10 4 1.1430 0.1631
12 10 5 0.4326 -0.0603
12 10 6 -3.7141 -0.1014
12 10 7 -3.2159 -0.0539
12 10 8 1.3426 0.0252
12 10 9 1.3141 0.0428
12 10 10 -1.0498 -0.0239
12 10 11 0.9154 0.0073
12 11 0 -0.5375 0.0208
12 11 1 -2.5912 0.1703
12 11 2 -2.2745 0.1594
12 11 3 1.7831 0.0133
12 11 4 4.2016 -0.0663
12 11 5 -0.2544 0.0356
12 11 6 -6.1082 0.0888
12 11 7 -3.3195 0.0140
12 11 8 1.3877 0.0022
12 11 9 -0.3328 -0.0400
12 12 0 0.3478 -0.2489
12 12 1 -3.6359 0.1486
12 12 2 -1.8575 0.1283
12 12 3 2.9806 -0.1246
12 12 4 4.3397 -0.0184
12 12 5 -0.6716 0.1479
12 12 6 -4.0570 -0.0053
12 12 7 -1.5538 -0.0804
12 12 8 -1.0407 0.0661
12 13 0 0.4769 -0.2704
12 13 1 -1.4060 -0.0494
12 13 2 0.4538 0.0935
12 13 3 2.0735 -0.0390
12 13 4 1.5507 -0.1034
12 13 5 -1.0037 -0.0236
12 14 0 1.8065 -0.0946
12 14 1 -2.3836 -0.1215
12 14 2 -0.8657 0.0082
13 -18 0 1.7833 0.1337
13 -18 1 4.6178 -0.1298
13 -18 2 2.7961 -0.0388
13 -17 0 4.9953 0.3593
13 -17 1 5.2745 -0.0226
13 -17 2 -0.0619 -0.1452
13 -17 3 -2.3733 0.0040
13 -17 4 0.3292 0.0048
13 -17 5 1.3564 -0.0857
13 -16 0 0.8804 0.2936
13 -16 1 2.6492 0.1146
13 -16 2 2.7150 -0.0834
13 -16 3 -0.3650 -0.1190
13 -16 4 -1.5947 -0.0094
13 -16 5 -0.4830 0.0467
13 -16 6 1.6155 0.0240
13 -16 7 1.3568 -0.0117
13 -15 0 0.1385 0.0016
13 -15 1 2.5610 0.3267
13 -15 2 1.8824 0.1277
13 -15 3 -1.2248 -0.2523
13 -15 4 -1.4641 -0.0953
13 -15 5 -1.4127 0.1789
13 -15 6 -0.0374 0.1031
13 -15 7 2.0909 -0.0658
13 -15 8 -0.8375 -0.1043
13 -15 9 -3.1398 -0.0494
13 -14 0 -2.5618 -0.3195
13 -14 1 -1.7335 0.1514
13 -14 2 1.5354 0.1907
13 -14 3 0.0536 -0.1397
13 -14 4 -1.8177 -0.0839
13 -14 5 -1.8078 0.1287
13 -14 6 0.9406 0.0964
13 -14 7 2.4578 -0.0294
13 -14 8 -2.7341 -0.0819
13 -14 9 -5.2520 -0.0078
13 -14 10 -1.0823 0.0829
13 -14 11 -0.3403 -0.0064
13 -13 0 -1.9740 -0.3679
13 -13 1 0.4804 -0.1698
13 -13 2 1.6374 0.0869
13 -13 3 -1.0681 0.0693
13 -13 4 -2.4276 -0.0389
13 -13 5 -2.0456 -0.0759
13 -13 6 0.9248 0.0430
13 -13 7 2.8711 0.1321
13 -13 8 -2.2347 -0.0465
13 -13 9 -5.1165 -0.1444
13 -13 10 -1.6009 0.0543
13 -13 11 -0.2747 0.1349
13 -13 12 0.3760 0.0501
13 -12 0 0.4761 0.0496
13 -12 1 -2.3823 -0.2836
13 -12 2 -0.1267 -0.1453
13 -12 3 0.8170 0.1272
13 -12 4 -1.5143 0.0300
13 -12 5 -1.9829 -0.1543
13 -12 6 1.8601 -0.0224
13 -12 7 2.8248 0.1214
13 -12 8 -1.9910 -0.0321
13 -12 9 -3.1774 -0.1013
13 -12 10 -1.5522 0.0588
13 -12 11 -1.4347 0.0719
13 -12 12 0.9268 0.0264
13 -12 13 1.2630 0.1078
13 -11 0 -1.3722 0.4139
13 -11 1 -0.2626 -0.1053
13 -11 2 2.9143 -0.2392
13 -11 3 1.0982 -0.0012
13 -11 4 -3.0026 0.0953
13 -11 5 -1.7767 -0.0076
13 -11 6 3.0851 -0.0761
13 -11 7 3.0006 0.0063
13 -11 8 -0.6402 0.0432
13 -11 9 -1.0880 -0.0436
13 -11 10 -2.8580 -0.0251
13 -11 11 -3.7146 0.0474
13 -11 12 1.7591 0.0128
13 -11 13 4.3859 0.0570
13 -11 14 2.7062 0.1685
13 -10 0 2.3370 0.2496
13 -10 1 1.9669 0.1843
13 -10 2 -0.4298 -0.0385
13 -10 3 -2.2241 -0.1216
13 -10 4 -1.2130 0.0608
13 -10 5 2.3178 0.1545
13 -10 6 3.4220 -0.0287
13 -10 7 -1.0984 -0.0689
13 -10 8 -2.0763 0.0346
13 -10 9 2.6957 -0.0155
13 -10 11 -5.1228 0.0293
13 -10 12 0.1181 -0.0488
13 -10 13 5.1011 0.0560
13 -10 14 3.2283 0.2475
13 -10 15 -0.3896 0.0742
13 -9 0 -0.8050 -0.2463
13 -9 1 -0.1153 0.2765
13 -9 2 0.0895 0.2257
13 -9 3 -0.0930 -0.1359
13 -9 4 -1.1745 -0.0343
13 -9 5 -0.6517 0.1735
13 -9 6 1.5210 -0.0112
13 -9 7 -0.2332 -0.1008
13 -9 8 -0.7099 0.0475
13 -9 9 3.1225 0.0467
13 -9 10 0.8348 0.0031
13 -9 11 -3.4028 0.0202
13 -9 12 -1.2846 -0.0551
13 -9 13 2.0731 -0.0364
13 -9 14 2.9295 0.1222
13 -9 15 0.8708 0.1216
13 -8 0 2.1935 -0.4476
13 -8 1 7.1686 0.0755
13 -8 2 -0.0495 0.2056
13 -8 3 -6.0933 -0.0513
13 -8 4 -3.9873 -0.0924
13 -8 5 0.7432 0.0117
13 -8 6 2.5146 -0.0045
13 -8 7 -0.6735 -0.0145
13 -8 8 -0.7942 0.0296
13 -8 9 3.4954 0.0470
13 -8 10 1.6433 0.0200
13 -8 11 -2.3914 -0.0397
13 -8 12 -0.9142 -0.0718
13 -8 13 2.7669 0.0169
13 -8 14 3.0506 0.0975
13 -8 15 -1.3829 -0.0114
13 -8 16 -2.4784 -0.0317
13 -7 0 6.1752 -0.1522
13 -7 1 1.2181 -0.2373
13 -7 2 -6.4081 -0.0267
13 -7 3 -2.3298 0.0896
13 -7 4 2.5813 -0.0650
13 -7 5 -1.2420 -0.1428
13 -7 6 -2.7797 0.0091
13 -7 7 0.1955 0.0490
13 -7 8 1.5854 -0.0189
13 -7 9 0.8316 0.0175
13 -7 10 -0.2742 -0.0008
13 -7 11 1.2277 -0.0477
13 -7 12 2.3306 -0.0007
13 -7 13 1.6247 0.0274
13 -7 14 1.3222 -0.0062
13 -7 15 0.0639 -0.0606
13 -7 16 0.1850 -0.0247
13 -6 0 2.7491 0.2955
13 -6 1 5.4929 -0.2799
13 -6 2 -0.2242 -0.1987
13 -6 3 -2.9541 0.1333
13 -6 4 -2.0366 0.0333
13 -6 5 -1.7279 -0.1171
13 -6 6 0.1632 0.0169
13 -6 7 0.0878 0.0374
13 -6 8 -1.1699 -0.0382
13 -6 9 0.1084 -0.0083
13 -6 10 0.1721 -0.0055
13 -6 11 0.0547 -0.0001
13 -6 12 1.7337 -0.0080
13 -6 13 4.0550 -0.0305
13 -6 14 3.1602 0.0323
13 -6 15 -1.9119 0.0352
13 -6 16 -2.3730 -0.0648
13 -5 0 10.2773 0.3473
13 -5 1 4.1239 -0.0253
13 -5 2 -7.9225 -0.0902
13 -5 3 -4.2023 0.0785
13 -5 4 3.5039 0.0776
13 -5 5 1.2560 0.0080
13 -5 6 -1.8683 0.0148
13 -5 7 -2.8092 0.0100
13 -5 8 -1.5256 0.0156
13 -5 9 1.2377 -0.0382
13 -5 10 0.9670 -0.0600
13 -5 11 0.6170 0.0651
13 -5 12 0.3696 0.0732
13 -5 13 -0.1949 -0.0414
13 -5 14 0.0527 -0.0594
13 -5 15 0.1884 0.0280
13 -5 16 1.5846 0.0665
13 -4 0 3.6784 0.0016
13 -4 1 -0.8367 0.2660
13 -4 2 -2.6772 0.1220
13 -4 3 0.7182 -0.0666
13 -4 4 -0.6486 0.0299
13 -4 5 -2.1966 0.1221
13 -4 6 0.5160 -0.0123
13 -4 7 -1.5633 -0.0591
13 -4 8 -0.9498 0.0487
13 -4 9 3.3143 0.0147
13 -4 10 0.6071 0.0013
13 -4 11 -2.7533 0.0652
13 -4 12 -1.1694 0.0173
13 -4 13 2.6865 -0.0519
13 -4 14 3.2099 -0.0560
13 -4 15 -1.4798 0.0720
13 -4 16 -4.1890 0.1233
13 -4 17 -1.6717 -0.0837
13 -3 0 2.8784 -0.2615
13 -3 1 2.3503 0.2580
13 -3 2 -1.0345 0.1165
13 -3 3 -0.7523 -0.1890
13 -3 4 -1.4437 -0.0544
13 -3 5 -1.3980 0.1163
13 -3 6 -0.8400 -0.0033
13 -3 7 -2.4875 -0.0513
13 -3 8 1.3240 0.0198
13 -3 9 2.7996 0.0252
13 -3 10 -0.8549 0.0418
13 -3 11 0.8815 -0.0115
13 -3 12 2.8859 -0.0156
13 -3 13 1.3013 0.0575
13 -3 14 -0.7657 -0.0152
13 -3 15 -2.2078 -0.0330
13 -3 16 -1.3229 -0.0002
13 -3 17 1.0626 -0.0264
13 -2 0 2.6618 -0.1858
13 -2 1 0.8925 -0.0664
13 -2 2 0.2638 -0.0741
13 -2 3 0.4127 -0.0844
13 -2 4 -3.4429 -0.0384
13 -2 5 -2.6620 -0.0136
13 -2 6 0.2730 -0.0024
13 -2 7 -0.8041 0.0085
13 -2 8 0.8643 -0.0531
13 -2 9 1.3733 -0.0138
13 -2 10 0.6165 0.0693
13 -2 11 0.7078 -0.0503
13 -2 12 -0.3475 -0.0476
13 -2 13 1.7850 0.0665
13 -2 14 3.5677 0.0202
13 -2 15 0.2956 -0.0297
13 -2 16 -2.3593 -0.0464
13 -2 17 -0.4333 0.0140
13 -1 0 -0.5291 0.0813
13 -1 1 1.6705 -0.2868
13 -1 2 0.9503 -0.1377
13 -1 3 -0.0750 0.1327
13 -1 4 -1.1675 0.0126
13 -1 5 -0.3198 -0.1306
13 -1 6 -1.7663 -0.0052
13 -1 7 -1.5839 0.0665
13 -1 8 2.3984 -0.0630
13 -1 9 1.2492 -0.0489
13 -1 10 -0.8088 0.0270
13 -1 11 -0.8545 -0.0301
13 -1 12 0.3065 -0.0179
13 -1 13 2.8113 0.0189
13 -1 14 1.9578 0.0510
13 -1 15 -1.4522 0.0200
13 -1 16 -2.5355 -0.0774
13 0 0 0.4023 0.1967
13 0 1 2.0410 -0.1133
13 0 2 0.4172 0.0288
13 0 3 0.1866 0.1805
13 0 4 -0.8849 0.0105
13 0 5 -1.3490 -0.1093
13 0 6 -0.5259 -0.0122
13 0 7 1.8820 0.0649
13 0 8 0.8754 0.0134
13 0 9 -0.8237 -0.0155
13 0 10 1.8959 -0.0165
13 0 11 1.3802 0.0212
13 0 12 -0.3600 0.0192
13 0 13 -0.6085 -0.0340
13 0 14 -1.4913 0.0571
13 0 15 -1.4772 0.0221
13 0 16 -1.0939 -0.0655
13 1 0 -0.8060 0.0588
13 1 1 0.3850 0.1474
13 1 2 -0.3038 0.1456
13 1 3 -0.5972 0.0109
13 1 4 0.4146 0.0069
13 1 5 1.4693 0.0383
13 1 6 0.3785 -0.0373
13 1 7 -0.8272 -0.0188
13 1 8 -0.6933 0.1002
13 1 9 3.9728 0.0758
13 1 10 4.2108 -0.0403
13 1 11 -2.0506 0.0174
13 1 12 -1.0832 0.0250
13 1 13 0.8044 -0.0354
13 1 14 -0.7568 0.0649
13 1 15 -0.2267 0.0289
13 1 16 -1.0938 -0.0138
13 2 0 -1.4158 -0.1611
13 2 1 0.0314 0.2130
13 2 2 0.3066 0.0854
13 2 3 0.3609 -0.1926
13 2 4 1.7960 -0.0225
13 2 5 1.3382 0.1299
13 2 6 0.9568 0.0019
13 2 7 0.8402 -0.0428
13 2 8 -0.5691 0.0552
13 2 9 1.5469 0.0343
13 2 10 0.2568 -0.0274
13 2 11 -0.6754 0.0512
13 2 12 4.5988 0.0077
13 2 13 2.0796 -0.0518
13 2 14 -3.1593 0.0725
13 2 15 -1.0313 0.0694
13 3 0 -0.9516 -0.1722
13 3 1 -1.2213 -0.0114
13 3 2 -0.2371 -0.0887
13 3 3 0.8358 -0.1334
13 3 4 2.3075 0.0030
13 3 5 2.3045 0.0435
13 3 6 4.1441 0.0089
13 3 7 1.4791 -0.0244
13 3 8 -3.1899 -0.0101
13 3 9 0.4959 0.0159
13 3 10 1.4326 -0.0090
13 3 11 -0.1164 -0.0168
13 3 12 1.7044 -0.0317
13 3 13 -0.1479 0.0209
13 3 14 -1.4708 0.0922
13 3 15 1.0375 0.0105
13 4 0 -2.2012 0.0340
13 4 1 1.2876 -0.1928
13 4 2 0.5324 -0.1461
13 4 3 -0.6762 0.0623
13 4 4 0.9886 0.0127
13 4 5 1.6612 -0.0653
13 4 6 4.7473 0.0412
13 4 7 4.1480 0.0061
13 4 8 0.1574 -0.0744
13 4 9 -1.3804 -0.0199
13 4 10 -3.3453 0.0322
13 4 11 -1.1253 0.0493
13 4 12 2.9161 0.0027
13 4 13 1.0434 -0.0448
13 4 14 -1.8521 -0.0139
13 5 0 1.4090 0.1819
13 5 1 2.6474 -0.0950
13 5 2 -2.8680 0.0217
13 5 3 -2.9357 0.1903
13 5 4 0.3618 -0.0380
13 5 5 0.2607 -0.1527
13 5 6 3.6960 0.0151
13 5 7 4.4867 0.0515
13 5 8 -1.1433 0.0001
13 5 9 -4.7637 0.0088
13 5 10 -1.8344 0.0457
13 5 11 2.4141 0.0593
13 5 12 1.4710 -0.0283
13 5 13 -0.7893 -0.0446
13 5 14 -0.8297 0.0624
13 6 0 -0.1420 0.1890
13 6 1 2.7582 0.1143
13 6 2 -1.8042 0.0777
13 6 3 -3.0659 0.0240
13 6 4 -1.1374 -0.0431
13 6 5 -0.5296 -0.0042
13 6 6 0.7440 0.0182
13 6 7 0.4022 0.0049
13 6 8 -1.6118 0.0184
13 6 9 -3.2565 -0.0177
13 6 10 -2.2634 0.0021
13 6 11 -0.1681 0.0966
13 6 12 1.4313 0.0507
13 6 13 1.6068 -0.0180
13 7 0 0.5553 -0.0383
13 7 1 2.7871 0.1874
13 7 2 -2.2126 0.0451
13 7 3 -1.9364 -0.1450
13 7 4 2.2636 0.0094
13 7 5 2.4855 0.0884
13 7 6 -1.4655 -0.0350
13 7 7 -3.7841 0.0083
13 7 8 -2.9118 0.0504
13 7 9 -2.4314 -0.1091
13 7 10 -1.5421 -0.0853
13 7 11 -0.5869 0.1181
13 7 12 -0.0639 0.0758
13 8 0 0.3486 -0.1869
13 8 1 2.9647 0.0226
13 8 2 1.4093 -0.0508
13 8 3 1.3095 -0.0842
13 8 4 2.4526 0.0735
13 8 5 2.8041 0.0441
13 8 6 -1.6337 -0.0352
13 8 7 -4.7375 0.0166
13 8 8 -1.1168 -0.0043
13 8 9 1.9159 -0.0966
13 8 10 -0.3404 -0.0526
13 9 0 2.1526 -0.1160
13 9 1 4.1142 -0.0330
13 9 2 2.0351 -0.0218
13 9 3 -1.2224 -0.0154
13 9 4 -1.2454 -0.0095
13 9 5 1.9583 0.0157
13 9 6 0.2542 0.0694
13 9 7 -1.6730 0.0017
13 9 8 1.3206 -0.0628
13 9 9 2.6174 -0.0422
13 10 0 0.7482 0.1192
13 10 1 -0.4160 -0.0998
13 10 2 -0.1734 -0.0311
13 10 3 -0.9952 0.1796
13 10 4 -0.9851 0.0095
13 10 5 0.4298 -0.1171
13 10 6 -1.4776 0.0060
13 10 7 -2.2262 0.0159
13 10 8 1.0305 0.0176
13 11 0 -3.1878 0.2145
13 11 1 -0.7839 0.0052
13 11 2 4.3503 0.0417
13 11 3 3.3586 0.0416
13 11 4 -2.0692 -0.1539
13 11 5 -5.4742 0.0019
13 11 6 -4.3504 0.1626
13 12 0 -0.0362 0.1301
13 12 1 0.7952 -0.0115
13 12 2 2.8207 -0.0514
13 12 3 1.2008 0.0361
13 13 0 -0.9530 -0.0511
14 -17 0 3.5772 0.1227
14 -16 0 2.5819 0.2071
14 -16 1 1.0288 -0.1604
14 -16 2 -0.0862 -0.1282
14 -16 3 1.5852 0.0603
14 -15 0 2.0056 0.2068
14 -15 1 1.4603 0.0656
14 -15 2 0.9553 -0.1351
14 -15 3 3.5514 -0.0568
14 -15 4 -0.6162 0.1872
14 -15 5 -5.0169 0.0982
14 -15 6 1.3679 -0.1421
14 -14 0 -0.6887 -0.0266
14 -14 1 0.8192 0.2966
14 -14 2 2.1029 -0.0329
14 -14 3 2.2455 -0.2262
14 -14 4 -2.4201 0.1626
14 -14 5 -2.6004 0.2148
14 -14 6 4.9211 -0.1089
14 -14 7 2.3070 -0.0856
14 -13 0 -0.8569 -0.2226
14 -13 1 -0.3598 0.2866
14 -13 2 0.0120 -0.0107
14 -13 3 1.6593 -0.2923
14 -13 4 -0.4767 0.0780
14 -13 5 -1.3069 0.2231
14 -13 6 2.1002 0.0104
14 -13 7 -0.7496 -0.0656
14 -13 8 -3.1034 -0.1344
14 -13 9 1.4929 -0.0879
14 -12 0 -2.1444 -0.2021
14 -12 1 -1.0898 -0.0590
14 -12 2 1.3320 -0.0383
14 -12 3 0.6935 -0.0613
14 -12 4 -3.2106 -0.0116
14 -12 5 -0.5639 -0.0045
14 -12 6 4.3741 0.0558
14 -12 7 -0.5730 0.0600
14 -12 8 -4.0383 -0.1352
14 -12 9 -0.3259 -0.1403
14 -12 10 -1.4716 0.1259
14 -11 0 0.0752 -0.0162
14 -11 1 -0.5823 -0.2930
14 -11 2 -0.1754 -0.0609
14 -11 3 0.0031 0.1389
14 -11 4 -1.4140 -0.0075
14 -11 5 1.5109 -0.1027
14 -11 6 3.2199 0.0531
14 -11 7 -2.8995 0.1082
14 -11 8 -4.2264 -0.1071
14 -11 9 -0.0250 -0.1961
14 -11 10 -1.9782 0.0436
14 -11 11 -2.3454 0.1889
14 -10 0 0.7034 0.1503
14 -10 1 -0.8230 -0.1680
14 -10 2 0.4672 0.0022
14 -10 3 1.8760 0.1625
14 -10 4 -1.4038 0.0344
14 -10 5 0.0430 -0.0476
14 -10 6 2.9743 -0.0267
14 -10 7 -1.4819 -0.0015
14 -10 8 -2.5427 -0.0181
14 -10 9 0.8216 -0.0402
14 -10 10 -2.8218 0.0028
14 -10 11 -5.0044 0.0019
14 -10 12 0.9505 -0.0015
14 -9 0 2.4709 0.1030
14 -9 1 -2.5821 0.1357
14 -9 2 -1.5953 0.0765
14 -9 3 1.9039 -0.0420
14 -9 4 -1.1606 0.0216
14 -9 5 0.4433 0.0773
14 -9 6 4.2457 -0.0753
14 -9 7 -0.4566 -0.0717
14 -9 8 -1.6542 0.0579
14 -9 9 2.8673 0.0256
14 -9 10 -1.3946 -0.0272
14 -9 11 -6.3659 -0.0380
14 -9 12 -0.6379 -0.0632
14 -9 13 4.1274 0.0543
14 -8 0 3.7240 -0.0575
14 -8 1 -1.1094 0.2129
14 -8 2 -2.4105 0.0122
14 -8 3 -0.4384 -0.1749
14 -8 4 -2.7732 0.0385
14 -8 5 -0.2861 0.1055
14 -8 6 4.1764 -0.0830
14 -8 7 1.2637 -0.0646
14 -8 8 1.0084 0.0462
14 -8 9 3.9784 0.0101
14 -8 10 -1.6570 -0.0434
14 -8 11 -5.7289 -0.0499
14 -8 12 0.9986 -0.0428
14 -8 13 5.5126 0.0515
14 -7 0 5.4792 -0.1358
14 -7 1 -3.5700 0.0221
14 -7 2 -4.9557 -0.0826
14 -7 3 0.1570 -0.1001
14 -7 4 -1.0022 0.0476
14 -7 5 -1.7696 0.0053
14 -7 6 1.1868 -0.0667
14 -7 7 1.0092 0.0068
14 -7 8 1.0908 0.0438
14 -7 9 2.0237 -0.0457
14 -7 10 -0.9499 -0.1207
14 -7 11 -0.7432 -0.0342
14 -7 12 3.4621 0.0711
14 -7 13 3.3903 0.0631
14 -6 0 5.5079 -0.0437
14 -6 1 3.7513 -0.1597
14 -6 2 -2.3707 -0.0984
14 -6 3 -3.6148 0.0584
14 -6 4 -1.6774 0.0329
14 -6 5 -1.1167 -0.0560
14 -6 6 -1.5109 0.0069
14 -6 7 -0.8387 0.0210
14 -6 8 2.3256 -0.0112
14 -6 9 2.3036 -0.0337
14 -6 10 -2.1779 -0.0880
14 -6 11 -1.4171 -0.0643
14 -6 12 2.6961 0.0351
14 -6 13 3.2710 0.1004
14 -6 14 1.3620 0.0445
14 -5 0 10.2252 0.0790
14 -5 1 0.6508 -0.0828
14 -5 2 -8.2398 0.0493
14 -5 3 -1.0182 0.1148
14 -5 4 4.9170 -0.0575
14 -5 5 -1.3047 -0.0385
14 -5 6 -4.8913 0.0900
14 -5 7 -0.5347 0.0113
14 -5 8 3.8842 -0.0422
14 -5 9 1.6066 -0.0127
14 -5 10 -2.5479 -0.0146
14 -5 11 -0.7619 -0.0383
14 -5 12 1.5473 -0.0286
14 -5 13 1.1626 0.0332
14 -5 14 0.0830 0.0259
14 -4 0 2.8133 0.0722
14 -4 1 0.1460 0.0696
14 -4 2 -1.7139 0.1559
14 -4 3 0.8011 0.0437
14 -4 4 -0.0302 -0.0979
14 -4 5 -2.4940 0.0214
14 -4 6 -0.7651 0.0714
14 -4 7 1.0439 -0.0080
14 -4 8 2.7293 -0.0015
14 -4 9 2.0673 0.0279
14 -4 10 0.2154 0.0541
14 -4 11 0.8934 -0.0050
14 -4 12 0.6661 -0.0800
14 -4 13 0.3214 -0.0624
14 -4 14 0.0402 -0.0226
14 -3 0 5.6770 -0.0541
14 -3 1 0.6966 0.0853
14 -3 2 -4.0615 0.0571
14 -3 3 -0.4265 -0.0726
14 -3 4 0.2754 -0.0079
14 -3 5 -2.0042 0.0777
14 -3 6 -2.1352 -0.0242
14 -3 7 -0.2870 -0.0045
14 -3 8 3.8996 0.0579
14 -3 9 3.8760 0.0122
14 -3 10 2.1686 0.0256
14 -3 11 1.9774 0.0374
14 -3 12 0.2445 0.0124
14 -3 13 0.5290 -0.0825
14 -3 14 1.5142 -0.1116
14 -2 0 1.4225 -0.1239
14 -2 1 -2.4227 -0.0575
14 -2 2 -0.3015 -0.1050
14 -2 3 0.5952 -0.0495
14 -2 4 -4.0191 0.1016
14 -2 5 -2.3908 0.0296
14 -2 6 0.5301 -0.0987
14 -2 7 0.0107 0.0084
14 -2 8 1.5271 0.0614
14 -2 9 1.3730 0.0070
14 -2 10 1.3862 -0.0208
14 -2 11 1.8783 0.0220
14 -2 12 1.4079 0.1044
14 -2 13 2.5091 -0.0077
14 -2 14 1.6215 -0.0772
14 -1 0 -0.4519 -0.0067
14 -1 1 0.5101 -0.1064
14 -1 2 0.5366 -0.1412
14 -1 3 -1.4794 0.0063
14 -1 4 -1.4862 0.0834
14 -1 5 2.0323 -0.0204
14 -1 6 -1.8133 -0.0478
14 -1 7 -4.0034 -0.0142
14 -1 8 1.9122 -0.0331
14 -1 9 3.5512 0.0213
14 -1 10 0.9928 0.0335
14 -1 11 -1.2885 0.0493
14 -1 12 -1.1040 0.0679
14 -1 13 1.3335 -0.0128
14 -1 14 1.6398 0.0499
14 0 0 -0.9954 0.1730
14 0 1 -0.5361 0.0230
14 0 2 0.7118 -0.0013
14 0 3 -0.2528 0.0403
14 0 4 -0.4861 -0.0581
14 0 5 1.6016 -0.0893
14 0 6 -0.9686 0.0308
14 0 7 -0.7920 0.0166
14 0 8 3.0977 -0.0169
14 0 9 3.0343 0.0468
14 0 10 -0.0279 0.0059
14 0 11 -2.4243 0.0072
14 0 12 -1.1307 0.0145
14 0 13 0.7004 0.0435
14 0 14 -0.4096 0.1512
14 1 0 -1.3596 0.1455
14 1 1 -0.4182 0.1064
14 1 2 0.1950 0.1116
14 1 3 -0.6295 0.0103
14 1 4 1.6712 -0.1160
14 1 5 3.5871 -0.0460
14 1 6 -1.1758 0.0805
14 1 7 -2.1187 0.0520
14 1 8 4.1186 0.0052
14 1 9 6.6579 -0.0607
14 1 10 0.0896 -0.0493
14 1 11 -3.7031 0.1042
14 1 12 0.1737 0.0211
14 1 13 0.7867 -0.0122
14 2 0 -1.9101 -0.0802
14 2 1 -0.6661 0.0626
14 2 2 0.1002 0.0752
14 2 3 1.0803 -0.0330
14 2 4 2.9270 -0.0002
14 2 5 2.1009 0.0815
14 2 6 -0.0341 0.0312
14 2 7 0.3534 -0.0255
14 2 8 2.9683 -0.0119
14 2 9 3.4817 -0.0814
14 2 10 -0.5429 -0.0040
14 2 11 0.4612 0.1254
14 2 12 3.2960 -0.0487
14 2 13 -0.5839 -0.0221
14 3 0 -1.1954 -0.2598
14 3 1 -1.6296 -0.0809
14 3 2 -1.4137 -0.0008
14 3 3 1.7501 0.0264
14 3 4 4.0889 0.0904
14 3 5 4.0951 0.0317
14 3 6 2.3261 -0.0734
14 3 7 -2.5224 0.0039
14 3 8 -0.2368 0.0801
14 3 9 6.0859 -0.0683
14 3 10 2.0364 -0.0456
14 3 11 -1.8441 0.0845
14 3 12 -0.1210 -0.0230
14 4 0 -2.0369 -0.0891
14 4 1 -1.5416 -0.1130
14 4 2 -1.6302 -0.1108
14 4 3 1.0483 -0.0079
14 4 4 1.8089 0.0549
14 4 5 1.9726 0.0186
14 4 6 3.6785 -0.0389
14 4 7 1.1818 -0.0172
14 4 8 0.5257 0.0271
14 4 9 1.0211 -0.0007
14 4 10 -1.3945 0.0671
14 4 11 0.7038 0.0853
14 5 0 2.4653 0.1741
14 5 1 -1.1001 -0.0350
14 5 2 -6.4325 -0.0736
14 5 3 -3.0971 -0.0040
14 5 4 0.5685 -0.0554
14 5 5 3.1907 -0.0718
14 5 6 4.0335 -0.0367
14 5 7 -2.5643 0.0018
14 5 8 -5.0898 0.0486
14 5 9 0.8542 0.0433
14 5 10 4.6902 0.0542
14 5 11 2.2511 0.0396
14 6 0 0.7652 0.2669
14 6 1 -1.1141 0.0273
14 6 2 -3.9420 -0.0359
14 6 3 -0.8920 -0.0139
14 6 4 0.9630 -0.0145
14 6 5 -0.7312 0.0075
14 6 6 -2.7980 -0.0508
14 6 7 -3.2191 -0.0986
14 6 8 -1.1800 -0.0512
14 6 9 -0.0732 0.0127
14 6 10 -0.1632 0.0964
14 7 0 0.6449 -0.0075
14 7 1 4.4851 0.0713
14 7 2 0.9235 0.1169
14 7 3 0.0709 0.0534
14 7 4 0.9332 0.0357
14 7 5 -0.5672 -0.0136
14 7 6 -2.3602 -0.0634
14 7 7 -2.7988 0.0029
14 7 8 -3.5153 -0.0575
14 8 0 1.9602 -0.3023
14 8 1 5.0246 0.0280
14 8 2 2.0080 0.1569
14 8 3 0.8333 0.0816
14 8 4 2.2743 0.0982
14 8 5 0.6356 0.0412
14 8 6 -2.5601 -0.0256
14 8 7 -1.3210 0.0150
14 9 0 -0.8332 -0.3247
14 9 1 2.0090 0.0782
14 9 2 1.0610 0.1300
14 9 3 -0.8637 -0.0314
14 9 4 -0.2311 0.0247
14 9 5 0.9525 0.0636
14 10 0 -1.0679 -0.1046
14 10 1 0.7354 -0.0108
14 10 2 0.1738 0.0351
14 10 3 -2.1284 -0.0322
14 11 0 0.7630 0.0392
14 11 1 2.5643 -0.0586
15 -15 0 1.2893 -0.0134
15 -15 1 0.6498 -0.1557
15 -14 0 -0.4872 -0.0141
15 -14 1 1.6784 -0.1163
15 -14 2 2.2052 -0.0323
15 -14 3 1.5987 0.1562
15 -13 0 1.0125 0.0516
15 -13 1 -0.8836 0.0236
15 -13 2 -0.8474 -0.1773
15 -13 3 1.9800 0.0037
15 -13 4 0.4197 0.2082
15 -13 5 0.0479 0.0130
15 -12 0 -3.2683 -0.0000
15 -12 1 -2.0203 0.0089
15 -12 2 2.1344 -0.1514
15 -12 3 1.8668 -0.0424
15 -12 4 -2.4141 0.0977
15 -12 5 -0.2612 0.0569
15 -12 6 1.1308 0.0070
15 -12 7 -1.5281 -0.0668
15 -11 0 1.1762 -0.0430
15 -11 1 -1.6508 -0.0139
15 -11 2 -0.5292 0.0118
15 -11 3 -0.3430 0.0133
15 -11 4 -0.8912 -0.0521
15 -11 5 2.5569 0.0170
15 -11 6 -0.1726 0.1042
15 -11 7 -5.4737 -0.0402
15 -11 8 -2.1262 -0.2011
15 -10 0 -1.6187 0.0292
15 -10 1 -3.6670 -0.0321
15 -10 2 3.7759 0.1710
15 -10 3 3.8815 0.0884
15 -10 4 -2.5870 -0.1660
15 -10 5 -1.3034 -0.0589
15 -10 6 0.0133 0.0830
15 -10 7 -1.8563 -0.0206
15 -10 8 -0.7524 -0.0883
15 -10 9 -0.3033 -0.0391
15 -9 0 1.1242 0.0600
15 -9 1 -1.2080 0.0192
15 -9 2 2.8828 0.1536
15 -9 3 0.2275 -0.0056
15 -9 4 -3.7154 -0.1112
15 -9 5 2.6602 0.0437
15 -9 6 5.0983 0.0246
15 -9 7 -1.2765 -0.0921
15 -9 8 -3.4888 -0.0311
15 -9 9 -0.6835 0.0139
15 -8 0 0.4377 -0.0456
15 -8 1 -4.3221 -0.0225
15 -8 2 1.0090 0.0373
15 -8 3 1.6369 -0.0242
15 -8 4 -1.6991 0.0290
15 -8 5 1.7358 0.0934
15 -8 6 3.0835 -0.0285
15 -8 7 -1.1719 -0.1421
15 -8 8 -0.7874 -0.0628
15 -8 9 2.0768 0.0447
15 -8 10 -1.0634 0.0092
15 -7 0 -0.1129 -0.1257
15 -7 1 -0.6597 -0.0560
15 -7 2 2.4392 -0.0650
15 -7 3 -1.3289 -0.0160
15 -7 4 -4.6077 0.0495
15 -7 5 0.0470 0.0066
15 -7 6 2.5390 -0.0032
15 -7 7 -0.2310 -0.0155
15 -7 8 0.3733 -0.0781
15 -7 9 1.4376 -0.0937
15 -7 10 -1.7985 -0.0186
15 -6 0 7.5612 0.0001
15 -6 1 3.5423 -0.1008
15 -6 2 -4.1556 -0.1800
15 -6 3 -5.3082 0.0264
15 -6 4 -0.1097 0.0643
15 -6 5 1.2679 -0.0633
15 -6 6 -1.1035 -0.0003
15 -6 7 -0.7447 0.0403
15 -6 8 2.0851 -0.0829
15 -6 9 0.0865 -0.1670
15 -6 10 -3.3878 -0.0611
15 -6 11 0.1068 0.0822
15 -5 0 4.6643 0.1809
15 -5 1 -0.0248 0.0015
15 -5 2 -3.6574 -0.1157
15 -5 3 0.8668 0.0186
15 -5 4 3.2808 0.0091
15 -5 5 -2.0957 -0.0562
15 -5 6 -3.8755 -0.0298
15 -5 7 0.6138 0.0008
15 -5 8 4.4970 0.0001
15 -5 9 1.6886 -0.0593
15 -5 10 -2.2773 -0.0999
15 -5 11 -1.0949 -0.0792
15 -4 0 4.3415 0.1340
15 -4 1 4.0526 0.1343
15 -4 2 -2.7377 0.1043
15 -4 3 -2.1409 -0.0362
15 -4 4 0.2796 -0.1021
15 -4 5 -1.0474 0.0265
15 -4 6 -0.1602 0.0345
15 -4 7 2.8610 -0.0116
15 -4 8 4.8315 0.0297
15 -4 9 2.1357 0.0364
15 -4 10 -0.7507 -0.0582
15 -4 11 -0.3493 -0.1595
15 -3 0 2.5544 -0.1198
15 -3 1 -2.9902 0.1178
15 -3 2 -4.3663 0.2134
15 -3 3 0.8708 -0.0457
15 -3 4 0.1643 -0.0792
15 -3 5 -1.9913 0.1116
15 -3 6 -0.0441 0.0919
15 -3 7 1.7592 -0.0066
15 -3 8 3.1602 -0.0350
15 -3 9 3.5803 0.0479
15 -3 10 3.5722 0.0857
15 -3 11 1.3112 -0.0236
15 -2 0 -1.5767 -0.2945
15 -2 1 -3.2685 -0.0694
15 -2 2 -1.0088 0.1412
15 -2 3 -0.3506 0.0746
15 -2 4 -2.8510 0.0251
15 -2 5 -0.7304 0.0033
15 -2 6 0.4471 0.0207
15 -2 7 -0.2995 0.0658
15 -2 8 1.4296 0.0069
15 -2 9 2.7304 0.0197
15 -2 10 2.7931 0.0778
15 -2 11 0.7012 0.1003
15 -1 0 -1.0684 -0.0898
15 -1 1 -3.2039 -0.1735
15 -1 2 -1.1373 -0.1090
15 -1 3 0.4173 0.0823
15 -1 4 0.8446 0.1157
15 -1 5 0.8398 -0.0652
15 -1 6 -3.4192 -0.0705
15 -1 7 -1.8777 0.0271
15 -1 8 3.5795 0.0373
15 -1 9 2.8171 0.0509
15 -1 10 -0.2752 0.0662
15 -1 11 -1.6393 0.1345
15 0 0 -2.2289 0.2708
15 0 1 -1.4110 -0.0667
15 0 2 1.1693 -0.2239
15 0 3 -0.6086 -0.0305
15 0 4 0.5675 0.0431
15 0 5 2.5783 -0.0538
15 0 6 -1.0160 -0.0626
15 0 7 0.6253 -0.0159
15 0 8 3.6635 0.0897
15 0 9 0.9436 0.0548
15 0 10 -1.7533 -0.0683
15 1 0 -2.3888 0.2873
15 1 1 -0.7516 0.0510
15 1 2 0.8806 -0.1006
15 1 3 -1.2450 -0.0874
15 1 4 2.9124 -0.0175
15 1 5 4.2197 0.0862
15 1 6 -1.8760 0.0232
15 1 7 0.2128 -0.1161
15 1 8 5.6962 -0.0464
15 1 9 3.3484 -0.0309
15 1 10 -1.9165 0.0130
15 2 0 -3.6669 -0.0747
15 2 1 0.6988 0.1225
15 2 2 2.2434 0.1878
15 2 3 -0.0216 0.0041
15 2 4 1.9356 -0.0305
15 2 5 1.5071 0.1137
15 2 6 0.1223 -0.0114
15 2 7 3.7270 -0.1617
15 2 8 4.6848 -0.0427
15 2 9 0.5739 0.0147
15 3 0 -2.1261 -0.3257
15 3 1 0.3380 0.0912
15 3 2 0.4991 0.2722
15 3 3 0.4178 0.0490
15 3 4 2.9120 -0.0772
15 3 5 3.0571 0.0001
15 3 6 0.9790 0.0062
15 3 7 0.1654 0.0451
15 3 8 2.8330 0.0316
15 3 9 3.7907 -0.0980
15 4 0 -3.5049 -0.1890
15 4 1 0.8841 -0.1077
15 4 2 0.1060 -0.0300
15 4 3 0.2352 0.0205
15 4 4 0.9605 0.0343
15 4 5 0.9709 -0.0091
15 4 6 1.6998 -0.0405
15 4 7 1.4643 0.0308
15 4 8 1.9424 0.0109
15 5 0 0.4753 0.1075
15 5 1 -1.1991 -0.1168
15 5 2 -4.4065 -0.1778
15 5 3 -1.8678 0.0075
15 5 4 0.4367 0.0283
15 5 5 2.4580 -0.1326
15 5 6 1.4446 -0.1252
15 5 7 -3.6891 0.0607
15 6 0 -2.0925 0.3151
15 6 1 -0.1778 -0.0693
15 6 2 -0.3437 -0.2277
15 6 3 0.3402 0.0585
15 6 4 -0.6743 0.1654
15 6 5 -1.8749 -0.0940
15 6 6 -2.7030 -0.2324
15 7 0 3.0246 0.0333
15 7 1 6.4429 0.1751
15 7 2 1.4213 0.1534
15 7 3 -1.5499 0.1215
15 7 4 -1.6695 0.0295
15 8 0 2.3201 -0.1686
15 8 1 3.9331 0.3013
15 8 2 0.2527 0.2088
15 9 0 -2.6283 -0.3102
16 -12 0 -2.9076 -0.1102
16 -12 1 -3.3618 -0.1033
16 -12 2 1.1627 0.0460
16 -11 0 -1.4559 0.2154
16 -11 1 -0.5995 0.0618
16 -11 2 2.5681 -0.0925
16 -11 3 -0.6983 -0.0633
16 -10 0 0.6768 0.3283
16 -10 1 -1.4371 0.1147
16 -10 2 0.8747 -0.0457
16 -10 3 -1.0119 -0.1214
16 -10 4 -0.9847 -0.0857
16 -10 5 1.1401 0.0571
16 -9 0 0.4834 0.1942
16 -9 1 -1.2988 0.1273
16 -9 2 2.0580 0.0215
16 -9 3 1.3176 -0.0880
16 -9 4 -0.0328 0.0174
16 -9 5 -0.1581 0.1023
16 -9 6 -0.4063 -0.0615
16 -8 0 2.3667 -0.1075
16 -8 1 1.4204 0.0744
16 -8 2 2.1053 0.1166
16 -8 3 -1.2418 -0.0399
16 -8 4 -2.0344 0.0354
16 -8 5 0.9965 0.1334
16 -8 6 2.0637 -0.0522
16 -7 0 3.2631 -0.2608
16 -7 1 1.7768 0.0213
16 -7 2 -1.0967 0.0280
16 -7 3 -3.3014 -0.1254
16 -7 4 -0.2419 0.0163
16 -7 5 2.2318 0.2006
16 -7 6 0.0443 0.0132
16 -7 7 -2.9463 -0.2473
16 -6 0 4.7216 -0.1789
16 -6 1 2.2503 -0.1650
16 -6 2 -1.8569 -0.0743
16 -6 3 -2.6749 -0.0075
16 -6 4 -0.6582 -0.0592
16 -6 5 0.3220 -0.0243
16 -6 6 -0.0687 0.0216
16 -6 7 -1.0491 -0.0944
16 -5 0 3.7836 0.1419
16 -5 1 3.5339 -0.1785
16 -5 2 -1.7756 -0.1258
16 -5 3 -2.1942 0.0598
16 -5 4 0.8227 -0.1032
16 -5 5 0.8198 -0.1741
16 -5 6 -1.4435 0.0195
16 -5 7 -0.5844 0.0825
16 -4 0 4.7538 0.3040
16 -4 1 1.7444 -0.0385
16 -4 2 -4.3216 -0.0572
16 -4 3 -1.3825 0.0901
16 -4 4 1.7458 -0.0051
16 -4 5 0.7302 -0.1259
16 -4 6 -0.1607 -0.0351
16 -4 7 2.2517 0.1113
16 -4 8 4.3673 0.0253
16 -3 0 -1.6813 0.1442
16 -3 1 -1.4479 0.1936
16 -3 2 -1.6345 0.0834
16 -3 3 -0.0483 -0.0159
16 -3 4 0.2100 0.0741
16 -3 5 1.0419 0.1006
16 -3 6 -0.1253 0.0103
16 -3 7 0.1667 -0.0101
16 -2 0 -1.7197 -0.1927
16 -2 1 -3.6636 0.2092
16 -2 2 -2.3195 0.1782
16 -2 3 0.2870 -0.0369
16 -2 4 0.0856 0.0595
16 -2 5 0.2423 0.1357
16 -2 6 -0.3022 0.0438
16 -2 7 1.1272 -0.0626
16 -1 0 -4.6969 -0.2690
16 -1 1 -6.1769 -0.0049
16 -1 2 0.6444 0.0506
16 -1 3 3.4344 0.0023
16 -1 4 0.8300 0.0272
16 -1 5 -0.5565 0.0104
16 -1 6 -1.1769 0.0106
16 -1 7 0.6287 -0.0118
16 0 0 -1.1723 -0.0089
16 0 1 -3.0746 -0.2005
16 0 2 0.2543 -0.1864
16 0 3 1.2043 0.0252
16 0 4 1.5443 0.0617
16 0 5 0.8626 -0.0568
16 0 6 -0.0913 -0.0427
16 0 7 2.2929 0.0444
16 1 0 -2.0947 0.1624
16 1 1 -2.6359 -0.1790
16 1 2 -0.1607 -0.1937
16 1 3 -0.7307 0.0738
16 1 4 2.6167 0.1563
16 1 5 3.5886 -0.0070
16 1 6 0.9290 -0.1790
16 2 0 -3.2464 0.1257
16 2 1 1.3904 0.1311
16 2 2 1.3340 0.0655
16 2 3 -1.1468 0.0242
16 2 4 1.8930 0.0436
16 2 5 2.1337 -0.0201
16 3 0 -1.2483 -0.0063
16 3 1 2.5721 0.2901
16 3 2 0.9978 0.1838
16 3 3 -1.4301 -0.1341
16 3 4 0.1448 -0.1329
16 3 5 1.4942 0.0576
16 4 0 -0.5109 -0.0948
16 4 1 2.5974 -0.0160
16 4 2 -1.2799 -0.0090
16 4 3 -1.1001 -0.0497
16 5 0 1.4039 -0.0928
16 5 1 -0.4291 -0.1594
16 5 2 -2.1049 0.0133
16 6 0 1.1663 0.2047
17 -9 0 1.1601 0.3593
17 -8 0 1.6124 0.1099
17 -8 1 0.8242 0.0547
17 -7 0 3.3856 -0.0570
17 -7 1 0.0948 0.0803
17 -7 2 -3.2053 -0.1190
17 -6 0 0.5932 -0.1758
17 -6 1 1.9713 -0.0803
17 -6 2 0.0976 -0.1195
17 -6 3 -1.9752 -0.1267
17 -5 0 3.8641 -0.1319
17 -5 1 4.6904 -0.1196
17 -5 2 -2.8051 0.0335
17 -5 3 -4.0278 -0.0979
17 -4 0 1.5543 0.0483
17 -4 1 -1.1505 -0.1378
17 -4 2 -1.6543 0.1093
17 -4 3 1.5504 0.0854
17 -3 0 -1.0239 0.1515
17 -3 1 2.0058 -0.0329
17 -3 2 0.5742 0.0686
17 -3 3 -1.1931 0.1818
17 -2 0 -1.2876 0.1389
17 -2 1 -3.8808 0.1636
17 -2 2 -1.5677 0.0003
17 -2 3 2.0450 0.0884
17 -1 0 -6.8665 0.0302
17 -1 1 -2.3519 0.1588
17 -1 2 4.8468 -0.0996
17 0 0 -1.4615 -0.0902
17 0 1 -3.3674 -0.1012
17 0 2 -0.4294 -0.1274
17 1 0 -4.3663 -0.1619
17 1 1 -4.9269 -0.1651
17 2 0 -2.1998 0.1743
0 0 0 0.0 0.0
;
_shelx_fab_checksum              26087
_olex2_submission_special_instructions 'No special instructions were received'
loop_
_space_group_symop_operation_xyz
'x, y, z'
'-x, -y, -z'
loop_
_atom_site_label
_atom_site_type_symbol
_atom_site_fract_x
_atom_site_fract_y
_atom_site_fract_z
_atom_site_U_iso_or_equiv
_atom_site_adp_type
_atom_site_occupancy
_atom_site_site_symmetry_order
_atom_site_calc_flag
_atom_site_refinement_flags_posn
_atom_site_refinement_flags_adp
_atom_site_refinement_flags_occupancy
_atom_site_disorder_assembly
_atom_site_disorder_group
Rh1 Rh 0.89369(3) 0.18918(2) 0.56496(2) 0.03992(9) Uani 1 1 d . . . . .
Rh2 Rh 0.64754(3) 0.17050(2) 0.54431(2) 0.04490(10) Uani 1 1 d . . . . .
O1 O 0.6907(3) 0.2054(2) 0.66027(15) 0.0879(13) Uani 1 1 d . . . . .
O2 O 0.6749(4) 0.0212(3) 0.59023(17) 0.1005(15) Uani 1 1 d . . . . .
O3 O 0.9413(3) 0.2224(2) 0.68091(14) 0.0842(13) Uani 1 1 d . . . . .
O4 O 0.9419(5) 0.0407(3) 0.60474(18) 0.124(2) Uani 1 1 d . . . . .
N1 N 0.8886(2) 0.29877(18) 0.54089(12) 0.0329(8) Uani 1 1 d . . . . .
N2 N 0.8856(3) 0.15932(18) 0.48714(13) 0.0380(8) Uani 1 1 d . . . . .
N3 N 0.6079(3) 0.13459(19) 0.46570(14) 0.0421(9) Uani 1 1 d . . . . .
N4 N 0.6156(3) 0.2762(2) 0.51940(13) 0.0405(8) Uani 1 1 d . . . . .
C1 C 0.9394(3) 0.3265(2) 0.50310(14) 0.0324(9) Uani 1 1 d . . . . .
C2 C 0.9712(3) 0.2831(2) 0.46774(15) 0.0327(9) Uani 1 1 d . . . . .
C3 C 0.9442(3) 0.2052(2) 0.45916(16) 0.0362(9) Uani 1 1 d . . . . .
C4 C 0.8598(3) 0.0922(2) 0.46073(17) 0.0422(10) Uani 1 1 d . . . . .
C5 C 0.9002(4) 0.0930(2) 0.41688(19) 0.0537(13) Uani 1 1 d . . . . .
H5 H 0.892417 0.053090 0.392843 0.064 Uiso 1 1 calc R . . . .
C6 C 0.9534(3) 0.1631(2) 0.41550(17) 0.0461(11) Uani 1 1 d . . . . .
H6 H 0.988683 0.179738 0.390671 0.055 Uiso 1 1 calc R . . . .
C7 C 0.7979(4) 0.0252(2) 0.47576(17) 0.0448(11) Uani 1 1 d . . . . .
C8 C 0.6922(4) 0.0175(2) 0.46771(18) 0.0471(11) Uani 1 1 d . . . . .
C9 C 0.6293(3) 0.0739(2) 0.44248(18) 0.0449(11) Uani 1 1 d . . . . .
C10 C 0.5371(3) 0.2857(3) 0.47428(17) 0.0441(11) Uani 1 1 d . . . . .
C11 C 0.5012(3) 0.2332(3) 0.43192(17) 0.0439(11) Uani 1 1 d . . . . .
C12 C 0.5362(3) 0.1654(2) 0.42667(17) 0.0434(11) Uani 1 1 d . . . . .
C13 C 0.5164(4) 0.1217(3) 0.37876(19) 0.0573(13) Uani 1 1 d . . . . .
H13 H 0.472226 0.129931 0.346683 0.069 Uiso 1 1 calc R . . . .
C14 C 0.5744(4) 0.0653(3) 0.38882(19) 0.0604(14) Uani 1 1 d . . . . .
H14 H 0.577319 0.028066 0.364747 0.072 Uiso 1 1 calc R . . . .
C15 C 0.4187(4) 0.2516(3) 0.38602(18) 0.0509(12) Uani 1 1 d . . . . .
C16 C 0.4340(4) 0.3121(3) 0.3559(2) 0.0636(14) Uani 1 1 d . . . . .
H16 H 0.496153 0.343945 0.364701 0.076 Uiso 1 1 calc R . . . .
C17 C 0.3587(5) 0.3263(4) 0.3127(2) 0.0824(19) Uani 1 1 d . . . . .
H17 H 0.370698 0.367069 0.292297 0.099 Uiso 1 1 calc R . . . .
C18 C 0.2669(6) 0.2810(5) 0.2999(3) 0.100(2) Uani 1 1 d . . . . .
H18 H 0.216516 0.290559 0.270544 0.120 Uiso 1 1 calc R . . . .
C19 C 0.2483(5) 0.2216(5) 0.3296(3) 0.100(2) Uani 1 1 d . . . . .
H19 H 0.184559 0.191820 0.321244 0.119 Uiso 1 1 calc R . . . .
C20 C 0.3249(4) 0.2051(3) 0.3728(2) 0.0734(16) Uani 1 1 d . . . . .
H20 H 0.313094 0.163504 0.392387 0.088 Uiso 1 1 calc R . . . .
C21 C 0.5103(4) 0.3574(3) 0.47773(18) 0.0518(12) Uani 1 1 d . . . . .
H21 H 0.460226 0.377495 0.453287 0.062 Uiso 1 1 calc R . . . .
C22 C 0.5711(4) 0.3924(3) 0.52341(19) 0.0530(12) Uani 1 1 d . . . . .
H22 H 0.570069 0.440717 0.535703 0.064 Uiso 1 1 calc R . . . .
C23 C 0.6351(3) 0.3426(2) 0.54839(16) 0.0413(10) Uani 1 1 d . . . . .
C24 C 0.7110(3) 0.3584(3) 0.60039(17) 0.0447(11) Uani 1 1 d . . . . .
C25 C 0.8156(3) 0.3610(2) 0.60775(15) 0.0368(10) Uani 1 1 d . . . . .
C26 C 0.8631(3) 0.3587(2) 0.56268(15) 0.0338(9) Uani 1 1 d . . . . .
C27 C 0.8943(3) 0.4247(2) 0.53967(16) 0.0426(10) Uani 1 1 d . . . . .
H27 H 0.883506 0.472723 0.547515 0.051 Uiso 1 1 calc R . . . .
C28 C 0.9440(3) 0.4051(2) 0.50316(15) 0.0391(10) Uani 1 1 d . . . . .
H28 H 0.974855 0.437685 0.482449 0.047 Uiso 1 1 calc R . . . .
C29 C 0.8800(4) 0.3810(3) 0.65751(17) 0.0527(12) Uani 1 1 d . . . . .
H29 H 0.950215 0.383621 0.662612 0.063 Uiso 1 1 calc R . . . .
C30 C 0.8416(4) 0.3968(3) 0.69936(18) 0.0643(15) Uani 1 1 d . . . . .
H30 H 0.885546 0.408367 0.732721 0.077 Uiso 1 1 calc R . . . .
C31 C 0.7385(4) 0.3957(3) 0.69188(19) 0.0688(16) Uani 1 1 d . . . . .
H31 H 0.712399 0.407194 0.719960 0.083 Uiso 1 1 calc R . . . .
C32 C 0.6739(4) 0.3773(3) 0.64245(19) 0.0611(14) Uani 1 1 d . . . . .
H32 H 0.604183 0.377698 0.637268 0.073 Uiso 1 1 calc R . . . .
C33 C 0.6730(4) 0.1975(3) 0.6157(2) 0.0558(13) Uani 1 1 d . . . . .
C34 C 0.6650(4) 0.0757(3) 0.5698(2) 0.0614(14) Uani 1 1 d . . . . .
C35 C 0.6391(4) -0.0520(3) 0.4765(2) 0.0630(14) Uani 1 1 d . . . . .
H35 H 0.568376 -0.058077 0.470168 0.076 Uiso 1 1 calc R . . . .
C36 C 0.6894(5) -0.1109(3) 0.4941(2) 0.0684(15) Uani 1 1 d . . . . .
H36 H 0.652798 -0.155993 0.500396 0.082 Uiso 1 1 calc R . . . .
C37 C 0.7918(5) -0.1042(3) 0.5023(2) 0.0706(16) Uani 1 1 d . . . . .
H37 H 0.825807 -0.144296 0.514423 0.085 Uiso 1 1 calc R . . . .
C38 C 0.8457(4) -0.0369(3) 0.4925(2) 0.0612(14) Uani 1 1 d . . . . .
H38 H 0.915961 -0.032943 0.497209 0.073 Uiso 1 1 calc R . . . .
C39 C 1.0356(3) 0.3235(2) 0.43475(15) 0.0355(10) Uani 1 1 d . . . . .
C40 C 0.9952(4) 0.3693(3) 0.39539(17) 0.0492(12) Uani 1 1 d . . . . .
H40 H 0.926181 0.373638 0.388012 0.059 Uiso 1 1 calc R . . . .
C41 C 1.0564(4) 0.4089(3) 0.36664(19) 0.0601(14) Uani 1 1 d . . . . .
H41 H 1.028325 0.439538 0.340159 0.072 Uiso 1 1 calc R . . . .
C42 C 1.1568(5) 0.4030(3) 0.3772(2) 0.0683(16) Uani 1 1 d . . . . .
H42 H 1.197714 0.429948 0.358057 0.082 Uiso 1 1 calc R . . . .
C43 C 1.1986(4) 0.3577(3) 0.4158(2) 0.0723(17) Uani 1 1 d . . . . .
H43 H 1.267725 0.353851 0.422839 0.087 Uiso 1 1 calc R . . . .
C44 C 1.1369(4) 0.3170(3) 0.4448(2) 0.0561(13) Uani 1 1 d . . . . .
H44 H 1.164998 0.285688 0.470836 0.067 Uiso 1 1 calc R . . . .
C45 C 0.9206(4) 0.2146(3) 0.63651(19) 0.0517(12) Uani 1 1 d . . . . .
C46 C 0.9199(5) 0.0950(3) 0.5874(2) 0.0695(16) Uani 1 1 d . . . . .
Rh3 Rh 0.77489(3) 0.78048(2) 0.30391(2) 0.04286(10) Uani 1 1 d . . . . .
Rh4 Rh 0.53296(3) 0.73553(2) 0.28978(2) 0.04332(9) Uani 1 1 d . . . . .
O5 O 0.5894(3) 0.7209(2) 0.40640(14) 0.0755(11) Uani 1 1 d . . . . .
O6 O 0.5228(4) 0.8859(2) 0.33370(16) 0.1030(16) Uani 1 1 d . . . . .
O7 O 0.8385(3) 0.7597(2) 0.41976(13) 0.0727(11) Uani 1 1 d . . . . .
O8 O 0.7744(4) 0.9326(2) 0.34798(16) 0.1122(17) Uani 1 1 d . . . . .
N5 N 0.7947(3) 0.67506(19) 0.28011(12) 0.0389(8) Uani 1 1 d . . . . .
N6 N 0.7509(3) 0.80677(19) 0.22460(13) 0.0468(9) Uani 1 1 d . . . . .
N7 N 0.4794(3) 0.7567(2) 0.21015(14) 0.0478(9) Uani 1 1 d . . . . .
N8 N 0.5198(3) 0.6232(2) 0.26623(13) 0.0397(8) Uani 1 1 d . . . . .
C47 C 0.8477(3) 0.6655(3) 0.24138(16) 0.0421(10) Uani 1 1 d . . . . .
C48 C 0.8580(3) 0.7181(3) 0.20291(16) 0.0446(11) Uani 1 1 d . . . . .
C49 C 0.8101(4) 0.7811(3) 0.19365(17) 0.0492(12) Uani 1 1 d . . . . .
C50 C 0.7075(4) 0.8624(3) 0.19846(19) 0.0576(13) Uani 1 1 d . . . . .
C51 C 0.7365(5) 0.8734(3) 0.15070(19) 0.0702(16) Uani 1 1 d . . . . .
H51 H 0.714940 0.907854 0.125652 0.084 Uiso 1 1 calc R . . . .
C52 C 0.8011(4) 0.8246(3) 0.14814(18) 0.0609(14) Uani 1 1 d . . . . .
H52 H 0.833828 0.820175 0.121438 0.073 Uiso 1 1 calc R . . . .
C53 C 0.6456(5) 0.9124(3) 0.21778(19) 0.0620(15) Uani 1 1 d . . . . .
C54 C 0.5410(5) 0.8962(3) 0.21173(19) 0.0652(16) Uani 1 1 d . . . . .
C55 C 0.4774(4) 0.8254(3) 0.18873(19) 0.0598(14) Uani 1 1 d . . . . .
C56 C 0.4475(3) 0.5889(3) 0.22131(17) 0.0440(11) Uani 1 1 d . . . . .
C57 C 0.3922(3) 0.6280(3) 0.18030(17) 0.0460(11) Uani 1 1 d . . . . .
C58 C 0.4062(3) 0.7053(3) 0.17517(18) 0.0495(12) Uani 1 1 d . . . . .
C59 C 0.3566(4) 0.7455(4) 0.1321(2) 0.0722(16) Uani 1 1 d . . . . .
H59 H 0.302926 0.725418 0.103866 0.087 Uiso 1 1 calc R . . . .
C60 C 0.4015(5) 0.8186(3) 0.1397(2) 0.0774(18) Uani 1 1 d . . . . .
H60 H 0.385676 0.857029 0.116959 0.093 Uiso 1 1 calc R . . . .
C61 C 0.3151(4) 0.5810(3) 0.13690(19) 0.0560(13) Uani 1 1 d . . . . .
C62 C 0.3216(4) 0.5842(3) 0.0850(2) 0.0666(15) Uani 1 1 d . . . . .
H62 H 0.374289 0.616541 0.076746 0.080 Uiso 1 1 calc R . . . .
C63 C 0.2506(5) 0.5399(4) 0.0454(2) 0.0826(19) Uani 1 1 d . . . . .
H63 H 0.254812 0.543831 0.010599 0.099 Uiso 1 1 calc R . . . .
C64 C 0.1751(5) 0.4910(5) 0.0567(3) 0.116(3) Uani 1 1 d . . . . .
H64 H 0.126019 0.463349 0.029519 0.140 Uiso 1 1 calc R . . . .
C65 C 0.1704(5) 0.4818(5) 0.1085(3) 0.117(3) Uani 1 1 d . . . . .
H65 H 0.121938 0.445189 0.116594 0.140 Uiso 1 1 calc R . . . .
C66 C 0.2391(4) 0.5280(4) 0.1482(3) 0.086(2) Uani 1 1 d . . . . .
H66 H 0.234394 0.523673 0.182929 0.104 Uiso 1 1 calc R . . . .
C67 C 0.4493(4) 0.5111(3) 0.22212(19) 0.0545(12) Uani 1 1 d . . . . .
H67 H 0.408898 0.475367 0.196914 0.065 Uiso 1 1 calc R . . . .
C68 C 0.5205(4) 0.4973(3) 0.26621(19) 0.0541(12) Uani 1 1 d . . . . .
H68 H 0.538095 0.450740 0.276609 0.065 Uiso 1 1 calc R . . . .
C69 C 0.5623(3) 0.5670(2) 0.29298(16) 0.0409(10) Uani 1 1 d . . . . .
C70 C 0.6392(4) 0.5743(2) 0.34458(16) 0.0411(10) Uani 1 1 d . . . . .
C71 C 0.7442(3) 0.5933(2) 0.34964(16) 0.0408(10) Uani 1 1 d . . . . .
C72 C 0.7886(3) 0.6089(2) 0.30406(15) 0.0396(10) Uani 1 1 d . . . . .
C73 C 0.8349(4) 0.5568(3) 0.28128(17) 0.0478(11) Uani 1 1 d . . . . .
H73 H 0.839207 0.507508 0.290688 0.057 Uiso 1 1 calc R . . . .
C74 C 0.8723(3) 0.5927(3) 0.24278(17) 0.0477(11) Uani 1 1 d . . . . .
H74 H 0.907528 0.572426 0.221429 0.057 Uiso 1 1 calc R . . . .
C75 C 0.8120(4) 0.5879(3) 0.39891(17) 0.0514(12) Uani 1 1 d . . . . .
H75 H 0.881934 0.599081 0.402516 0.062 Uiso 1 1 calc R . . . .
C76 C 0.7766(5) 0.5662(3) 0.44214(18) 0.0575(13) Uani 1 1 d . . . . .
H76 H 0.822582 0.563980 0.474756 0.069 Uiso 1 1 calc R . . . .
C77 C 0.6748(5) 0.5480(3) 0.43734(18) 0.0591(14) Uani 1 1 d . . . . .
H77 H 0.651170 0.533561 0.466621 0.071 Uiso 1 1 calc R . . . .
C78 C 0.6062(4) 0.5510(3) 0.38854(18) 0.0546(13) Uani 1 1 d . . . . .
H78 H 0.536686 0.537140 0.385304 0.065 Uiso 1 1 calc R . . . .
C79 C 0.5700(4) 0.7210(3) 0.3621(2) 0.0495(12) Uani 1 1 d . . . . .
C80 C 0.5279(4) 0.8316(3) 0.31345(19) 0.0628(14) Uani 1 1 d . . . . .
C81 C 0.4878(6) 0.9524(3) 0.2233(2) 0.092(2) Uani 1 1 d . . . . .
H81 H 0.417280 0.941964 0.217850 0.110 Uiso 1 1 calc R . . . .
C82 C 0.5383(8) 1.0228(4) 0.2425(3) 0.108(3) Uani 1 1 d . . . . .
H82 H 0.502888 1.059524 0.250755 0.130 Uiso 1 1 calc R . . . .
C83 C 0.6413(8) 1.0372(4) 0.2492(3) 0.107(3) Uani 1 1 d . . . . .
H83 H 0.675967 1.084267 0.262767 0.129 Uiso 1 1 calc R . . . .
C84 C 0.6963(6) 0.9841(3) 0.2364(2) 0.089(2) Uani 1 1 d . . . . .
H84 H 0.766174 0.996197 0.240227 0.107 Uiso 1 1 calc R . . . .
C85 C 0.9236(4) 0.7007(3) 0.16714(18) 0.0547(13) Uani 1 1 d . . . . .
C86 C 0.8800(4) 0.6747(3) 0.11516(19) 0.0650(15) Uani 1 1 d . . . . .
H86 H 0.809558 0.668878 0.101562 0.078 Uiso 1 1 calc R . . . .
C87 C 0.9421(6) 0.6574(4) 0.0835(2) 0.087(2) Uani 1 1 d . . . . .
H87 H 0.913199 0.641550 0.048412 0.104 Uiso 1 1 calc R . . . .
C88 C 1.0447(7) 0.6636(5) 0.1036(3) 0.106(3) Uani 1 1 d . . . . .
H88 H 1.085045 0.650021 0.082422 0.128 Uiso 1 1 calc R . . . .
C89 C 1.0902(6) 0.6897(5) 0.1550(3) 0.120(3) Uani 1 1 d . . . . .
H89 H 1.160639 0.695327 0.168478 0.143 Uiso 1 1 calc R . . . .
C90 C 1.0270(5) 0.7075(4) 0.1862(2) 0.090(2) Uani 1 1 d . . . . .
H90 H 1.056331 0.724456 0.221094 0.108 Uiso 1 1 calc R . . . .
C91 C 0.8134(4) 0.7630(3) 0.37524(18) 0.0497(12) Uani 1 1 d . . . . .
C92 C 0.7720(5) 0.8757(3) 0.3278(2) 0.0690(16) Uani 1 1 d . . . . .
Rh5 Rh 0.63265(3) 0.25999(2) 0.04239(2) 0.05554(12) Uani 1 1 d . . . . .
Rh6 Rh 0.68404(4) 0.14679(2) 0.13453(2) 0.05995(12) Uani 1 1 d . . . . .
O9 O 0.5497(5) 0.0093(3) 0.0818(3) 0.177(3) Uani 1 1 d . . . . .
O10 O 0.8261(5) 0.0652(3) 0.0958(3) 0.149(2) Uani 1 1 d . . . . .
O11 O 0.7652(4) 0.1869(3) -0.01014(19) 0.123(2) Uani 1 1 d . . . . .
O12 O 0.4884(4) 0.1437(3) -0.0305(2) 0.148(2) Uani 1 1 d . . . . .
N9 N 0.5237(3) 0.3069(2) 0.06957(13) 0.0489(10) Uani 1 1 d . . . . .
N10 N 0.7416(3) 0.3482(2) 0.08236(14) 0.0498(10) Uani 1 1 d . . . . .
N11 N 0.7944(3) 0.2292(2) 0.18006(14) 0.0546(10) Uani 1 1 d . . . . .
N12 N 0.5768(3) 0.1881(2) 0.16683(14) 0.0490(10) Uani 1 1 d . . . . .
C93 C 0.5310(4) 0.3837(3) 0.08038(17) 0.0491(12) Uani 1 1 d . . . . .
C94 C 0.6198(4) 0.4350(3) 0.08893(16) 0.0451(11) Uani 1 1 d . . . . .
C95 C 0.7164(4) 0.4183(3) 0.09221(18) 0.0524(12) Uani 1 1 d . . . . .
C96 C 0.8448(4) 0.3562(3) 0.0925(2) 0.0628(14) Uani 1 1 d . . . . .
C97 C 0.8867(5) 0.4311(4) 0.1082(3) 0.088(2) Uani 1 1 d . . . . .
H97 H 0.955791 0.450857 0.117324 0.106 Uiso 1 1 calc R . . . .
C98 C 0.8083(4) 0.4696(3) 0.1078(2) 0.0687(15) Uani 1 1 d . . . . .
H98 H 0.813977 0.520444 0.116347 0.082 Uiso 1 1 calc R . . . .
C99 C 0.9073(4) 0.2983(4) 0.0889(2) 0.0699(16) Uani 1 1 d . . . . .
C100 C 0.9313(5) 0.2481(4) 0.1296(2) 0.0748(17) Uani 1 1 d . . . . .
C101 C 0.8915(5) 0.2529(3) 0.1773(2) 0.0666(15) Uani 1 1 d . . . . .
C102 C 0.6027(4) 0.2208(2) 0.21783(17) 0.0473(11) Uani 1 1 d . . . . .
C103 C 0.7008(4) 0.2470(2) 0.24758(16) 0.0445(11) Uani 1 1 d . . . . .
C104 C 0.7899(4) 0.2515(3) 0.23046(18) 0.0561(13) Uani 1 1 d . . . . .
C105 C 0.8865(4) 0.2864(4) 0.2583(2) 0.0824(19) Uani 1 1 d . . . . .
H105 H 0.904779 0.304959 0.293143 0.099 Uiso 1 1 calc R . . . .
C106 C 0.9496(5) 0.2884(4) 0.2252(3) 0.100(2) Uani 1 1 d . . . . .
H106 H 1.018150 0.309430 0.233022 0.120 Uiso 1 1 calc R . . . .
C107 C 0.7105(3) 0.2798(2) 0.30146(16) 0.0402(10) Uani 1 1 d . . . . .
C108 C 0.7213(3) 0.2349(2) 0.34486(16) 0.0461(11) Uani 1 1 d . . . . .
H108 H 0.724411 0.184076 0.340744 0.055 Uiso 1 1 calc R . . . .
C109 C 0.7276(3) 0.2660(3) 0.39429(17) 0.0475(11) Uani 1 1 d . . . . .
H109 H 0.735414 0.236027 0.423360 0.057 Uiso 1 1 calc R . . . .
C110 C 0.7222(3) 0.3403(3) 0.40056(18) 0.0499(12) Uani 1 1 d . . . . .
H110 H 0.724714 0.360475 0.433683 0.060 Uiso 1 1 calc R . . . .
C111 C 0.7133(4) 0.3852(3) 0.35830(18) 0.0533(12) Uani 1 1 d . . . . .
H111 H 0.711518 0.436174 0.362910 0.064 Uiso 1 1 calc R . . . .
C112 C 0.7069(4) 0.3551(2) 0.30870(17) 0.0498(12) Uani 1 1 d . . . . .
H112 H 0.700047 0.385821 0.280017 0.060 Uiso 1 1 calc R . . . .
C113 C 0.5117(4) 0.2268(3) 0.23240(19) 0.0594(13) Uani 1 1 d . . . . .
H113 H 0.507290 0.246229 0.264567 0.071 Uiso 1 1 calc R . . . .
C114 C 0.4315(4) 0.1994(3) 0.1912(2) 0.0642(14) Uani 1 1 d . . . . .
H114 H 0.362409 0.196591 0.189576 0.077 Uiso 1 1 calc R . . . .
C115 C 0.4749(4) 0.1760(3) 0.15120(19) 0.0574(13) Uani 1 1 d . . . . .
C116 C 0.4094(4) 0.1464(3) 0.09852(19) 0.0631(14) Uani 1 1 d . . . . .
C117 C 0.3838(4) 0.1968(3) 0.05875(19) 0.0639(15) Uani 1 1 d . . . . .
C118 C 0.4247(4) 0.2780(3) 0.06687(18) 0.0571(13) Uani 1 1 d . . . . .
C119 C 0.3690(4) 0.3333(3) 0.0759(2) 0.0684(15) Uani 1 1 d . . . . .
H119 H 0.300557 0.326412 0.076416 0.082 Uiso 1 1 calc R . . . .
C120 C 0.4344(4) 0.3998(3) 0.08394(19) 0.0591(13) Uani 1 1 d . . . . .
H120 H 0.418524 0.446758 0.090506 0.071 Uiso 1 1 calc R . . . .
C121 C 0.3105(5) 0.1707(4) 0.0123(2) 0.093(2) Uani 1 1 d . . . . .
H121 H 0.290892 0.204133 -0.013878 0.111 Uiso 1 1 calc R . . . .
C122 C 0.2669(6) 0.0969(5) 0.0046(3) 0.117(3) Uani 1 1 d . . . . .
H122 H 0.219760 0.080130 -0.027058 0.140 Uiso 1 1 calc R . . . .
C123 C 0.2933(6) 0.0474(4) 0.0438(3) 0.119(3) Uani 1 1 d . . . . .
H123 H 0.264547 -0.002890 0.038442 0.143 Uiso 1 1 calc R . . . .
C124 C 0.3625(6) 0.0724(4) 0.0912(3) 0.098(2) Uani 1 1 d . . . . .
H124 H 0.377524 0.039316 0.118158 0.117 Uiso 1 1 calc R . . . .
C125 C 0.5941(6) 0.0644(4) 0.1014(3) 0.096(2) Uani 1 1 d . . . . .
C126 C 0.7772(6) 0.1016(4) 0.1108(2) 0.091(2) Uani 1 1 d . . . . .
C127 C 1.0049(6) 0.2014(4) 0.1292(3) 0.106(2) Uani 1 1 d . . . . .
H127 H 1.021976 0.169045 0.156469 0.127 Uiso 1 1 calc R . . . .
C128 C 1.0518(6) 0.2038(5) 0.0883(3) 0.115(3) Uani 1 1 d . . . . .
H128 H 1.099476 0.172049 0.087808 0.138 Uiso 1 1 calc R . . . .
C129 C 1.0293(6) 0.2520(5) 0.0486(3) 0.111(3) Uani 1 1 d . . . . .
H129 H 1.061487 0.253244 0.021274 0.133 Uiso 1 1 calc R . . . .
C130 C 0.9590(5) 0.2987(4) 0.0491(2) 0.0855(19) Uani 1 1 d . . . . .
H130 H 0.945101 0.331896 0.022082 0.103 Uiso 1 1 calc R . . . .
C131 C 0.6131(3) 0.5159(3) 0.09789(17) 0.0455(11) Uani 1 1 d . . . . .
C132 C 0.6263(3) 0.5471(3) 0.14827(17) 0.0520(12) Uani 1 1 d . . . . .
H132 H 0.639769 0.517466 0.177415 0.062 Uiso 1 1 calc R . . . .
C133 C 0.6195(4) 0.6223(3) 0.1551(2) 0.0564(13) Uani 1 1 d . . . . .
H133 H 0.629553 0.642862 0.189021 0.068 Uiso 1 1 calc R . . . .
C134 C 0.5981(4) 0.6669(3) 0.1126(2) 0.0590(13) Uani 1 1 d . . . . .
H134 H 0.592199 0.717077 0.117329 0.071 Uiso 1 1 calc R . . . .
C135 C 0.5857(4) 0.6355(3) 0.0630(2) 0.0646(14) Uani 1 1 d . . . . .
H135 H 0.571746 0.665248 0.033896 0.078 Uiso 1 1 calc R . . . .
C136 C 0.5935(4) 0.5610(3) 0.05531(18) 0.0568(13) Uani 1 1 d . . . . .
H136 H 0.585425 0.541131 0.021398 0.068 Uiso 1 1 calc R . . . .
C137 C 0.7217(5) 0.2186(4) 0.0122(2) 0.0787(18) Uani 1 1 d . . . . .
C138 C 0.5380(5) 0.1879(3) -0.0009(3) 0.0854(19) Uani 1 1 d . . . . .
loop_
_atom_site_aniso_label
_atom_site_aniso_U_11
_atom_site_aniso_U_22
_atom_site_aniso_U_33
_atom_site_aniso_U_23
_atom_site_aniso_U_13
_atom_site_aniso_U_12
Rh1 0.0391(2) 0.04003(19) 0.04157(19) 0.00626(15) 0.01318(16) 0.00393(16)
Rh2 0.0363(2) 0.0516(2) 0.0459(2) 0.00414(17) 0.01081(16) 0.00312(17)
O1 0.119(4) 0.100(3) 0.048(2) 0.004(2) 0.028(2) 0.016(3)
O2 0.152(5) 0.072(3) 0.084(3) 0.032(2) 0.035(3) 0.028(3)
O3 0.106(3) 0.102(3) 0.043(2) 0.009(2) 0.011(2) 0.025(3)
O4 0.216(6) 0.073(3) 0.089(3) 0.026(3) 0.020(3) 0.070(4)
N1 0.0357(19) 0.0345(18) 0.0298(17) -0.0016(14) 0.0143(15) -0.0015(15)
N2 0.033(2) 0.0331(19) 0.047(2) 0.0040(16) 0.0122(16) 0.0016(15)
N3 0.037(2) 0.037(2) 0.048(2) 0.0016(17) 0.0085(17) -0.0009(16)
N4 0.0305(19) 0.047(2) 0.044(2) -0.0019(17) 0.0098(16) 0.0026(16)
C1 0.032(2) 0.031(2) 0.032(2) -0.0043(17) 0.0084(17) -0.0016(17)
C2 0.027(2) 0.037(2) 0.034(2) -0.0005(17) 0.0090(17) -0.0007(17)
C3 0.032(2) 0.035(2) 0.042(2) -0.0011(18) 0.0112(19) 0.0029(18)
C4 0.041(3) 0.030(2) 0.055(3) 0.000(2) 0.009(2) 0.0054(19)
C5 0.068(3) 0.034(2) 0.063(3) -0.010(2) 0.027(3) 0.003(2)
C6 0.054(3) 0.040(2) 0.050(3) 0.000(2) 0.023(2) 0.006(2)
C7 0.050(3) 0.030(2) 0.053(3) 0.003(2) 0.010(2) 0.004(2)
C8 0.052(3) 0.036(2) 0.055(3) 0.002(2) 0.018(2) 0.004(2)
C9 0.041(3) 0.037(2) 0.055(3) 0.000(2) 0.014(2) -0.002(2)
C10 0.033(2) 0.052(3) 0.048(3) -0.002(2) 0.012(2) 0.007(2)
C11 0.027(2) 0.057(3) 0.044(2) 0.000(2) 0.0050(19) 0.004(2)
C12 0.035(2) 0.043(3) 0.047(3) -0.002(2) 0.006(2) -0.003(2)
C13 0.056(3) 0.057(3) 0.051(3) -0.004(2) 0.002(2) 0.003(3)
C14 0.074(4) 0.047(3) 0.055(3) -0.006(2) 0.008(3) 0.006(3)
C15 0.041(3) 0.058(3) 0.053(3) -0.004(2) 0.007(2) 0.015(2)
C16 0.045(3) 0.081(4) 0.065(3) 0.013(3) 0.009(3) 0.021(3)
C17 0.073(5) 0.108(5) 0.068(4) 0.017(4) 0.007(3) 0.039(4)
C18 0.069(5) 0.147(8) 0.073(4) -0.003(5) -0.018(4) 0.046(5)
C19 0.052(4) 0.110(6) 0.116(6) -0.032(5) -0.013(4) 0.006(4)
C20 0.047(3) 0.081(4) 0.077(4) -0.009(3) -0.006(3) 0.000(3)
C21 0.040(3) 0.060(3) 0.055(3) -0.004(2) 0.008(2) 0.014(2)
C22 0.051(3) 0.050(3) 0.061(3) -0.006(2) 0.018(3) 0.013(2)
C23 0.034(2) 0.047(3) 0.043(2) -0.005(2) 0.016(2) -0.004(2)
C24 0.040(3) 0.050(3) 0.043(2) -0.007(2) 0.013(2) -0.001(2)
C25 0.035(2) 0.039(2) 0.037(2) -0.0041(18) 0.0131(19) -0.0026(19)
C26 0.029(2) 0.040(2) 0.031(2) -0.0041(18) 0.0087(17) -0.0023(18)
C27 0.051(3) 0.034(2) 0.046(2) -0.0004(19) 0.019(2) 0.006(2)
C28 0.041(3) 0.040(2) 0.037(2) -0.0030(19) 0.0158(19) -0.004(2)
C29 0.044(3) 0.070(3) 0.042(3) -0.006(2) 0.010(2) 0.003(2)
C30 0.070(4) 0.084(4) 0.036(3) -0.012(3) 0.013(3) 0.007(3)
C31 0.076(4) 0.097(4) 0.041(3) -0.009(3) 0.033(3) 0.011(3)
C32 0.052(3) 0.084(4) 0.052(3) -0.009(3) 0.025(3) 0.006(3)
C33 0.057(3) 0.061(3) 0.054(3) 0.012(3) 0.022(3) 0.008(3)
C34 0.053(3) 0.067(4) 0.060(3) 0.005(3) 0.010(3) 0.005(3)
C35 0.055(3) 0.046(3) 0.088(4) 0.008(3) 0.024(3) -0.004(3)
C36 0.075(4) 0.040(3) 0.086(4) 0.015(3) 0.022(3) -0.009(3)
C37 0.075(4) 0.033(3) 0.101(4) 0.014(3) 0.016(3) 0.011(3)
C38 0.044(3) 0.043(3) 0.092(4) 0.004(3) 0.009(3) 0.006(2)
C39 0.036(2) 0.035(2) 0.036(2) -0.0089(18) 0.0158(19) -0.0039(19)
C40 0.041(3) 0.061(3) 0.044(3) 0.001(2) 0.017(2) -0.006(2)
C41 0.074(4) 0.051(3) 0.056(3) 0.007(2) 0.027(3) -0.004(3)
C42 0.084(5) 0.061(3) 0.070(4) -0.004(3) 0.048(3) -0.010(3)
C43 0.045(3) 0.084(4) 0.096(4) -0.007(4) 0.038(3) -0.002(3)
C44 0.046(3) 0.057(3) 0.068(3) -0.003(3) 0.020(3) 0.008(2)
C45 0.053(3) 0.054(3) 0.049(3) 0.014(2) 0.013(2) 0.010(2)
C46 0.097(5) 0.060(4) 0.056(3) 0.008(3) 0.021(3) 0.024(3)
Rh3 0.0482(2) 0.03945(19) 0.03679(18) -0.00144(15) 0.00921(16) -0.00374(16)
Rh4 0.0447(2) 0.0434(2) 0.04178(19) 0.00029(16) 0.01040(16) 0.00777(17)
O5 0.107(3) 0.067(3) 0.046(2) 0.0007(18) 0.011(2) 0.007(2)
O6 0.186(5) 0.048(2) 0.080(3) -0.012(2) 0.049(3) 0.010(3)
O7 0.094(3) 0.077(3) 0.041(2) -0.0046(18) 0.0066(19) 0.012(2)
O8 0.189(5) 0.058(3) 0.073(3) -0.017(2) 0.007(3) 0.014(3)
N5 0.042(2) 0.041(2) 0.0314(18) 0.0029(15) 0.0078(16) 0.0007(17)
N6 0.063(3) 0.033(2) 0.039(2) -0.0001(16) 0.0084(19) -0.0009(19)
N7 0.056(3) 0.046(2) 0.045(2) 0.0028(18) 0.0127(19) 0.0178(19)
N8 0.041(2) 0.043(2) 0.0371(19) 0.0024(16) 0.0119(16) 0.0108(17)
C47 0.039(3) 0.051(3) 0.032(2) 0.002(2) 0.0068(19) -0.002(2)
C48 0.042(3) 0.051(3) 0.036(2) 0.000(2) 0.009(2) -0.008(2)
C49 0.063(3) 0.043(3) 0.038(2) 0.002(2) 0.013(2) -0.005(2)
C50 0.074(4) 0.041(3) 0.054(3) 0.004(2) 0.012(3) 0.003(3)
C51 0.113(5) 0.052(3) 0.043(3) 0.014(2) 0.017(3) 0.008(3)
C52 0.090(4) 0.052(3) 0.043(3) 0.009(2) 0.024(3) 0.006(3)
C53 0.102(5) 0.034(3) 0.048(3) 0.009(2) 0.011(3) 0.017(3)
C54 0.115(5) 0.041(3) 0.045(3) 0.010(2) 0.021(3) 0.026(3)
C55 0.074(4) 0.060(3) 0.053(3) 0.014(3) 0.017(3) 0.032(3)
C56 0.034(2) 0.057(3) 0.042(2) 0.000(2) 0.012(2) 0.006(2)
C57 0.033(2) 0.062(3) 0.045(3) -0.004(2) 0.013(2) 0.010(2)
C58 0.041(3) 0.062(3) 0.047(3) 0.000(2) 0.008(2) 0.020(2)
C59 0.069(4) 0.085(4) 0.058(3) 0.001(3) -0.005(3) 0.034(3)
C60 0.104(5) 0.065(4) 0.060(3) 0.007(3) 0.001(3) 0.040(4)
C61 0.043(3) 0.071(3) 0.053(3) -0.009(3) 0.007(2) 0.015(3)
C62 0.057(3) 0.085(4) 0.055(3) -0.002(3) 0.004(3) 0.019(3)
C63 0.083(5) 0.105(5) 0.050(3) -0.021(3) -0.009(3) 0.027(4)
C64 0.069(5) 0.150(8) 0.109(6) -0.062(6) 0.002(4) -0.012(5)
C65 0.063(4) 0.158(8) 0.116(6) -0.054(6) 0.023(4) -0.024(5)
C66 0.050(4) 0.118(6) 0.086(4) -0.025(4) 0.021(3) -0.011(4)
C67 0.056(3) 0.047(3) 0.058(3) -0.004(2) 0.014(3) 0.000(2)
C68 0.065(3) 0.038(3) 0.058(3) 0.007(2) 0.012(3) 0.012(2)
C69 0.037(2) 0.044(3) 0.045(2) 0.003(2) 0.017(2) 0.004(2)
C70 0.053(3) 0.037(2) 0.037(2) 0.0055(19) 0.015(2) 0.014(2)
C71 0.048(3) 0.035(2) 0.041(2) 0.0069(19) 0.014(2) 0.006(2)
C72 0.037(2) 0.045(3) 0.032(2) 0.0024(19) 0.0037(19) 0.000(2)
C73 0.055(3) 0.044(3) 0.047(3) 0.008(2) 0.015(2) 0.010(2)
C74 0.043(3) 0.056(3) 0.043(3) -0.004(2) 0.009(2) 0.008(2)
C75 0.050(3) 0.057(3) 0.041(3) 0.008(2) 0.001(2) 0.007(2)
C76 0.084(4) 0.053(3) 0.036(3) 0.009(2) 0.011(3) 0.018(3)
C77 0.089(4) 0.057(3) 0.043(3) 0.016(2) 0.031(3) 0.022(3)
C78 0.059(3) 0.063(3) 0.050(3) 0.009(2) 0.026(3) 0.016(3)
C79 0.053(3) 0.041(3) 0.052(3) 0.000(2) 0.015(2) 0.000(2)
C80 0.089(4) 0.054(3) 0.045(3) 0.001(2) 0.017(3) 0.011(3)
C81 0.148(7) 0.063(4) 0.081(4) 0.011(3) 0.036(4) 0.057(4)
C82 0.216(10) 0.062(5) 0.072(4) 0.015(3) 0.051(6) 0.082(6)
C83 0.217(10) 0.040(3) 0.064(4) 0.005(3) 0.025(6) 0.037(5)
C84 0.157(7) 0.037(3) 0.065(4) -0.002(3) 0.017(4) 0.009(4)
C85 0.061(3) 0.059(3) 0.045(3) 0.007(2) 0.019(2) -0.001(3)
C86 0.077(4) 0.068(4) 0.047(3) -0.005(3) 0.020(3) -0.007(3)
C87 0.118(6) 0.090(5) 0.059(4) -0.008(3) 0.041(4) 0.003(4)
C88 0.126(7) 0.136(7) 0.079(5) 0.007(5) 0.061(5) 0.030(6)
C89 0.084(5) 0.199(9) 0.091(5) 0.007(6) 0.046(4) 0.030(6)
C90 0.066(4) 0.141(6) 0.063(4) 0.000(4) 0.025(3) 0.004(4)
C91 0.050(3) 0.054(3) 0.043(3) -0.008(2) 0.010(2) 0.003(2)
C92 0.094(5) 0.053(3) 0.049(3) -0.001(3) 0.009(3) -0.010(3)
Rh5 0.0720(3) 0.0441(2) 0.0451(2) 0.00120(17) 0.0045(2) 0.0099(2)
Rh6 0.0937(3) 0.0467(2) 0.0409(2) -0.00233(17) 0.0133(2) 0.0225(2)
O9 0.172(6) 0.097(4) 0.230(7) -0.099(5) -0.002(5) 0.011(4)
O10 0.171(6) 0.115(4) 0.189(6) -0.046(4) 0.079(5) 0.051(4)
O11 0.131(4) 0.144(5) 0.098(4) -0.043(3) 0.012(3) 0.063(4)
O12 0.137(5) 0.133(5) 0.153(5) -0.097(4) 0.030(4) -0.029(4)
N9 0.054(3) 0.044(2) 0.039(2) 0.0035(17) -0.0007(18) -0.0024(19)
N10 0.054(3) 0.048(2) 0.045(2) 0.0022(18) 0.0079(19) 0.010(2)
N11 0.067(3) 0.055(3) 0.044(2) 0.0015(19) 0.012(2) 0.022(2)
N12 0.067(3) 0.035(2) 0.040(2) -0.0006(16) 0.008(2) 0.0027(19)
C93 0.054(3) 0.046(3) 0.041(2) 0.001(2) 0.003(2) 0.004(2)
C94 0.049(3) 0.052(3) 0.032(2) 0.004(2) 0.006(2) 0.007(2)
C95 0.058(3) 0.043(3) 0.051(3) -0.001(2) 0.009(2) 0.001(2)
C96 0.059(4) 0.073(4) 0.057(3) -0.001(3) 0.012(3) 0.017(3)
C97 0.048(4) 0.078(4) 0.130(6) -0.026(4) 0.015(4) 0.002(3)
C98 0.054(3) 0.056(3) 0.090(4) -0.008(3) 0.009(3) 0.006(3)
C99 0.057(4) 0.086(4) 0.071(4) -0.007(3) 0.023(3) 0.016(3)
C100 0.071(4) 0.088(5) 0.077(4) -0.008(3) 0.032(3) 0.024(3)
C101 0.071(4) 0.070(4) 0.065(4) -0.006(3) 0.028(3) 0.015(3)
C102 0.068(3) 0.033(2) 0.039(2) 0.0009(19) 0.008(2) 0.013(2)
C103 0.066(3) 0.033(2) 0.035(2) 0.0026(19) 0.011(2) 0.014(2)
C104 0.072(4) 0.055(3) 0.041(3) -0.003(2) 0.015(3) 0.013(3)
C105 0.065(4) 0.116(5) 0.063(4) -0.023(4) 0.016(3) 0.004(4)
C106 0.077(5) 0.136(7) 0.087(5) -0.019(5) 0.027(4) 0.003(4)
C107 0.046(3) 0.038(2) 0.036(2) 0.0011(19) 0.009(2) 0.005(2)
C108 0.057(3) 0.036(2) 0.043(2) 0.003(2) 0.008(2) 0.006(2)
C109 0.042(3) 0.057(3) 0.039(2) 0.012(2) 0.005(2) 0.002(2)
C110 0.040(3) 0.065(3) 0.043(3) -0.007(2) 0.009(2) 0.004(2)
C111 0.062(3) 0.045(3) 0.055(3) -0.008(2) 0.015(3) 0.017(2)
C112 0.071(3) 0.039(2) 0.042(2) 0.009(2) 0.015(2) 0.017(2)
C113 0.068(4) 0.059(3) 0.049(3) -0.005(2) 0.011(3) 0.012(3)
C114 0.055(3) 0.072(4) 0.061(3) -0.006(3) 0.007(3) 0.007(3)
C115 0.078(4) 0.038(3) 0.049(3) 0.004(2) 0.009(3) -0.002(3)
C116 0.072(4) 0.050(3) 0.053(3) -0.006(2) 0.001(3) -0.009(3)
C117 0.065(4) 0.061(3) 0.050(3) -0.003(3) -0.001(3) -0.013(3)
C118 0.061(3) 0.049(3) 0.047(3) 0.005(2) -0.003(2) -0.009(3)
C119 0.048(3) 0.075(4) 0.077(4) 0.003(3) 0.012(3) -0.003(3)
C120 0.055(3) 0.057(3) 0.060(3) 0.006(3) 0.005(3) 0.011(3)
C121 0.095(5) 0.092(5) 0.062(4) -0.002(3) -0.009(3) -0.027(4)
C122 0.126(7) 0.110(6) 0.077(5) -0.023(4) -0.003(4) -0.048(5)
C123 0.139(7) 0.080(5) 0.106(6) -0.026(4) 0.008(5) -0.051(5)
C124 0.128(6) 0.065(4) 0.078(4) -0.001(3) 0.006(4) -0.024(4)
C125 0.120(6) 0.064(4) 0.096(5) -0.032(4) 0.012(4) 0.021(4)
C126 0.128(6) 0.069(4) 0.084(4) -0.017(3) 0.031(4) 0.033(4)
C127 0.132(7) 0.110(6) 0.108(5) 0.017(4) 0.063(5) 0.065(5)
C128 0.124(7) 0.117(7) 0.140(7) 0.004(6) 0.075(6) 0.059(6)
C129 0.124(7) 0.124(7) 0.118(6) 0.004(5) 0.076(6) 0.045(6)
C130 0.088(5) 0.104(5) 0.078(4) 0.012(4) 0.039(4) 0.026(4)
C131 0.044(3) 0.047(3) 0.040(2) -0.004(2) 0.003(2) 0.002(2)
C132 0.047(3) 0.067(3) 0.039(3) 0.007(2) 0.009(2) 0.004(2)
C133 0.049(3) 0.063(3) 0.054(3) -0.015(3) 0.014(2) 0.000(3)
C134 0.054(3) 0.050(3) 0.067(3) -0.009(3) 0.007(3) 0.004(2)
C135 0.078(4) 0.053(3) 0.055(3) 0.007(3) 0.001(3) 0.011(3)
C136 0.073(4) 0.048(3) 0.039(3) 0.000(2) -0.002(2) 0.002(3)
C137 0.095(5) 0.073(4) 0.061(4) -0.010(3) 0.002(3) 0.023(4)
C138 0.098(5) 0.061(4) 0.091(5) -0.024(3) 0.015(4) 0.009(4)
loop_
_atom_type_symbol
_atom_type_description
_atom_type_scat_dispersion_real
_atom_type_scat_dispersion_imag
_atom_type_scat_source
C C 0.0033 0.0016 'International Tables Vol C Tables 4.2.6.8 and 6.1.1.4'
H H 0.0000 0.0000 'International Tables Vol C Tables 4.2.6.8 and 6.1.1.4'
N N 0.0061 0.0033 'International Tables Vol C Tables 4.2.6.8 and 6.1.1.4'
O O 0.0106 0.0060 'International Tables Vol C Tables 4.2.6.8 and 6.1.1.4'
Rh Rh -1.1178 0.9187 'International Tables Vol C Tables 4.2.6.8 and 6.1.1.4'
loop_
_geom_angle_atom_site_label_1
_geom_angle_atom_site_label_2
_geom_angle_atom_site_label_3
_geom_angle
_geom_angle_site_symmetry_1
_geom_angle_site_symmetry_3
_geom_angle_publ_flag
N2 Rh1 N1 87.02(12) . . ?
C45 Rh1 N1 94.94(17) . . ?
C45 Rh1 N2 171.80(18) . . ?
C46 Rh1 N1 171.1(2) . . ?
C46 Rh1 N2 92.07(18) . . ?
C46 Rh1 C45 84.8(2) . . ?
N3 Rh2 N4 87.85(13) . . ?
C33 Rh2 N3 174.99(18) . . ?
C33 Rh2 N4 93.91(18) . . ?
C34 Rh2 N3 94.71(19) . . ?
C34 Rh2 N4 174.10(19) . . ?
C34 Rh2 C33 83.1(2) . . ?
C1 N1 Rh1 120.3(2) . . ?
C26 N1 Rh1 131.5(3) . . ?
C26 N1 C1 106.4(3) . . ?
C3 N2 Rh1 119.5(3) . . ?
C4 N2 Rh1 131.1(3) . . ?
C4 N2 C3 105.9(3) . . ?
C9 N3 Rh2 130.0(3) . . ?
C9 N3 C12 106.3(4) . . ?
C12 N3 Rh2 123.0(3) . . ?
C10 N4 Rh2 122.4(3) . . ?
C23 N4 Rh2 128.8(3) . . ?
C23 N4 C10 105.2(4) . . ?
N1 C1 C28 108.5(3) . . ?
C2 C1 N1 125.8(3) . . ?
C2 C1 C28 125.5(4) . . ?
C1 C2 C3 125.0(4) . . ?
C1 C2 C39 117.4(3) . . ?
C3 C2 C39 117.5(3) . . ?
N2 C3 C6 109.0(3) . . ?
C2 C3 N2 124.4(3) . . ?
C2 C3 C6 125.6(4) . . ?
N2 C4 C5 110.8(4) . . ?
N2 C4 C7 125.5(4) . . ?
C5 C4 C7 123.7(4) . . ?
C4 C5 H5 126.1 . . ?
C6 C5 C4 107.9(4) . . ?
C6 C5 H5 126.1 . . ?
C3 C6 H6 126.8 . . ?
C5 C6 C3 106.5(4) . . ?
C5 C6 H6 126.8 . . ?
C8 C7 C4 123.3(4) . . ?
C38 C7 C4 118.2(4) . . ?
C38 C7 C8 118.0(4) . . ?
C7 C8 C9 124.1(4) . . ?
C7 C8 C35 118.7(4) . . ?
C35 C8 C9 116.4(4) . . ?
N3 C9 C8 127.8(4) . . ?
N3 C9 C14 110.6(4) . . ?
C14 C9 C8 121.4(4) . . ?
C11 C10 N4 123.6(4) . . ?
C11 C10 C21 127.2(4) . . ?
C21 C10 N4 108.9(4) . . ?
C10 C11 C15 117.7(4) . . ?
C12 C11 C10 126.6(4) . . ?
C12 C11 C15 115.6(4) . . ?
N3 C12 C13 108.7(4) . . ?
C11 C12 N3 125.5(4) . . ?
C11 C12 C13 125.2(4) . . ?
C12 C13 H13 126.5 . . ?
C14 C13 C12 107.0(4) . . ?
C14 C13 H13 126.5 . . ?
C9 C14 H14 126.3 . . ?
C13 C14 C9 107.5(4) . . ?
C13 C14 H14 126.3 . . ?
C16 C15 C11 121.9(5) . . ?
C16 C15 C20 118.8(5) . . ?
C20 C15 C11 119.3(5) . . ?
C15 C16 H16 119.5 . . ?
C15 C16 C17 121.1(6) . . ?
C17 C16 H16 119.5 . . ?
C16 C17 H17 120.0 . . ?
C18 C17 C16 120.1(7) . . ?
C18 C17 H17 120.0 . . ?
C17 C18 H18 119.8 . . ?
C17 C18 C19 120.4(6) . . ?
C19 C18 H18 119.8 . . ?
C18 C19 H19 119.9 . . ?
C18 C19 C20 120.2(6) . . ?
C20 C19 H19 119.9 . . ?
C15 C20 C19 119.4(6) . . ?
C15 C20 H20 120.3 . . ?
C19 C20 H20 120.3 . . ?
C10 C21 H21 126.2 . . ?
C22 C21 C10 107.6(4) . . ?
C22 C21 H21 126.2 . . ?
C21 C22 H22 126.2 . . ?
C21 C22 C23 107.6(4) . . ?
C23 C22 H22 126.2 . . ?
N4 C23 C22 110.6(4) . . ?
N4 C23 C24 124.7(4) . . ?
C22 C23 C24 124.6(4) . . ?
C25 C24 C23 124.0(4) . . ?
C32 C24 C23 116.5(4) . . ?
C32 C24 C25 119.3(4) . . ?
C24 C25 C26 122.2(4) . . ?
C29 C25 C24 119.0(4) . . ?
C29 C25 C26 117.6(4) . . ?
N1 C26 C25 128.2(4) . . ?
N1 C26 C27 110.8(3) . . ?
C27 C26 C25 120.8(4) . . ?
C26 C27 H27 126.5 . . ?
C28 C27 C26 107.1(4) . . ?
C28 C27 H27 126.5 . . ?
C1 C28 H28 126.4 . . ?
C27 C28 C1 107.1(4) . . ?
C27 C28 H28 126.4 . . ?
C25 C29 H29 119.5 . . ?
C30 C29 C25 121.0(5) . . ?
C30 C29 H29 119.5 . . ?
C29 C30 H30 120.0 . . ?
C31 C30 C29 120.0(5) . . ?
C31 C30 H30 120.0 . . ?
C30 C31 H31 120.2 . . ?
C30 C31 C32 119.6(4) . . ?
C32 C31 H31 120.2 . . ?
C24 C32 H32 119.5 . . ?
C31 C32 C24 121.1(5) . . ?
C31 C32 H32 119.5 . . ?
O1 C33 Rh2 171.7(5) . . ?
O2 C34 Rh2 172.8(5) . . ?
C8 C35 H35 119.4 . . ?
C36 C35 C8 121.2(5) . . ?
C36 C35 H35 119.4 . . ?
C35 C36 H36 119.7 . . ?
C37 C36 C35 120.6(5) . . ?
C37 C36 H36 119.7 . . ?
C36 C37 H37 120.4 . . ?
C36 C37 C38 119.2(5) . . ?
C38 C37 H37 120.4 . . ?
C7 C38 H38 119.0 . . ?
C37 C38 C7 122.0(5) . . ?
C37 C38 H38 119.0 . . ?
C40 C39 C2 121.2(4) . . ?
C44 C39 C2 119.7(4) . . ?
C44 C39 C40 119.1(4) . . ?
C39 C40 H40 119.6 . . ?
C39 C40 C41 120.7(5) . . ?
C41 C40 H40 119.6 . . ?
C40 C41 H41 120.0 . . ?
C42 C41 C40 120.0(5) . . ?
C42 C41 H41 120.0 . . ?
C41 C42 H42 119.8 . . ?
C41 C42 C43 120.4(5) . . ?
C43 C42 H42 119.8 . . ?
C42 C43 H43 120.0 . . ?
C42 C43 C44 119.9(5) . . ?
C44 C43 H43 120.0 . . ?
C39 C44 C43 119.8(5) . . ?
C39 C44 H44 120.1 . . ?
C43 C44 H44 120.1 . . ?
O3 C45 Rh1 172.0(5) . . ?
O4 C46 Rh1 174.0(6) . . ?
N5 Rh3 N6 86.48(13) . . ?
C91 Rh3 N5 94.34(17) . . ?
C91 Rh3 N6 172.63(18) . . ?
C92 Rh3 N5 173.9(2) . . ?
C92 Rh3 N6 95.09(19) . . ?
C92 Rh3 C91 83.4(2) . . ?
N8 Rh4 N7 87.23(14) . . ?
C79 Rh4 N7 174.28(18) . . ?
C79 Rh4 N8 95.93(17) . . ?
C80 Rh4 N7 94.41(18) . . ?
C80 Rh4 N8 172.0(2) . . ?
C80 Rh4 C79 81.8(2) . . ?
C47 N5 Rh3 121.7(3) . . ?
C72 N5 Rh3 130.5(3) . . ?
C72 N5 C47 105.6(4) . . ?
C49 N6 Rh3 120.3(3) . . ?
C50 N6 Rh3 130.7(3) . . ?
C50 N6 C49 106.2(4) . . ?
C55 N7 Rh4 126.5(3) . . ?
C55 N7 C58 107.5(4) . . ?
C58 N7 Rh4 121.9(3) . . ?
C56 N8 Rh4 123.8(3) . . ?
C69 N8 Rh4 129.3(3) . . ?
C69 N8 C56 106.1(4) . . ?
C48 C47 N5 123.4(4) . . ?
C74 C47 N5 109.2(4) . . ?
C74 C47 C48 126.7(4) . . ?
C47 C48 C85 115.7(4) . . ?
C49 C48 C47 126.0(4) . . ?
C49 C48 C85 118.2(4) . . ?
N6 C49 C52 108.3(4) . . ?
C48 C49 N6 125.2(4) . . ?
C48 C49 C52 126.1(4) . . ?
N6 C50 C51 110.7(5) . . ?
N6 C50 C53 126.5(4) . . ?
C51 C50 C53 122.5(5) . . ?
C50 C51 H51 126.3 . . ?
C52 C51 C50 107.3(5) . . ?
C52 C51 H51 126.3 . . ?
C49 C52 H52 126.2 . . ?
C51 C52 C49 107.5(5) . . ?
C51 C52 H52 126.2 . . ?
C54 C53 C50 124.6(5) . . ?
C54 C53 C84 119.1(6) . . ?
C84 C53 C50 115.7(6) . . ?
C53 C54 C55 124.6(5) . . ?
C53 C54 C81 119.6(6) . . ?
C81 C54 C55 115.5(6) . . ?
N7 C55 C54 126.7(5) . . ?
N7 C55 C60 109.1(5) . . ?
C60 C55 C54 124.2(5) . . ?
N8 C56 C57 124.6(4) . . ?
N8 C56 C67 108.3(4) . . ?
C67 C56 C57 126.8(4) . . ?
C56 C57 C61 116.3(4) . . ?
C58 C57 C56 126.0(4) . . ?
C58 C57 C61 117.6(4) . . ?
N7 C58 C59 107.9(5) . . ?
C57 C58 N7 124.9(4) . . ?
C57 C58 C59 127.0(5) . . ?
C58 C59 H59 126.0 . . ?
C60 C59 C58 107.9(5) . . ?
C60 C59 H59 126.0 . . ?
C55 C60 H60 126.2 . . ?
C59 C60 C55 107.5(5) . . ?
C59 C60 H60 126.2 . . ?
C62 C61 C57 121.3(5) . . ?
C62 C61 C66 117.8(5) . . ?
C66 C61 C57 120.7(5) . . ?
C61 C62 H62 119.6 . . ?
C61 C62 C63 120.8(6) . . ?
C63 C62 H62 119.6 . . ?
C62 C63 H63 119.7 . . ?
C64 C63 C62 120.6(6) . . ?
C64 C63 H63 119.7 . . ?
C63 C64 H64 119.7 . . ?
C63 C64 C65 120.5(6) . . ?
C65 C64 H64 119.7 . . ?
C64 C65 H65 120.5 . . ?
C64 C65 C66 119.0(7) . . ?
C66 C65 H65 120.5 . . ?
C61 C66 H66 119.5 . . ?
C65 C66 C61 121.0(6) . . ?
C65 C66 H66 119.5 . . ?
C56 C67 H67 125.9 . . ?
C68 C67 C56 108.1(4) . . ?
C68 C67 H67 125.9 . . ?
C67 C68 H68 126.6 . . ?
C67 C68 C69 106.7(4) . . ?
C69 C68 H68 126.6 . . ?
N8 C69 C68 110.8(4) . . ?
N8 C69 C70 126.6(4) . . ?
C68 C69 C70 122.6(4) . . ?
C71 C70 C69 123.0(4) . . ?
C78 C70 C69 117.5(4) . . ?
C78 C70 C71 118.8(4) . . ?
C70 C71 C72 123.3(4) . . ?
C75 C71 C70 118.8(4) . . ?
C75 C71 C72 117.4(4) . . ?
N5 C72 C71 125.3(4) . . ?
N5 C72 C73 110.7(4) . . ?
C73 C72 C71 123.9(4) . . ?
C72 C73 H73 126.5 . . ?
C74 C73 C72 107.0(4) . . ?
C74 C73 H73 126.5 . . ?
C47 C74 H74 126.3 . . ?
C73 C74 C47 107.5(4) . . ?
C73 C74 H74 126.3 . . ?
C71 C75 H75 119.5 . . ?
C76 C75 C71 121.0(5) . . ?
C76 C75 H75 119.5 . . ?
C75 C76 H76 119.8 . . ?
C77 C76 C75 120.3(5) . . ?
C77 C76 H76 119.8 . . ?
C76 C77 H77 120.1 . . ?
C76 C77 C78 119.8(5) . . ?
C78 C77 H77 120.1 . . ?
C70 C78 C77 121.3(5) . . ?
C70 C78 H78 119.4 . . ?
C77 C78 H78 119.4 . . ?
O5 C79 Rh4 171.4(4) . . ?
O6 C80 Rh4 171.0(5) . . ?
C54 C81 H81 119.5 . . ?
C82 C81 C54 121.1(8) . . ?
C82 C81 H81 119.5 . . ?
C81 C82 H82 120.8 . . ?
C83 C82 C81 118.5(7) . . ?
C83 C82 H82 120.8 . . ?
C82 C83 H83 118.9 . . ?
C82 C83 C84 122.2(7) . . ?
C84 C83 H83 118.9 . . ?
C53 C84 H84 120.3 . . ?
C83 C84 C53 119.4(7) . . ?
C83 C84 H84 120.3 . . ?
C86 C85 C48 121.1(5) . . ?
C90 C85 C48 120.1(4) . . ?
C90 C85 C86 118.8(5) . . ?
C85 C86 H86 120.1 . . ?
C87 C86 C85 119.8(6) . . ?
C87 C86 H86 120.1 . . ?
C86 C87 H87 119.8 . . ?
C88 C87 C86 120.4(6) . . ?
C88 C87 H87 119.8 . . ?
C87 C88 H88 119.5 . . ?
C87 C88 C89 121.0(6) . . ?
C89 C88 H88 119.5 . . ?
C88 C89 H89 121.0 . . ?
C88 C89 C90 118.0(7) . . ?
C90 C89 H89 121.0 . . ?
C85 C90 C89 122.0(6) . . ?
C85 C90 H90 119.0 . . ?
C89 C90 H90 119.0 . . ?
O7 C91 Rh3 173.3(4) . . ?
O8 C92 Rh3 172.7(5) . . ?
N9 Rh5 Rh6 96.96(10) . . ?
N9 Rh5 N10 88.16(15) . . ?
N10 Rh5 Rh6 94.23(10) . . ?
C137 Rh5 Rh6 87.04(19) . . ?
C137 Rh5 N9 174.8(2) . . ?
C137 Rh5 N10 94.9(2) . . ?
C138 Rh5 Rh6 92.5(2) . . ?
C138 Rh5 N9 94.1(2) . . ?
C138 Rh5 N10 172.6(2) . . ?
C138 Rh5 C137 82.3(3) . . ?
N11 Rh6 Rh5 90.61(11) . . ?
N11 Rh6 N12 87.95(15) . . ?
N12 Rh6 Rh5 87.62(10) . . ?
C125 Rh6 Rh5 97.5(2) . . ?
C125 Rh6 N11 171.7(3) . . ?
C125 Rh6 N12 93.9(2) . . ?
C126 Rh6 Rh5 98.5(2) . . ?
C126 Rh6 N11 93.9(2) . . ?
C126 Rh6 N12 173.6(2) . . ?
C126 Rh6 C125 83.4(3) . . ?
C93 N9 Rh5 123.2(3) . . ?
C118 N9 Rh5 129.5(3) . . ?
C118 N9 C93 105.1(4) . . ?
C95 N10 Rh5 122.3(3) . . ?
C96 N10 Rh5 129.0(3) . . ?
C96 N10 C95 107.1(4) . . ?
C101 N11 Rh6 129.7(3) . . ?
C101 N11 C104 106.2(4) . . ?
C104 N11 Rh6 121.2(3) . . ?
C102 N12 Rh6 122.0(3) . . ?
C115 N12 Rh6 130.0(3) . . ?
C115 N12 C102 106.5(4) . . ?
N9 C93 C120 109.1(4) . . ?
C94 C93 N9 125.2(5) . . ?
C94 C93 C120 125.7(5) . . ?
C93 C94 C131 118.1(4) . . ?
C95 C94 C93 125.9(5) . . ?
C95 C94 C131 115.9(4) . . ?
N10 C95 C98 107.8(5) . . ?
C94 C95 N10 126.6(4) . . ?
C94 C95 C98 125.5(5) . . ?
N10 C96 C97 109.6(5) . . ?
N10 C96 C99 127.6(5) . . ?
C97 C96 C99 122.8(5) . . ?
C96 C97 H97 126.2 . . ?
C98 C97 C96 107.7(5) . . ?
C98 C97 H97 126.2 . . ?
C95 C98 H98 126.1 . . ?
C97 C98 C95 107.8(5) . . ?
C97 C98 H98 126.1 . . ?
C100 C99 C96 121.4(5) . . ?
C130 C99 C96 120.5(6) . . ?
C130 C99 C100 117.3(6) . . ?
C99 C100 C101 120.0(5) . . ?
C127 C100 C99 120.0(5) . . ?
C127 C100 C101 119.3(6) . . ?
N11 C101 C100 126.1(5) . . ?
N11 C101 C106 110.3(5) . . ?
C106 C101 C100 123.4(6) . . ?
N12 C102 C113 108.2(4) . . ?
C103 C102 N12 125.7(4) . . ?
C103 C102 C113 125.9(4) . . ?
C102 C103 C104 126.2(4) . . ?
C102 C103 C107 116.4(4) . . ?
C104 C103 C107 117.1(4) . . ?
C103 C104 N11 125.1(5) . . ?
C103 C104 C105 125.8(4) . . ?
C105 C104 N11 108.8(5) . . ?
C104 C105 H105 126.1 . . ?
C106 C105 C104 107.7(5) . . ?
C106 C105 H105 126.1 . . ?
C101 C106 H106 126.5 . . ?
C105 C106 C101 107.0(6) . . ?
C105 C106 H106 126.5 . . ?
C108 C107 C103 120.7(4) . . ?
C112 C107 C103 120.4(4) . . ?
C112 C107 C108 118.9(4) . . ?
C107 C108 H108 120.1 . . ?
C109 C108 C107 119.8(4) . . ?
C109 C108 H108 120.1 . . ?
C108 C109 H109 119.8 . . ?
C110 C109 C108 120.4(4) . . ?
C110 C109 H109 119.8 . . ?
C109 C110 H110 119.9 . . ?
C109 C110 C111 120.2(4) . . ?
C111 C110 H110 119.9 . . ?
C110 C111 H111 119.9 . . ?
C110 C111 C112 120.1(4) . . ?
C112 C111 H111 119.9 . . ?
C107 C112 C111 120.5(4) . . ?
C107 C112 H112 119.8 . . ?
C111 C112 H112 119.8 . . ?
C102 C113 H113 125.9 . . ?
C114 C113 C102 108.2(4) . . ?
C114 C113 H113 125.9 . . ?
C113 C114 H114 127.1 . . ?
C113 C114 C115 105.9(5) . . ?
C115 C114 H114 127.1 . . ?
N12 C115 C114 111.2(4) . . ?
N12 C115 C116 127.6(5) . . ?
C114 C115 C116 121.1(5) . . ?
C117 C116 C115 118.9(4) . . ?
C124 C116 C115 120.6(5) . . ?
C124 C116 C117 119.8(5) . . ?
C116 C117 C118 121.6(4) . . ?
C121 C117 C116 118.6(5) . . ?
C121 C117 C118 119.6(5) . . ?
N9 C118 C117 123.7(5) . . ?
N9 C118 C119 111.9(4) . . ?
C119 C118 C117 124.3(5) . . ?
C118 C119 H119 126.7 . . ?
C120 C119 C118 106.6(5) . . ?
C120 C119 H119 126.7 . . ?
C93 C120 H120 126.3 . . ?
C119 C120 C93 107.3(5) . . ?
C119 C120 H120 126.3 . . ?
C117 C121 H121 119.3 . . ?
C122 C121 C117 121.3(7) . . ?
C122 C121 H121 119.3 . . ?
C121 C122 H122 120.2 . . ?
C121 C122 C123 119.7(6) . . ?
C123 C122 H122 120.2 . . ?
C122 C123 H123 119.9 . . ?
C122 C123 C124 120.3(6) . . ?
C124 C123 H123 119.9 . . ?
C116 C124 C123 120.2(6) . . ?
C116 C124 H124 119.9 . . ?
C123 C124 H124 119.9 . . ?
O9 C125 Rh6 171.1(7) . . ?
O10 C126 Rh6 171.1(7) . . ?
C100 C127 H127 120.1 . . ?
C128 C127 C100 119.8(7) . . ?
C128 C127 H127 120.1 . . ?
C127 C128 H128 119.6 . . ?
C129 C128 C127 120.8(7) . . ?
C129 C128 H128 119.6 . . ?
C128 C129 H129 120.1 . . ?
C128 C129 C130 119.8(7) . . ?
C130 C129 H129 120.1 . . ?
C99 C130 H130 118.9 . . ?
C129 C130 C99 122.3(7) . . ?
C129 C130 H130 118.9 . . ?
C132 C131 C94 121.7(4) . . ?
C136 C131 C94 119.5(4) . . ?
C136 C131 C132 118.9(4) . . ?
C131 C132 H132 119.9 . . ?
C133 C132 C131 120.1(5) . . ?
C133 C132 H132 119.9 . . ?
C132 C133 H133 119.5 . . ?
C134 C133 C132 121.0(5) . . ?
C134 C133 H133 119.5 . . ?
C133 C134 H134 120.8 . . ?
C133 C134 C135 118.4(5) . . ?
C135 C134 H134 120.8 . . ?
C134 C135 H135 119.2 . . ?
C134 C135 C136 121.5(5) . . ?
C136 C135 H135 119.2 . . ?
C131 C136 C135 120.1(4) . . ?
C131 C136 H136 120.0 . . ?
C135 C136 H136 120.0 . . ?
O11 C137 Rh5 170.8(6) . . ?
O12 C138 Rh5 172.1(6) . . ?
loop_
_geom_bond_atom_site_label_1
_geom_bond_atom_site_label_2
_geom_bond_distance
_geom_bond_site_symmetry_2
_geom_bond_publ_flag
Rh1 N1 2.083(3) . ?
Rh1 N2 2.077(3) . ?
Rh1 C45 1.858(5) . ?
Rh1 C46 1.855(6) . ?
Rh2 N3 2.067(3) . ?
Rh2 N4 2.089(4) . ?
Rh2 C33 1.862(5) . ?
Rh2 C34 1.864(6) . ?
O1 C33 1.135(5) . ?
O2 C34 1.131(6) . ?
O3 C45 1.129(5) . ?
O4 C46 1.129(6) . ?
N1 C1 1.403(5) . ?
N1 C26 1.348(5) . ?
N2 C3 1.406(5) . ?
N2 C4 1.346(5) . ?
N3 C9 1.352(5) . ?
N3 C12 1.405(5) . ?
N4 C10 1.413(5) . ?
N4 C23 1.369(5) . ?
C1 C2 1.398(5) . ?
C1 C28 1.409(5) . ?
C2 C3 1.400(5) . ?
C2 C39 1.504(5) . ?
C3 C6 1.411(5) . ?
C4 C5 1.394(6) . ?
C4 C7 1.486(6) . ?
C5 H5 0.9300 . ?
C5 C6 1.369(6) . ?
C6 H6 0.9300 . ?
C7 C8 1.395(6) . ?
C7 C38 1.394(6) . ?
C8 C9 1.478(6) . ?
C8 C35 1.405(6) . ?
C9 C14 1.413(6) . ?
C10 C11 1.395(6) . ?
C10 C21 1.402(6) . ?
C11 C12 1.395(6) . ?
C11 C15 1.503(6) . ?
C12 C13 1.423(6) . ?
C13 H13 0.9300 . ?
C13 C14 1.366(7) . ?
C14 H14 0.9300 . ?
C15 C16 1.372(7) . ?
C15 C20 1.389(7) . ?
C16 H16 0.9300 . ?
C16 C17 1.379(7) . ?
C17 H17 0.9300 . ?
C17 C18 1.358(9) . ?
C18 H18 0.9300 . ?
C18 C19 1.359(10) . ?
C19 H19 0.9300 . ?
C19 C20 1.402(8) . ?
C20 H20 0.9300 . ?
C21 H21 0.9300 . ?
C21 C22 1.363(6) . ?
C22 H22 0.9300 . ?
C22 C23 1.396(6) . ?
C23 C24 1.488(6) . ?
C24 C25 1.390(6) . ?
C24 C32 1.386(6) . ?
C25 C26 1.488(5) . ?
C25 C29 1.389(6) . ?
C26 C27 1.397(6) . ?
C27 H27 0.9300 . ?
C27 C28 1.377(5) . ?
C28 H28 0.9300 . ?
C29 H29 0.9300 . ?
C29 C30 1.376(6) . ?
C30 H30 0.9300 . ?
C30 C31 1.373(7) . ?
C31 H31 0.9300 . ?
C31 C32 1.379(7) . ?
C32 H32 0.9300 . ?
C35 H35 0.9300 . ?
C35 C36 1.369(7) . ?
C36 H36 0.9300 . ?
C36 C37 1.351(7) . ?
C37 H37 0.9300 . ?
C37 C38 1.387(7) . ?
C38 H38 0.9300 . ?
C39 C40 1.380(6) . ?
C39 C44 1.368(6) . ?
C40 H40 0.9300 . ?
C40 C41 1.390(6) . ?
C41 H41 0.9300 . ?
C41 C42 1.353(7) . ?
C42 H42 0.9300 . ?
C42 C43 1.368(8) . ?
C43 H43 0.9300 . ?
C43 C44 1.409(7) . ?
C44 H44 0.9300 . ?
Rh3 N5 2.072(3) . ?
Rh3 N6 2.089(3) . ?
Rh3 C91 1.852(5) . ?
Rh3 C92 1.833(6) . ?
Rh4 N7 2.087(4) . ?
Rh4 N8 2.082(3) . ?
Rh4 C79 1.866(5) . ?
Rh4 C80 1.852(5) . ?
O5 C79 1.122(5) . ?
O6 C80 1.130(6) . ?
O7 C91 1.134(5) . ?
O8 C92 1.143(6) . ?
N5 C47 1.411(5) . ?
N5 C72 1.352(5) . ?
N6 C49 1.402(6) . ?
N6 C50 1.342(6) . ?
N7 C55 1.365(6) . ?
N7 C58 1.400(6) . ?
N8 C56 1.405(5) . ?
N8 C69 1.352(5) . ?
C47 C48 1.406(6) . ?
C47 C74 1.400(6) . ?
C48 C49 1.386(7) . ?
C48 C85 1.512(6) . ?
C49 C52 1.420(6) . ?
C50 C51 1.412(7) . ?
C50 C53 1.490(7) . ?
C51 H51 0.9300 . ?
C51 C52 1.347(7) . ?
C52 H52 0.9300 . ?
C53 C54 1.388(8) . ?
C53 C84 1.398(7) . ?
C54 C55 1.467(8) . ?
C54 C81 1.402(7) . ?
C55 C60 1.426(7) . ?
C56 C57 1.406(6) . ?
C56 C67 1.406(6) . ?
C57 C58 1.391(6) . ?
C57 C61 1.499(6) . ?
C58 C59 1.422(7) . ?
C59 H59 0.9300 . ?
C59 C60 1.361(8) . ?
C60 H60 0.9300 . ?
C61 C62 1.385(7) . ?
C61 C66 1.398(7) . ?
C62 H62 0.9300 . ?
C62 C63 1.386(7) . ?
C63 H63 0.9300 . ?
C63 C64 1.351(9) . ?
C64 H64 0.9300 . ?
C64 C65 1.386(10) . ?
C65 H65 0.9300 . ?
C65 C66 1.390(8) . ?
C66 H66 0.9300 . ?
C67 H67 0.9300 . ?
C67 C68 1.361(6) . ?
C68 H68 0.9300 . ?
C68 C69 1.406(6) . ?
C69 C70 1.481(6) . ?
C70 C71 1.401(6) . ?
C70 C78 1.386(6) . ?
C71 C72 1.482(6) . ?
C71 C75 1.400(6) . ?
C72 C73 1.414(6) . ?
C73 H73 0.9300 . ?
C73 C74 1.367(6) . ?
C74 H74 0.9300 . ?
C75 H75 0.9300 . ?
C75 C76 1.378(6) . ?
C76 H76 0.9300 . ?
C76 C77 1.357(7) . ?
C77 H77 0.9300 . ?
C77 C78 1.390(7) . ?
C78 H78 0.9300 . ?
C81 H81 0.9300 . ?
C81 C82 1.381(10) . ?
C82 H82 0.9300 . ?
C82 C83 1.362(11) . ?
C83 H83 0.9300 . ?
C83 C84 1.388(9) . ?
C84 H84 0.9300 . ?
C85 C86 1.390(6) . ?
C85 C90 1.364(7) . ?
C86 H86 0.9300 . ?
C86 C87 1.392(8) . ?
C87 H87 0.9300 . ?
C87 C88 1.358(9) . ?
C88 H88 0.9300 . ?
C88 C89 1.382(10) . ?
C89 H89 0.9300 . ?
C89 C90 1.398(8) . ?
C90 H90 0.9300 . ?
Rh5 Rh6 3.1789(6) . ?
Rh5 N9 2.084(4) . ?
Rh5 N10 2.086(4) . ?
Rh5 C137 1.848(7) . ?
Rh5 C138 1.846(6) . ?
Rh6 N11 2.080(4) . ?
Rh6 N12 2.089(4) . ?
Rh6 C125 1.841(7) . ?
Rh6 C126 1.836(7) . ?
O9 C125 1.132(7) . ?
O10 C126 1.137(7) . ?
O11 C137 1.138(7) . ?
O12 C138 1.126(7) . ?
N9 C93 1.395(6) . ?
N9 C118 1.363(6) . ?
N10 C95 1.398(6) . ?
N10 C96 1.357(6) . ?
N11 C101 1.357(6) . ?
N11 C104 1.397(5) . ?
N12 C102 1.396(5) . ?
N12 C115 1.335(6) . ?
C93 C94 1.385(6) . ?
C93 C120 1.420(7) . ?
C94 C95 1.381(6) . ?
C94 C131 1.494(6) . ?
C95 C98 1.415(7) . ?
C96 C97 1.404(8) . ?
C96 C99 1.459(7) . ?
C97 H97 0.9300 . ?
C97 C98 1.358(7) . ?
C98 H98 0.9300 . ?
C99 C100 1.409(8) . ?
C99 C130 1.399(7) . ?
C100 C101 1.492(7) . ?
C100 C127 1.405(8) . ?
C101 C106 1.399(8) . ?
C102 C103 1.385(6) . ?
C102 C113 1.411(7) . ?
C103 C104 1.393(7) . ?
C103 C107 1.495(5) . ?
C104 C105 1.395(7) . ?
C105 H105 0.9300 . ?
C105 C106 1.368(8) . ?
C106 H106 0.9300 . ?
C107 C108 1.390(6) . ?
C107 C112 1.378(6) . ?
C108 H108 0.9300 . ?
C108 C109 1.386(6) . ?
C109 H109 0.9300 . ?
C109 C110 1.362(6) . ?
C110 H110 0.9300 . ?
C110 C111 1.367(6) . ?
C111 H111 0.9300 . ?
C111 C112 1.383(6) . ?
C112 H112 0.9300 . ?
C113 H113 0.9300 . ?
C113 C114 1.362(7) . ?
C114 H114 0.9300 . ?
C114 C115 1.418(7) . ?
C115 C116 1.490(7) . ?
C116 C117 1.398(7) . ?
C116 C124 1.384(7) . ?
C117 C118 1.484(7) . ?
C117 C121 1.396(7) . ?
C118 C119 1.394(7) . ?
C119 H119 0.9300 . ?
C119 C120 1.368(7) . ?
C120 H120 0.9300 . ?
C121 H121 0.9300 . ?
C121 C122 1.369(9) . ?
C122 H122 0.9300 . ?
C122 C123 1.378(10) . ?
C123 H123 0.9300 . ?
C123 C124 1.385(9) . ?
C124 H124 0.9300 . ?
C127 H127 0.9300 . ?
C127 C128 1.380(9) . ?
C128 H128 0.9300 . ?
C128 C129 1.365(10) . ?
C129 H129 0.9300 . ?
C129 C130 1.370(9) . ?
C130 H130 0.9300 . ?
C131 C132 1.390(6) . ?
C131 C136 1.379(6) . ?
C132 H132 0.9300 . ?
C132 C133 1.386(7) . ?
C133 H133 0.9300 . ?
C133 C134 1.373(7) . ?
C134 H134 0.9300 . ?
C134 C135 1.376(7) . ?
C135 H135 0.9300 . ?
C135 C136 1.381(7) . ?
C136 H136 0.9300 . ?
loop_
_smtbx_masks_void_nr
_smtbx_masks_void_average_x
_smtbx_masks_void_average_y
_smtbx_masks_void_average_z
_smtbx_masks_void_volume
_smtbx_masks_void_count_electrons
_smtbx_masks_void_content
1 0.000 0.000 0.000 1046.6 143.6 ?
2 0.388 0.466 0.393 16.0 0.0 ?
3 0.612 0.534 0.607 16.0 0.0 ?
